MODEL 5
REMARK VINA RESULT: -6.108674294      1.137      1.395
REMARK  5 active torsions:
REMARK  status: ('A' for Active; 'I' for Inactive)
REMARK    1  A    between atoms: C2_2  and  C4_5
REMARK       I    between atoms: C4_5  and  N2_7
REMARK    2  A    between atoms: N2_7  and  C5_9
REMARK    3  A    between atoms: C6_14  and  S1_15
REMARK    4  A    between atoms: S1_15  and  C7_16
REMARK    5  A    between atoms: C7_16  and  C9_18
ROOT
HETATM    1  C1  UNL     1      16.567   3.279  21.176  1.00  0.00     0.035 C
HETATM    2  C2  UNL     1      15.459   3.166  20.144  1.00  0.00     0.181 C
HETATM    3  C3  UNL     1      14.277   3.865  20.638  1.00  0.00     0.073 C
HETATM    4  N1  UNL     1      13.351   4.417  21.006  1.00  0.00    -0.196 NA
ENDROOT
BRANCH   2   5
HETATM    5  C4  UNL     1      15.157   1.741  19.863  1.00  0.00     0.241 C
HETATM    6  O1  UNL     1      14.409   1.489  18.874  1.00  0.00    -0.272 OA
HETATM    7  N2  UNL     1      15.691   0.715  20.676  1.00  0.00    -0.305 N
ATOM      8  H2  UNL     1      16.290   0.954  21.466  1.00  0.00     0.171 HD
BRANCH   7   9
HETATM    9  C5  UNL     1      15.397  -0.646  20.401  1.00  0.00     0.168 A
HETATM   10  N3  UNL     1      15.389  -1.252  19.215  1.00  0.00    -0.278 N
HETATM   11  N4  UNL     1      15.104  -2.480  19.142  1.00  0.00    -0.286 N
ATOM     12  H3  UNL     1      15.613  -0.727  18.370  1.00  0.00     0.189 HD
HETATM   13  C6  UNL     1      14.813  -3.161  20.244  1.00  0.00     0.130 A
ATOM     14  H4  UNL     1      15.097  -2.948  18.236  1.00  0.00     0.188 HD
HETATM   15  S2  UNL     1      14.967  -1.941  21.431  1.00  0.00    -0.026 SA
BRANCH  13  16
HETATM   16  S1  UNL     1      14.377  -4.909  20.393  1.00  0.00    -0.088 SA
BRANCH  16  17
HETATM   17  C7  UNL     1      12.577  -5.000  20.143  1.00  0.00     0.151 C
HETATM   18  C8  UNL     1      11.909  -3.710  20.627  1.00  0.00     0.033 C
BRANCH  17  19
HETATM   19  C9  UNL     1      12.346  -5.106  18.680  1.00  0.00     0.187 C
HETATM   20  O2  UNL     1      11.672  -6.065  18.188  1.00  0.00    -0.647 OA
HETATM   21  O3  UNL     1      12.872  -4.150  17.839  1.00  0.00    -0.647 OA
ENDBRANCH  17  19
ENDBRANCH  16  17
ENDBRANCH  13  16
ENDBRANCH   7   9
ENDBRANCH   2   5
TORSDOF 5
ENDMDL