MODEL 4
REMARK VINA RESULT: -6.872597480      2.277      3.926
REMARK  7 active torsions:
REMARK  status: ('A' for Active; 'I' for Inactive)
REMARK    1  A    between atoms: N1_1  and  N2_4
REMARK    2  A    between atoms: C1_5  and  O1_6
REMARK    3  A    between atoms: O1_6  and  C2_7
REMARK    4  A    between atoms: C2_7  and  N3_9
REMARK    5  A    between atoms: N3_9  and  C3_11
REMARK    6  A    between atoms: C3_11  and  C4_12
REMARK    7  A    between atoms: C5_13  and  C6_14
ROOT
HETATM    1  C2  UNL     1      14.763  -2.396  19.694  1.00  0.00     0.218 C
HETATM    2  S1  UNL     1      14.262  -3.720  20.497  1.00  0.00    -0.033 SA
ENDROOT
BRANCH   1   3
HETATM    3  O1  UNL     1      15.882  -1.696  20.086  1.00  0.00    -0.249 OA
BRANCH   3   4
HETATM    4  C1  UNL     1      15.796  -0.443  20.627  1.00  0.00     0.277 A
HETATM    5  N2  UNL     1      16.052   0.694  19.960  1.00  0.00    -0.164 N
HETATM    6  C11 UNL     1      15.866   1.712  20.809  1.00  0.00     0.411 A
HETATM    7  O2  UNL     1      15.505   1.168  21.953  1.00  0.00    -0.176 OA
HETATM    8  O3  UNL     1      16.015   2.940  20.531  1.00  0.00    -0.234 OA
HETATM    9  N4  UNL     1      15.455  -0.109  21.877  1.00  0.00    -0.217 N
ATOM     10  H4  UNL     1      15.203  -0.752  22.628  1.00  0.00     0.199 HD
BRANCH   5  11
HETATM   11  N1  UNL     1      16.445   0.831  18.620  1.00  0.00    -0.331 N
ATOM     12  H12 UNL     1      16.059   1.514  17.968  1.00  0.00     0.177 HD
ATOM     13  H11 UNL     1      17.148   0.289  18.119  1.00  0.00     0.177 HD
ENDBRANCH   5  11
ENDBRANCH   3   4
ENDBRANCH   1   3
BRANCH   1  14
HETATM   14  N3  UNL     1      13.995  -1.977  18.554  1.00  0.00    -0.358 N
ATOM     15  H3  UNL     1      14.467  -1.579  17.742  1.00  0.00     0.162 HD
BRANCH  14  16
HETATM   16  C3  UNL     1      12.571  -2.118  18.551  1.00  0.00     0.149 C
BRANCH  16  17
HETATM   17  C4  UNL     1      11.744  -0.914  18.513  1.00  0.00    -0.011 C
HETATM   18  C5  UNL     1      11.158  -0.305  17.342  1.00  0.00    -0.024 C
BRANCH  18  19
HETATM   19  C6  UNL     1      11.781   0.214  16.142  1.00  0.00     0.008 C
HETATM   20  C7  UNL     1      11.038   0.974  15.110  1.00  0.00     0.008 C
HETATM   21  C8  UNL     1      10.512   2.137  15.951  1.00  0.00     0.001 C
HETATM   22  C9  UNL     1      11.742   2.482  16.811  1.00  0.00     0.001 C
HETATM   23  C10 UNL     1      12.743   1.376  16.605  1.00  0.00     0.008 C
ENDBRANCH  18  19
ENDBRANCH  16  17
ENDBRANCH  14  16
ENDBRANCH   1  14
TORSDOF 7
ENDMDL