MODEL 5
REMARK VINA RESULT: -7.006110490      2.392      3.273
REMARK  4 active torsions:
REMARK  status: ('A' for Active; 'I' for Inactive)
REMARK    1  A    between atoms: C2_5  and  N2_6
REMARK    2  A    between atoms: N2_6  and  C3_8
REMARK    3  A    between atoms: C9_14  and  N3_15
REMARK    4  A    between atoms: C11_19  and  N4_20
ROOT
HETATM    1  O1  UNL     1      11.215  -0.567  17.600  1.00  0.00    -0.265 OA
HETATM    2  C1  UNL     1      12.019  -1.097  18.411  1.00  0.00     0.280 A
HETATM    3  N1  UNL     1      13.282  -0.670  18.565  1.00  0.00    -0.306 N
ATOM      4  H1  UNL     1      13.575   0.119  17.989  1.00  0.00     0.170 HD
HETATM    5  C2  UNL     1      14.198  -1.181  19.406  1.00  0.00     0.138 A
HETATM    6  C9  UNL     1      13.760  -2.253  20.177  1.00  0.00     0.149 A
HETATM    7  C10 UNL     1      12.440  -2.727  20.039  1.00  0.00     0.082 A
HETATM    8  C11 UNL     1      11.564  -2.151  19.155  1.00  0.00     0.173 A
ENDROOT
BRANCH   5   9
HETATM    9  N2  UNL     1      15.520  -0.714  19.504  1.00  0.00    -0.370 N
ATOM     10  H2  UNL     1      16.227  -1.338  19.118  1.00  0.00     0.161 HD
BRANCH   9  11
HETATM   11  C3  UNL     1      16.027   0.499  20.061  1.00  0.00     0.083 C
HETATM   12  C4  UNL     1      16.312   1.606  19.097  1.00  0.00     0.025 C
HETATM   13  C5  UNL     1      17.032   2.723  19.869  1.00  0.00     0.002 C
HETATM   14  C6  UNL     1      16.222   3.256  20.993  1.00  0.00     0.000 C
HETATM   15  C7  UNL     1      14.969   2.473  21.169  1.00  0.00     0.002 C
HETATM   16  C8  UNL     1      15.151   0.981  21.204  1.00  0.00     0.025 C
ENDBRANCH   9  11
ENDBRANCH   5   9
BRANCH   6  17
HETATM   17  N3  UNL     1      14.523  -2.957  21.124  1.00  0.00    -0.112 N
HETATM   18  O2  UNL     1      14.347  -4.224  21.213  1.00  0.00    -0.532 OA
HETATM   19  O3  UNL     1      15.446  -2.431  21.963  1.00  0.00    -0.532 OA
ENDBRANCH   6  17
BRANCH   8  20
HETATM   20  N4  UNL     1      10.228  -2.611  18.996  1.00  0.00    -0.110 N
HETATM   21  O4  UNL     1       9.283  -2.157  19.680  1.00  0.00    -0.532 OA
HETATM   22  O5  UNL     1       9.937  -3.591  18.067  1.00  0.00    -0.532 OA
ENDBRANCH   8  20
TORSDOF 4
ENDMDL