MODEL 2
REMARK VINA RESULT: -7.012641860      2.422      3.325
REMARK  6 active torsions:
REMARK  status: ('A' for Active; 'I' for Inactive)
REMARK    1  A    between atoms: C2_3  and  C3_4
REMARK    2  A    between atoms: C2_3  and  C7_17
REMARK    3  A    between atoms: C3_4  and  C4_5
REMARK    4  A    between atoms: C4_5  and  C5_10
REMARK    5  A    between atoms: N2_6  and  O1_8
REMARK       I    between atoms: C7_17  and  N5_19
REMARK    6  A    between atoms: N5_19  and  C8_21
ROOT
HETATM    1  N1  UNL     1      13.632   4.952  21.005  1.00  0.00    -0.196 NA
HETATM    2  C1  UNL     1      13.758   3.838  20.773  1.00  0.00     0.073 C
HETATM    3  C2  UNL     1      13.912   2.375  20.489  1.00  0.00     0.190 C
ENDROOT
BRANCH   3   4
HETATM    4  C3  UNL     1      15.320   2.071  20.167  1.00  0.00     0.090 C
BRANCH   4   5
HETATM    5  C4  UNL     1      15.717   0.718  19.848  1.00  0.00     0.062 C
HETATM    6  N2  UNL     1      16.378   0.534  18.745  1.00  0.00    -0.271 N
ATOM      7  H2  UNL     1      16.669  -0.412  18.499  1.00  0.00     0.194 HD
BRANCH   6   8
HETATM    8  O1  UNL     1      16.694   1.549  17.915  1.00  0.00    -0.290 OA
ATOM      9  H1  UNL     1      17.332   1.456  17.218  1.00  0.00     0.244 HD
ENDBRANCH   6   8
BRANCH   5  10
HETATM   10  C5  UNL     1      15.474  -0.456  20.726  1.00  0.00     0.081 A
HETATM   11  C6  UNL     1      15.019  -1.659  20.224  1.00  0.00     0.102 A
HETATM   12  S1  UNL     1      14.840  -2.578  21.649  1.00  0.00    -0.008 SA
HETATM   13  N3  UNL     1      15.337  -1.415  22.757  1.00  0.00    -0.269 N
HETATM   14  N4  UNL     1      15.615  -0.393  22.018  1.00  0.00    -0.292 N
ATOM     15  H3  UNL     1      15.403  -1.497  23.771  1.00  0.00     0.195 HD
ATOM     16  H4  UNL     1      15.948   0.468  22.450  1.00  0.00     0.187 HD
ENDBRANCH   5  10
ENDBRANCH   4   5
ENDBRANCH   3   4
BRANCH   3  17
HETATM   17  C7  UNL     1      12.909   1.970  19.520  1.00  0.00     0.236 C
HETATM   18  O2  UNL     1      12.446   0.779  19.575  1.00  0.00    -0.272 OA
HETATM   19  N5  UNL     1      12.407   2.851  18.489  1.00  0.00    -0.355 N
ATOM     20  H5  UNL     1      12.760   3.806  18.423  1.00  0.00     0.162 HD
BRANCH  19  21
HETATM   21  C8  UNL     1      11.417   2.392  17.558  1.00  0.00     0.084 C
HETATM   22  C9  UNL     1      12.041   1.975  16.232  1.00  0.00     0.025 C
HETATM   23  C10 UNL     1      10.842   2.138  15.293  1.00  0.00     0.002 C
HETATM   24  C11 UNL     1      10.328   3.497  15.711  1.00  0.00     0.002 C
HETATM   25  C12 UNL     1      10.357   3.387  17.225  1.00  0.00     0.025 C
ENDBRANCH  19  21
ENDBRANCH   3  17
TORSDOF 6
ENDMDL