MODEL 4
REMARK VINA RESULT: -5.501527790      2.705      3.968
REMARK  8 active torsions:
REMARK  status: ('A' for Active; 'I' for Inactive)
REMARK    1  A    between atoms: O1_2  and  C2_3
REMARK    2  A    between atoms: C4_6  and  N1_7
REMARK    3  A    between atoms: N1_7  and  N2_9
REMARK    4  A    between atoms: N2_9  and  N3_10
REMARK    5  A    between atoms: C5_13  and  S1_14
REMARK    6  A    between atoms: S1_14  and  C6_15
REMARK    7  A    between atoms: C6_15  and  C7_16
REMARK    8  A    between atoms: C7_16  and  O3_17
ROOT
HETATM    1  C2  UNL     1      12.566   0.652  18.862  1.00  0.00     0.330 C
HETATM    2  C3  UNL     1      12.833  -0.780  19.157  1.00  0.00     0.271 C
HETATM    3  O2  UNL     1      14.235  -1.005  19.290  1.00  0.00    -0.325 OA
HETATM    4  C4  UNL     1      15.032  -0.186  20.099  1.00  0.00     0.203 C
HETATM    5  C5  UNL     1      14.703   1.084  20.177  1.00  0.00     0.125 C
HETATM    6  N4  UNL     1      13.599   1.518  19.364  1.00  0.00    -0.315 N
HETATM    7  C8  UNL     1      13.463   2.935  18.991  1.00  0.00     0.130 C
HETATM    8  C9  UNL     1      12.030   3.256  18.732  1.00  0.00     0.048 C
HETATM    9  C10 UNL     1      11.028   2.412  19.421  1.00  0.00     0.240 C
HETATM   10  N5  UNL     1      11.318   1.022  19.523  1.00  0.00    -0.021 N
ATOM     11  H51 UNL     1      11.318   0.721  20.498  1.00  0.00     0.283 HD
ATOM     12  H52 UNL     1      10.540   0.461  19.176  1.00  0.00     0.283 HD
ENDROOT
BRANCH   4  13
HETATM   13  N1  UNL     1      16.110  -0.792  20.750  1.00  0.00    -0.191 N
ATOM     14  H1  UNL     1      16.997  -0.843  20.250  1.00  0.00     0.206 HD
BRANCH  13  15
HETATM   15  N2  UNL     1      16.065  -1.271  21.885  1.00  0.00    -0.241 NA
BRANCH  15  16
HETATM   16  N3  UNL     1      15.684  -1.584  23.020  1.00  0.00    -0.260 N
ATOM     17  H32 UNL     1      14.696  -1.421  22.831  1.00  0.00     0.193 HD
ATOM     18  H31 UNL     1      15.674  -1.887  23.994  1.00  0.00     0.193 HD
ENDBRANCH  15  16
ENDBRANCH  13  15
ENDBRANCH   4  13
BRANCH   5  19
HETATM   19  S1  UNL     1      15.576   2.244  21.135  1.00  0.00    -0.106 SA
BRANCH  19  20
HETATM   20  C6  UNL     1      17.020   3.002  20.465  1.00  0.00     0.107 C
BRANCH  20  21
HETATM   21  C7  UNL     1      17.450   4.296  21.075  1.00  0.00     0.174 C
BRANCH  21  22
HETATM   22  O3  UNL     1      18.418   4.077  22.084  1.00  0.00    -0.400 OA
ATOM     23  H3  UNL     1      18.574   3.148  22.203  1.00  0.00     0.209 HD
ENDBRANCH  21  22
ENDBRANCH  20  21
ENDBRANCH  19  20
ENDBRANCH   5  19
BRANCH   1  24
HETATM   24  O1  UNL     1      12.388   0.867  17.523  1.00  0.00    -0.342 OA
HETATM   25  C1  UNL     1      11.770  -0.108  16.799  1.00  0.00     0.206 C
ENDBRANCH   1  24
TORSDOF 8
ENDMDL