MODEL 2
REMARK VINA RESULT: -7.070084553      2.393      2.899
REMARK  5 active torsions:
REMARK  status: ('A' for Active; 'I' for Inactive)
REMARK    1  A    between atoms: C2_3  and  C3_4
REMARK    2  A    between atoms: C2_3  and  S1_15
REMARK    3  A    between atoms: N2_5  and  N3_7
REMARK    4  A    between atoms: N3_7  and  C4_9
REMARK    5  A    between atoms: S1_15  and  C10_18
ROOT
HETATM    1  N1  UNL     1      16.232  -0.898  21.829  1.00  0.00    -0.196 NA
HETATM    2  C1  UNL     1      15.238  -0.962  21.225  1.00  0.00     0.085 C
HETATM    3  C2  UNL     1      13.972  -1.057  20.481  1.00  0.00     0.261 C
ENDROOT
BRANCH   3   4
HETATM    4  C3  UNL     1      13.746   0.108  19.618  1.00  0.00     0.115 C
HETATM    5  N2  UNL     1      14.291   0.198  18.464  1.00  0.00    -0.313 N
ATOM      6  H2  UNL     1      14.898  -0.546  18.119  1.00  0.00     0.185 HD
BRANCH   5   7
HETATM    7  N3  UNL     1      14.041   1.331  17.684  1.00  0.00    -0.301 N
ATOM      8  H3  UNL     1      14.719   2.093  17.659  1.00  0.00     0.187 HD
BRANCH   7   9
HETATM    9  C4  UNL     1      12.849   1.421  16.930  1.00  0.00     0.048 A
HETATM   10  C5  UNL     1      12.107   2.572  16.970  1.00  0.00     0.031 A
HETATM   11  C6  UNL     1      10.930   2.691  16.241  1.00  0.00     0.002 A
HETATM   12  C7  UNL     1      10.519   1.628  15.473  1.00  0.00     0.000 A
HETATM   13  C8  UNL     1      11.246   0.458  15.415  1.00  0.00     0.002 A
HETATM   14  C9  UNL     1      12.420   0.373  16.156  1.00  0.00     0.031 A
ENDBRANCH   7   9
ENDBRANCH   5   7
ENDBRANCH   3   4
BRANCH   3  15
HETATM   15  S1  UNL     1      14.014  -2.588  19.578  1.00  0.00     0.221 S
HETATM   16  O1  UNL     1      13.057  -2.461  18.425  1.00  0.00    -0.219 OA
HETATM   17  O2  UNL     1      15.383  -2.835  19.014  1.00  0.00    -0.219 OA
BRANCH  15  18
HETATM   18  C10 UNL     1      13.531  -3.884  20.644  1.00  0.00     0.195 A
HETATM   19  C11 UNL     1      14.075  -5.165  20.609  1.00  0.00     0.071 A
HETATM   20  C12 UNL     1      13.460  -5.914  21.584  1.00  0.00     0.118 A
HETATM   21  N4  UNL     1      12.576  -5.071  22.167  1.00  0.00    -0.271 N
HETATM   22  O3  UNL     1      12.646  -3.903  21.596  1.00  0.00    -0.226 OA
ATOM     23  H4  UNL     1      11.951  -5.314  22.936  1.00  0.00     0.194 HD
ENDBRANCH  15  18
ENDBRANCH   3  15
TORSDOF 5
ENDMDL