MODEL 3
REMARK VINA RESULT: -6.151835996      3.636      4.366
REMARK  6 active torsions:
REMARK  status: ('A' for Active; 'I' for Inactive)
REMARK    1  A    between atoms: C4_5  and  O1_6
REMARK    2  A    between atoms: C4_5  and  C5_8
REMARK    3  A    between atoms: C5_8  and  S2_9
REMARK    4  A    between atoms: S2_9  and  C6_10
REMARK    5  A    between atoms: C6_10  and  C7_11
REMARK    6  A    between atoms: C7_11  and  C8_12
ROOT
HETATM    1  S2  UNL     1      13.400   0.634  19.530  1.00  0.00    -0.165 SA
ENDROOT
BRANCH   1   2
HETATM    2  C5  UNL     1      12.776  -0.814  18.708  1.00  0.00     0.123 C
BRANCH   2   3
HETATM    3  C4  UNL     1      12.911  -2.097  19.457  1.00  0.00     0.122 C
HETATM    4  S1  UNL     1      14.073  -3.257  18.702  1.00  0.00    -0.129 SA
HETATM    5  C3  UNL     1      14.342  -4.664  19.776  1.00  0.00     0.091 C
HETATM    6  C2  UNL     1      13.119  -5.292  20.332  1.00  0.00     0.052 C
HETATM    7  C1  UNL     1      13.503  -5.993  21.635  1.00  0.00     0.022 C
HETATM    8  S3  UNL     1      11.751  -4.207  20.681  1.00  0.00    -0.160 SA
HETATM    9  C9  UNL     1      11.577  -2.839  19.522  1.00  0.00     0.124 C
BRANCH   3  10
HETATM   10  O1  UNL     1      13.255  -1.861  20.812  1.00  0.00    -0.378 OA
ATOM     11  H1  UNL     1      12.481  -1.887  21.361  1.00  0.00     0.211 HD
ENDBRANCH   3  10
ENDBRANCH   2   3
ENDBRANCH   1   2
BRANCH   1  12
HETATM   12  C6  UNL     1      15.137   0.974  19.297  1.00  0.00     0.081 C
BRANCH  12  13
HETATM   13  C7  UNL     1      15.881   1.160  20.601  1.00  0.00     0.089 C
BRANCH  13  14
HETATM   14  C8  UNL     1      15.870  -0.140  21.317  1.00  0.00     0.110 A
HETATM   15  N1  UNL     1      16.330  -1.321  20.868  1.00  0.00    -0.271 N
HETATM   16  N2  UNL     1      16.137  -2.241  21.818  1.00  0.00    -0.005 NA
ATOM     17  H1  UNL     1      16.756  -1.488  19.957  1.00  0.00     0.185 HD
HETATM   18  N3  UNL     1      15.562  -1.663  22.857  1.00  0.00    -0.225 N
HETATM   19  N4  UNL     1      15.403  -0.401  22.551  1.00  0.00    -0.275 N
ATOM     20  H3  UNL     1      15.292  -2.114  23.731  1.00  0.00     0.205 HD
ATOM     21  H4  UNL     1      14.982   0.295  23.168  1.00  0.00     0.189 HD
ENDBRANCH  13  14
ENDBRANCH  12  13
ENDBRANCH   1  12
TORSDOF 6
ENDMDL