MODEL 4
REMARK VINA RESULT: -6.009125460      2.524      5.626
REMARK  6 active torsions:
REMARK  status: ('A' for Active; 'I' for Inactive)
REMARK    1  A    between atoms: C1_2  and  C2_3
REMARK       I    between atoms: C1_2  and  N3_16
REMARK    2  A    between atoms: C2_3  and  S1_4
REMARK    3  A    between atoms: S1_4  and  C3_5
REMARK    4  A    between atoms: C4_10  and  S2_11
REMARK    5  A    between atoms: S2_11  and  C5_12
REMARK    6  A    between atoms: C5_12  and  O2_13
ROOT
HETATM    1  S1  UNL     1      15.243   1.050  20.960  1.00  0.00    -0.094 SA
ENDROOT
BRANCH   1   2
HETATM    2  C2  UNL     1      14.982   2.168  19.560  1.00  0.00     0.184 C
BRANCH   2   3
HETATM    3  C1  UNL     1      13.610   2.729  19.637  1.00  0.00     0.232 C
HETATM    4  O1  UNL     1      13.066   2.949  20.764  1.00  0.00    -0.272 OA
HETATM    5  N3  UNL     1      12.867   3.036  18.488  1.00  0.00    -0.316 N
HETATM    6  C6  UNL     1      12.436   2.125  17.676  1.00  0.00     0.079 C
ATOM      7  H3  UNL     1      12.660   4.014  18.284  1.00  0.00     0.170 HD
HETATM    8  C7  UNL     1      11.648   2.480  16.463  1.00  0.00     0.078 C
HETATM    9  N4  UNL     1      12.598   0.733  17.748  1.00  0.00    -0.380 N
HETATM   10  C8  UNL     1      11.340   1.138  15.861  1.00  0.00     0.027 C
HETATM   11  C9  UNL     1      12.424   0.247  16.393  1.00  0.00     0.121 C
ATOM     12  H4  UNL     1      12.798   0.179  18.582  1.00  0.00     0.160 HD
ENDBRANCH   2   3
ENDBRANCH   1   2
BRANCH   1  13
HETATM   13  C3  UNL     1      15.034  -0.661  20.434  1.00  0.00     0.129 A
HETATM   14  N1  UNL     1      15.257  -1.200  19.239  1.00  0.00    -0.287 N
HETATM   15  N2  UNL     1      15.053  -2.431  19.057  1.00  0.00    -0.287 N
ATOM     16  H1  UNL     1      15.591  -0.619  18.471  1.00  0.00     0.188 HD
HETATM   17  C4  UNL     1      14.616  -3.189  20.058  1.00  0.00     0.131 A
ATOM     18  H2  UNL     1      15.223  -2.846  18.140  1.00  0.00     0.188 HD
HETATM   19  S3  UNL     1      14.505  -2.034  21.313  1.00  0.00    -0.038 SA
BRANCH  17  20
HETATM   20  S2  UNL     1      14.250  -4.961  20.054  1.00  0.00    -0.077 SA
BRANCH  20  21
HETATM   21  C5  UNL     1      12.795  -5.226  18.996  1.00  0.00     0.245 C
BRANCH  21  22
HETATM   22  O2  UNL     1      12.728  -4.314  17.959  1.00  0.00    -0.391 OA
ATOM     23  H2  UNL     1      11.836  -4.040  17.778  1.00  0.00     0.210 HD
ENDBRANCH  21  22
ENDBRANCH  20  21
ENDBRANCH  17  20
ENDBRANCH   1  13
TORSDOF 6
ENDMDL