MODEL 4
REMARK VINA RESULT: -5.906236508      1.286      1.427
REMARK  6 active torsions:
REMARK  status: ('A' for Active; 'I' for Inactive)
REMARK    1  A    between atoms: C2_3  and  S1_4
REMARK    2  A    between atoms: S1_4  and  S2_5
REMARK    3  A    between atoms: S2_5  and  C3_6
REMARK    4  A    between atoms: C3_6  and  C9_18
REMARK    5  A    between atoms: N2_7  and  N3_9
REMARK       I    between atoms: N3_9  and  C4_11
REMARK    6  A    between atoms: C4_11  and  C5_13
ROOT
HETATM    1  N1  UNL     1      10.727  -3.506  21.919  1.00  0.00    -0.196 NA
HETATM    2  C1  UNL     1      11.379  -4.462  21.797  1.00  0.00     0.070 C
HETATM    3  C2  UNL     1      12.211  -5.642  21.634  1.00  0.00     0.210 C
ENDROOT
BRANCH   3   4
HETATM    4  S1  UNL     1      13.651  -5.195  20.648  1.00  0.00    -0.077 SA
BRANCH   4   5
HETATM    5  S2  UNL     1      13.188  -4.163  18.883  1.00  0.00    -0.032 SA
BRANCH   5   6
HETATM    6  C3  UNL     1      13.588  -2.446  18.920  1.00  0.00     0.161 C
HETATM    7  N2  UNL     1      14.803  -2.128  19.179  1.00  0.00    -0.286 N
ATOM      8  H2  UNL     1      15.463  -2.887  19.347  1.00  0.00     0.188 HD
BRANCH   7   9
HETATM    9  N3  UNL     1      15.287  -0.833  19.246  1.00  0.00    -0.263 N
HETATM   10  C4  UNL     1      15.561  -0.175  20.480  1.00  0.00     0.293 C
HETATM   11  O1  UNL     1      15.378  -0.736  21.585  1.00  0.00    -0.264 OA
ATOM     12  H3  UNL     1      15.454  -0.327  18.376  1.00  0.00     0.190 HD
BRANCH  10  13
HETATM   13  C5  UNL     1      16.070   1.193  20.493  1.00  0.00     0.144 A
HETATM   14  C6  UNL     1      16.631   1.901  19.459  1.00  0.00     0.045 A
HETATM   15  C7  UNL     1      16.957   3.144  19.950  1.00  0.00     0.027 A
HETATM   16  C8  UNL     1      16.573   3.140  21.285  1.00  0.00     0.143 A
HETATM   17  O2  UNL     1      16.065   1.976  21.537  1.00  0.00    -0.317 OA
ENDBRANCH  10  13
ENDBRANCH   7   9
BRANCH   6  18
HETATM   18  C9  UNL     1      12.621  -1.424  18.673  1.00  0.00     0.290 C
HETATM   19  N4  UNL     1      11.822  -0.920  19.728  1.00  0.00    -0.055 NA
HETATM   20  O3  UNL     1      12.411  -0.907  17.529  1.00  0.00    -0.269 OA
ENDBRANCH   6  18
ENDBRANCH   5   6
ENDBRANCH   4   5
ENDBRANCH   3   4
TORSDOF 6
ENDMDL