MODEL 1
REMARK VINA RESULT: -8.572656745      0.000      0.000
REMARK  15 active torsions:
REMARK  status: ('A' for Active; 'I' for Inactive)
REMARK    1  A    between atoms: C2_2  and  C3_3
REMARK    2  A    between atoms: C3_3  and  N1_4
REMARK    3  A    between atoms: C3_3  and  C11_23
REMARK    4  A    between atoms: N1_4  and  C4_6
REMARK    5  A    between atoms: C4_6  and  O1_7
REMARK    6  A    between atoms: C4_6  and  C5_9
REMARK    7  A    between atoms: C7_11  and  O2_12
REMARK    8  A    between atoms: C8_14  and  O3_15
REMARK    9  A    between atoms: C9_17  and  O4_18
REMARK   10  A    between atoms: C10_20  and  O5_21
REMARK   11  A    between atoms: C11_23  and  C14_26
REMARK   12  A    between atoms: C14_26  and  O6_27
REMARK   13  A    between atoms: O6_27  and  C15_28
REMARK   14  A    between atoms: C15_28  and  C16_30
REMARK   15  A    between atoms: N2_34  and  C20_35
ROOT
HETATM    1  N1  UNL     1      34.707  47.660  45.917  1.00  0.00    -0.366 N
ATOM      2  H1  UNL     1      34.506  48.279  45.132  1.00  0.00     0.162 HD
ENDROOT
BRANCH   1   3
HETATM    3  C3  UNL     1      33.591  47.293  46.671  1.00  0.00     0.016 C
BRANCH   3   4
HETATM    4  C2  UNL     1      33.665  46.406  47.796  1.00  0.00     0.015 C
HETATM    5  C1  UNL     1      34.118  46.620  49.016  1.00  0.00     0.013 C
ENDBRANCH   3   4
BRANCH   3   6
HETATM    6  C11 UNL     1      32.347  47.310  45.821  1.00  0.00     0.017 C
HETATM    7  C12 UNL     1      31.738  48.741  46.072  1.00  0.00     0.024 C
HETATM    8  C13 UNL     1      32.401  47.182  44.387  1.00  0.00     0.024 C
BRANCH   6   9
HETATM    9  C14 UNL     1      31.280  46.429  46.440  1.00  0.00     0.194 C
BRANCH   9  10
HETATM   10  O6  UNL     1      30.752  45.404  45.740  1.00  0.00    -0.319 OA
BRANCH  10  11
HETATM   11  C15 UNL     1      29.628  45.195  45.022  1.00  0.00     0.292 C
HETATM   12  O7  UNL     1      28.511  45.416  45.517  1.00  0.00    -0.263 OA
BRANCH  11  13
HETATM   13  C16 UNL     1      29.635  44.693  43.597  1.00  0.00     0.322 C
HETATM   14  C17 UNL     1      30.738  43.644  43.572  1.00  0.00     0.048 C
HETATM   15  C18 UNL     1      30.045  42.438  44.171  1.00  0.00     0.033 C
HETATM   16  C19 UNL     1      28.564  42.642  43.927  1.00  0.00     0.274 C
HETATM   17  N2  UNL     1      28.404  43.968  43.423  1.00  0.00     0.106 N
BRANCH  17  18
HETATM   18  C20 UNL     1      27.866  44.026  42.103  1.00  0.00     0.216 C
HETATM   19  C21 UNL     1      28.888  44.350  41.037  1.00  0.00     0.042 C
HETATM   20  C22 UNL     1      26.722  45.035  42.051  1.00  0.00     0.042 C
ENDBRANCH  17  18
ENDBRANCH  11  13
ENDBRANCH  10  11
ENDBRANCH   9  10
ENDBRANCH   6   9
ENDBRANCH   3   6
ENDBRANCH   1   3
BRANCH   1  21
HETATM   21  C4  UNL     1      36.021  47.327  46.057  1.00  0.00     0.224 C
BRANCH  21  22
HETATM   22  O1  UNL     1      36.729  47.925  47.104  1.00  0.00    -0.376 OA
ATOM     23  H1  UNL     1      37.499  48.432  46.877  1.00  0.00     0.212 HD
ENDBRANCH  21  22
BRANCH  21  24
HETATM   24  C5  UNL     1      36.922  47.511  44.863  1.00  0.00     0.068 C
HETATM   25  C6  UNL     1      37.179  46.118  44.324  1.00  0.00     0.046 C
HETATM   26  C7  UNL     1      38.046  46.111  43.109  1.00  0.00     0.150 C
HETATM   27  C8  UNL     1      38.714  47.443  42.856  1.00  0.00     0.178 C
HETATM   28  C9  UNL     1      39.259  47.972  44.137  1.00  0.00     0.178 C
HETATM   29  C10 UNL     1      38.164  48.248  45.170  1.00  0.00     0.158 C
BRANCH  26  30
HETATM   30  O2  UNL     1      37.318  45.799  41.951  1.00  0.00    -0.393 OA
ATOM     31  H2  UNL     1      37.886  45.526  41.240  1.00  0.00     0.210 HD
ENDBRANCH  26  30
BRANCH  27  32
HETATM   32  O3  UNL     1      39.806  47.227  42.000  1.00  0.00    -0.390 OA
ATOM     33  H3  UNL     1      39.471  46.922  41.166  1.00  0.00     0.210 HD
ENDBRANCH  27  32
BRANCH  28  34
HETATM   34  O4  UNL     1      40.210  47.092  44.671  1.00  0.00    -0.390 OA
ATOM     35  H4  UNL     1      40.098  47.007  45.611  1.00  0.00     0.210 HD
ENDBRANCH  28  34
BRANCH  29  36
HETATM   36  O5  UNL     1      37.893  49.614  45.077  1.00  0.00    -0.392 OA
ATOM     37  H5  UNL     1      38.116  49.900  44.199  1.00  0.00     0.210 HD
ENDBRANCH  29  36
ENDBRANCH  21  24
ENDBRANCH   1  21
TORSDOF 15
ENDMDL