MODEL 4
REMARK VINA RESULT: -6.031368538      1.740      5.601
REMARK  15 active torsions:
REMARK  status: ('A' for Active; 'I' for Inactive)
REMARK    1  A    between atoms: C2_2  and  N1_4
REMARK    2  A    between atoms: N1_4  and  C4_7
REMARK    3  A    between atoms: C4_7  and  O1_8
REMARK    4  A    between atoms: C4_7  and  C9_13
REMARK    5  A    between atoms: O1_8  and  C5_9
REMARK    6  A    between atoms: C9_13  and  C10_14
REMARK    7  A    between atoms: C9_13  and  O3_22
REMARK    8  A    between atoms: C10_14  and  N2_15
REMARK    9  A    between atoms: N2_15  and  C11_16
REMARK   10  A    between atoms: C11_16  and  C12_17
REMARK   11  A    between atoms: C12_17  and  O2_18
REMARK   12  A    between atoms: O3_22  and  C15_23
REMARK   13  A    between atoms: C16_24  and  O4_25
REMARK   14  A    between atoms: C17_27  and  O5_28
REMARK   15  A    between atoms: C21_33  and  O6_34
ROOT
HETATM    1  C9  UNL     1      27.923  45.438  44.366  1.00  0.00     0.204 C
ENDROOT
BRANCH   1   2
HETATM    2  C4  UNL     1      28.144  44.427  43.286  1.00  0.00     0.353 C
BRANCH   2   3
HETATM    3  N1  UNL     1      26.959  44.191  42.493  1.00  0.00    -0.043 N
ATOM      4  H12 UNL     1      26.127  44.496  42.998  1.00  0.00     0.280 HD
ATOM      5  H11 UNL     1      26.768  43.192  42.427  1.00  0.00     0.280 HD
BRANCH   3   6
HETATM    6  C2  UNL     1      26.995  44.777  41.193  1.00  0.00     0.181 C
HETATM    7  C1  UNL     1      27.872  43.927  40.277  1.00  0.00     0.039 C
HETATM    8  C3  UNL     1      25.601  44.756  40.602  1.00  0.00     0.039 C
ENDBRANCH   3   6
ENDBRANCH   2   3
BRANCH   2   9
HETATM    9  O1  UNL     1      28.510  43.232  43.829  1.00  0.00    -0.347 OA
BRANCH   9  10
HETATM   10  C5  UNL     1      29.594  42.577  43.373  1.00  0.00     0.053 C
HETATM   11  C6  UNL     1      30.441  42.232  44.616  1.00  0.00     0.045 C
HETATM   12  C7  UNL     1      30.517  43.285  42.447  1.00  0.00     0.045 C
HETATM   13  C8  UNL     1      29.262  41.216  42.753  1.00  0.00     0.045 C
ENDBRANCH   9  10
ENDBRANCH   2   9
ENDBRANCH   1   2
BRANCH   1  14
HETATM   14  C10 UNL     1      29.011  45.491  45.381  1.00  0.00     0.273 C
BRANCH  14  15
HETATM   15  N2  UNL     1      30.071  46.401  45.271  1.00  0.00    -0.059 N
HETATM   16  C13 UNL     1      31.139  46.252  44.302  1.00  0.00     0.265 A
HETATM   17  C14 UNL     1      31.381  45.753  45.641  1.00  0.00     0.265 A
BRANCH  15  18
HETATM   18  C11 UNL     1      29.887  47.738  45.772  1.00  0.00     0.263 C
BRANCH  18  19
HETATM   19  C12 UNL     1      30.075  48.828  44.742  1.00  0.00     0.192 C
BRANCH  19  20
HETATM   20  O2  UNL     1      28.854  49.182  44.159  1.00  0.00    -0.399 OA
ATOM     21  H2  UNL     1      28.949  49.954  43.613  1.00  0.00     0.209 HD
ENDBRANCH  19  20
ENDBRANCH  18  19
ENDBRANCH  15  18
ENDBRANCH  14  15
ENDBRANCH   1  14
BRANCH   1  22
HETATM   22  O3  UNL     1      27.528  46.657  43.851  1.00  0.00    -0.370 OA
BRANCH  22  23
HETATM   23  C15 UNL     1      26.343  47.141  44.432  1.00  0.00     0.187 C
HETATM   24  C16 UNL     1      25.940  46.364  45.639  1.00  0.00     0.180 C
HETATM   25  C17 UNL     1      24.500  46.482  46.016  1.00  0.00     0.183 C
HETATM   26  C18 UNL     1      23.564  46.319  44.845  1.00  0.00     0.240 C
HETATM   27  C19 UNL     1      22.698  47.525  44.725  1.00  0.00     0.007 C
HETATM   28  N3  UNL     1      24.307  46.200  43.602  1.00  0.00    -0.056 N
HETATM   29  C20 UNL     1      23.185  48.567  44.101  1.00  0.00     0.005 C
HETATM   30  C21 UNL     1      24.549  48.639  43.499  1.00  0.00     0.174 C
HETATM   31  C22 UNL     1      25.220  47.301  43.435  1.00  0.00     0.250 C
ATOM     32  H32 UNL     1      24.785  45.302  43.536  1.00  0.00     0.278 HD
ATOM     33  H31 UNL     1      23.684  46.105  42.801  1.00  0.00     0.278 HD
BRANCH  24  34
HETATM   34  O4  UNL     1      26.676  46.812  46.759  1.00  0.00    -0.390 OA
ATOM     35  H4  UNL     1      27.163  46.087  47.130  1.00  0.00     0.210 HD
ENDBRANCH  24  34
BRANCH  25  36
HETATM   36  O5  UNL     1      24.238  47.650  46.747  1.00  0.00    -0.390 OA
ATOM     37  H5  UNL     1      23.444  48.083  46.457  1.00  0.00     0.210 HD
ENDBRANCH  25  36
BRANCH  30  38
HETATM   38  O6  UNL     1      25.250  49.610  44.162  1.00  0.00    -0.390 OA
ATOM     39  H6  UNL     1      24.959  49.615  45.066  1.00  0.00     0.210 HD
ENDBRANCH  30  38
ENDBRANCH  22  23
ENDBRANCH   1  22
TORSDOF 15
ENDMDL