MODEL 4
REMARK VINA RESULT: -9.200267205      1.168      1.675
REMARK  12 active torsions:
REMARK  status: ('A' for Active; 'I' for Inactive)
REMARK    1  A    between atoms: C1_2  and  C2_3
REMARK       I    between atoms: C1_2  and  N3_34
REMARK    2  A    between atoms: C2_3  and  N1_4
REMARK    3  A    between atoms: N1_4  and  C3_7
REMARK    4  A    between atoms: C3_7  and  C4_8
REMARK    5  A    between atoms: C3_7  and  C12_25
REMARK    6  A    between atoms: C6_13  and  S1_14
REMARK    7  A    between atoms: S1_14  and  C7_15
REMARK    8  A    between atoms: C9_17  and  O2_18
REMARK    9  A    between atoms: C11_21  and  O3_22
REMARK   10  A    between atoms: C12_25  and  O5_26
REMARK   11  A    between atoms: C12_25  and  C13_28
REMARK   12  A    between atoms: N3_34  and  C19_36
ROOT
HETATM    1  C3  UNL     1      35.392  46.928  47.250  1.00  0.00     0.271 C
ENDROOT
BRANCH   1   2
HETATM    2  N1  UNL     1      36.372  47.833  46.599  1.00  0.00    -0.056 N
ATOM      3  H12 UNL     1      36.138  48.808  46.785  1.00  0.00     0.278 HD
ATOM      4  H11 UNL     1      36.256  47.818  45.586  1.00  0.00     0.278 HD
BRANCH   2   5
HETATM    5  C2  UNL     1      37.720  47.567  46.950  1.00  0.00     0.335 C
BRANCH   5   6
HETATM    6  C1  UNL     1      38.445  47.214  45.694  1.00  0.00     0.243 C
HETATM    7  O1  UNL     1      39.569  47.711  45.527  1.00  0.00    -0.272 OA
HETATM    8  N3  UNL     1      37.885  46.353  44.735  1.00  0.00    -0.355 N
ATOM      9  H3  UNL     1      36.960  45.970  44.933  1.00  0.00     0.162 HD
BRANCH   8  10
HETATM   10  C19 UNL     1      38.506  45.971  43.504  1.00  0.00     0.084 A
HETATM   11  C20 UNL     1      37.786  45.806  42.221  1.00  0.00     0.027 A
HETATM   12  C21 UNL     1      38.619  47.053  42.465  1.00  0.00     0.027 A
ENDBRANCH   8  10
ENDBRANCH   5   6
ENDBRANCH   2   5
ENDBRANCH   1   2
BRANCH   1  13
HETATM   13  C4  UNL     1      34.026  47.536  47.101  1.00  0.00     0.355 C
HETATM   14  N2  UNL     1      32.998  46.851  47.848  1.00  0.00    -0.043 N
HETATM   15  C5  UNL     1      31.949  46.482  46.892  1.00  0.00     0.278 C
ATOM     16  H22 UNL     1      33.352  46.058  48.382  1.00  0.00     0.280 HD
ATOM     17  H21 UNL     1      32.648  47.393  48.638  1.00  0.00     0.280 HD
HETATM   18  C6  UNL     1      32.188  47.509  45.828  1.00  0.00     0.211 C
HETATM   19  O4  UNL     1      33.601  47.395  45.741  1.00  0.00    -0.340 OA
BRANCH  18  20
HETATM   20  S1  UNL     1      31.521  47.195  44.237  1.00  0.00    -0.128 SA
BRANCH  20  21
HETATM   21  C7  UNL     1      29.895  46.643  44.031  1.00  0.00     0.081 C
HETATM   22  C8  UNL     1      28.820  47.233  44.921  1.00  0.00     0.049 C
HETATM   23  C9  UNL     1      27.604  46.473  44.436  1.00  0.00     0.121 C
HETATM   24  C10 UNL     1      28.093  45.305  43.602  1.00  0.00     0.064 C
HETATM   25  C11 UNL     1      29.554  45.200  44.113  1.00  0.00     0.134 C
BRANCH  23  26
HETATM   26  O2  UNL     1      26.808  47.247  43.599  1.00  0.00    -0.395 OA
ATOM     27  H2  UNL     1      25.934  46.887  43.509  1.00  0.00     0.210 HD
ENDBRANCH  23  26
BRANCH  25  28
HETATM   28  O3  UNL     1      29.408  44.658  45.360  1.00  0.00    -0.394 OA
ATOM     29  H3  UNL     1      29.464  43.713  45.435  1.00  0.00     0.210 HD
ENDBRANCH  25  28
ENDBRANCH  20  21
ENDBRANCH  18  20
ENDBRANCH   1  13
BRANCH   1  30
HETATM   30  C12 UNL     1      35.796  46.744  48.678  1.00  0.00     0.157 C
BRANCH  30  31
HETATM   31  O5  UNL     1      35.103  45.619  49.223  1.00  0.00    -0.393 OA
ATOM     32  H5  UNL     1      34.216  45.876  49.448  1.00  0.00     0.210 HD
ENDBRANCH  30  31
BRANCH  30  33
HETATM   33  C13 UNL     1      35.385  47.871  49.580  1.00  0.00     0.016 C
HETATM   34  C14 UNL     1      36.621  48.732  49.920  1.00  0.00     0.007 C
HETATM   35  C15 UNL     1      37.166  48.390  51.277  1.00  0.00     0.000 C
HETATM   36  C16 UNL     1      36.195  48.755  52.385  1.00  0.00     0.000 C
HETATM   37  C17 UNL     1      34.796  48.658  51.819  1.00  0.00     0.000 C
HETATM   38  C18 UNL     1      34.810  47.440  50.886  1.00  0.00     0.007 C
ENDBRANCH  30  33
ENDBRANCH   1  30
TORSDOF 12
ENDMDL