MODEL 5
REMARK VINA RESULT: -7.037563328      1.462      1.805
REMARK  14 active torsions:
REMARK  status: ('A' for Active; 'I' for Inactive)
REMARK    1  A    between atoms: N1_2  and  C2_5
REMARK    2  A    between atoms: C2_5  and  C3_6
REMARK    3  A    between atoms: C3_6  and  C4_7
REMARK    4  A    between atoms: C4_7  and  O1_8
REMARK    5  A    between atoms: O1_8  and  C5_9
REMARK    6  A    between atoms: C5_9  and  C6_10
REMARK    7  A    between atoms: C6_10  and  O2_11
REMARK    8  A    between atoms: C6_10  and  C7_13
REMARK    9  A    between atoms: C7_13  and  O3_14
REMARK   10  A    between atoms: C7_13  and  C8_16
REMARK   11  A    between atoms: C8_16  and  N2_17
REMARK   12  A    between atoms: C17_26  and  O4_27
REMARK   13  A    between atoms: C22_33  and  O5_34
REMARK   14  A    between atoms: C23_36  and  O6_37
ROOT
HETATM    1  N2  UNL     1      29.217  45.679  44.492  1.00  0.00     0.123 N
HETATM    2  C9  UNL     1      28.405  44.474  44.752  1.00  0.00     0.288 C
HETATM    3  C10 UNL     1      28.963  43.434  43.880  1.00  0.00     0.019 C
HETATM    4  C11 UNL     1      30.084  42.760  44.517  1.00  0.00     0.020 C
HETATM    5  C12 UNL     1      28.016  42.433  43.293  1.00  0.00     0.020 C
HETATM    6  C13 UNL     1      28.272  42.488  41.823  1.00  0.00     0.008 C
HETATM    7  C14 UNL     1      28.199  41.250  41.050  1.00  0.00    -0.017 C
HETATM    8  C15 UNL     1      26.700  40.891  40.942  1.00  0.00     0.018 C
HETATM    9  C16 UNL     1      28.851  40.040  41.615  1.00  0.00     0.018 C
HETATM   10  C17 UNL     1      28.620  41.555  39.621  1.00  0.00     0.126 C
HETATM   11  C18 UNL     1      28.611  43.002  39.280  1.00  0.00     0.033 C
HETATM   12  C19 UNL     1      29.325  43.928  40.190  1.00  0.00     0.015 C
HETATM   13  C20 UNL     1      29.493  43.382  41.612  1.00  0.00    -0.003 C
HETATM   14  C21 UNL     1      30.804  42.683  41.614  1.00  0.00     0.019 C
HETATM   15  C22 UNL     1      29.202  44.312  42.672  1.00  0.00     0.128 C
HETATM   16  C23 UNL     1      29.923  45.397  43.211  1.00  0.00     0.393 C
ENDROOT
BRANCH   1  17
HETATM   17  C8  UNL     1      30.135  45.920  45.543  1.00  0.00     0.310 C
BRANCH  17  18
HETATM   18  C7  UNL     1      30.019  47.250  46.246  1.00  0.00     0.177 C
BRANCH  18  19
HETATM   19  C6  UNL     1      31.364  47.876  46.570  1.00  0.00     0.172 C
BRANCH  19  20
HETATM   20  C5  UNL     1      32.480  46.959  46.256  1.00  0.00     0.201 C
BRANCH  20  21
HETATM   21  O1  UNL     1      33.332  46.818  47.325  1.00  0.00    -0.388 OA
BRANCH  21  22
HETATM   22  C4  UNL     1      34.595  47.227  47.021  1.00  0.00     0.169 C
BRANCH  22  23
HETATM   23  C3  UNL     1      35.553  47.020  48.192  1.00  0.00     0.054 C
BRANCH  23  24
HETATM   24  C2  UNL     1      34.852  46.036  49.125  1.00  0.00     0.234 C
BRANCH  24  25
HETATM   25  N1  UNL     1      34.399  46.754  50.294  1.00  0.00    -0.079 N
HETATM   26  C1  UNL     1      35.314  47.791  50.672  1.00  0.00     0.266 C
ATOM     27  H12 UNL     1      34.216  46.120  51.071  1.00  0.00     0.276 HD
ATOM     28  H11 UNL     1      33.457  47.121  50.161  1.00  0.00     0.276 HD
ENDBRANCH  24  25
ENDBRANCH  23  24
ENDBRANCH  22  23
ENDBRANCH  21  22
ENDBRANCH  20  21
ENDBRANCH  19  20
BRANCH  19  29
HETATM   29  O2  UNL     1      31.473  49.131  45.929  1.00  0.00    -0.391 OA
ATOM     30  H2  UNL     1      30.983  49.819  46.364  1.00  0.00     0.210 HD
ENDBRANCH  19  29
ENDBRANCH  18  19
BRANCH  18  31
HETATM   31  O3  UNL     1      29.439  48.179  45.298  1.00  0.00    -0.391 OA
ATOM     32  H3  UNL     1      28.802  47.648  44.835  1.00  0.00     0.210 HD
ENDBRANCH  18  31
ENDBRANCH  17  18
ENDBRANCH   1  17
BRANCH  16  33
HETATM   33  O6  UNL     1      31.279  45.328  43.394  1.00  0.00    -0.365 OA
ATOM     34  H6  UNL     1      31.622  44.484  43.124  1.00  0.00     0.212 HD
ENDBRANCH  16  33
BRANCH  15  35
HETATM   35  O5  UNL     1      27.894  44.827  42.385  1.00  0.00    -0.384 OA
ATOM     36  H5  UNL     1      27.958  45.734  42.661  1.00  0.00     0.210 HD
ENDBRANCH  15  35
BRANCH  10  37
HETATM   37  O4  UNL     1      27.738  40.926  38.706  1.00  0.00    -0.395 OA
ATOM     38  H4  UNL     1      27.650  40.004  38.915  1.00  0.00     0.210 HD
ENDBRANCH  10  37
TORSDOF 14
ENDMDL