MODEL 4
REMARK VINA RESULT: -6.591874497      1.476      4.299
REMARK  15 active torsions:
REMARK  status: ('A' for Active; 'I' for Inactive)
REMARK       I    between atoms: C2_2  and  N1_4
REMARK    1  A    between atoms: N1_4  and  C3_6
REMARK    2  A    between atoms: C4_7  and  N2_8
REMARK    3  A    between atoms: C5_13  and  C6_14
REMARK    4  A    between atoms: C6_14  and  O3_15
REMARK    5  A    between atoms: C7_17  and  N3_18
REMARK    6  A    between atoms: C12_23  and  C13_24
REMARK    7  A    between atoms: C14_25  and  C15_26
REMARK    8  A    between atoms: C15_26  and  O4_27
REMARK    9  A    between atoms: C15_26  and  C16_29
REMARK   10  A    between atoms: C16_29  and  C19_32
REMARK   11  A    between atoms: C19_32  and  C20_33
REMARK   12  A    between atoms: C20_33  and  C21_34
REMARK   13  A    between atoms: C20_33  and  C22_37
REMARK   14  A    between atoms: C21_34  and  O5_35
REMARK   15  A    between atoms: C22_37  and  O6_38
ROOT
HETATM    1  C3  UNL     1      25.529  45.399  45.317  1.00  0.00     0.150 C
HETATM    2  C4  UNL     1      24.393  44.408  45.452  1.00  0.00     0.342 C
HETATM    3  O2  UNL     1      24.486  43.295  44.690  1.00  0.00    -0.348 OA
HETATM    4  C5  UNL     1      25.071  43.367  43.480  1.00  0.00     0.171 C
HETATM    5  C7  UNL     1      26.450  44.011  43.437  1.00  0.00     0.124 C
HETATM    6  C12 UNL     1      26.729  44.690  44.732  1.00  0.00     0.060 C
ENDROOT
BRANCH   6   7
HETATM    7  C13 UNL     1      27.867  45.674  44.644  1.00  0.00    -0.019 C
HETATM    8  C14 UNL     1      28.557  46.117  45.646  1.00  0.00     0.002 C
BRANCH   8   9
HETATM    9  C15 UNL     1      29.653  47.059  45.624  1.00  0.00     0.148 C
BRANCH   9  10
HETATM   10  O4  UNL     1      29.674  47.883  46.761  1.00  0.00    -0.391 OA
ATOM     11  H4  UNL     1      29.328  48.750  46.587  1.00  0.00     0.210 HD
ENDBRANCH   9  10
BRANCH   9  12
HETATM   12  C16 UNL     1      31.064  46.527  45.477  1.00  0.00    -0.018 C
HETATM   13  C17 UNL     1      31.232  45.106  45.885  1.00  0.00     0.018 C
HETATM   14  C18 UNL     1      31.461  46.814  44.031  1.00  0.00     0.018 C
BRANCH  12  15
HETATM   15  C19 UNL     1      31.906  47.370  46.391  1.00  0.00     0.020 C
BRANCH  15  16
HETATM   16  C20 UNL     1      33.316  47.048  46.595  1.00  0.00     0.034 C
BRANCH  16  17
HETATM   17  C21 UNL     1      33.550  47.094  48.137  1.00  0.00     0.170 C
BRANCH  17  18
HETATM   18  O5  UNL     1      34.307  46.025  48.548  1.00  0.00    -0.400 OA
ATOM     19  H5  UNL     1      33.763  45.256  48.675  1.00  0.00     0.209 HD
ENDBRANCH  17  18
ENDBRANCH  16  17
BRANCH  16  20
HETATM   20  C22 UNL     1      34.338  47.924  45.981  1.00  0.00     0.170 C
BRANCH  20  21
HETATM   21  O6  UNL     1      35.644  47.487  46.363  1.00  0.00    -0.400 OA
ATOM     22  H6  UNL     1      36.198  48.239  46.538  1.00  0.00     0.209 HD
ENDBRANCH  20  21
ENDBRANCH  16  20
ENDBRANCH  15  16
ENDBRANCH  12  15
ENDBRANCH   9  12
ENDBRANCH   8   9
ENDBRANCH   6   7
BRANCH   1  23
HETATM   23  N1  UNL     1      25.146  46.598  44.645  1.00  0.00    -0.352 N
HETATM   24  C2  UNL     1      24.591  47.732  45.349  1.00  0.00     0.214 C
HETATM   25  C1  UNL     1      24.191  48.982  44.653  1.00  0.00     0.117 C
HETATM   26  O1  UNL     1      24.422  47.710  46.600  1.00  0.00    -0.274 OA
ATOM     27  H1  UNL     1      25.267  46.657  43.634  1.00  0.00     0.163 HD
ENDBRANCH   1  23
BRANCH   5  28
HETATM   28  N3  UNL     1      27.476  43.104  43.078  1.00  0.00    -0.385 N
HETATM   29  C8  UNL     1      27.992  42.213  44.014  1.00  0.00     0.058 C
HETATM   30  C9  UNL     1      29.499  42.367  44.064  1.00  0.00     0.046 C
HETATM   31  C10 UNL     1      29.805  42.882  42.691  1.00  0.00     0.025 C
HETATM   32  C11 UNL     1      28.486  43.501  42.214  1.00  0.00     0.123 C
ENDBRANCH   5  28
BRANCH   2  33
HETATM   33  N2  UNL     1      23.094  45.091  45.317  1.00  0.00    -0.051 N
ATOM     34  H23 UNL     1      23.123  46.037  45.695  1.00  0.00     0.277 HD
ATOM     35  H22 UNL     1      22.886  45.321  44.346  1.00  0.00     0.277 HD
ATOM     36  H21 UNL     1      22.354  44.534  45.743  1.00  0.00     0.277 HD
ENDBRANCH   2  33
BRANCH   4  37
HETATM   37  C6  UNL     1      24.161  43.862  42.372  1.00  0.00     0.198 C
BRANCH  37  38
HETATM   38  O3  UNL     1      24.547  45.155  41.963  1.00  0.00    -0.398 OA
ATOM     39  H3  UNL     1      23.831  45.584  41.508  1.00  0.00     0.209 HD
ENDBRANCH  37  38
ENDBRANCH   4  37
TORSDOF 15
ENDMDL