MODEL 5
REMARK VINA RESULT: -9.447335125      2.063      3.098
REMARK  14 active torsions:
REMARK  status: ('A' for Active; 'I' for Inactive)
REMARK    1  A    between atoms: C2_2  and  C3_3
REMARK    2  A    between atoms: C3_3  and  O1_4
REMARK    3  A    between atoms: C5_7  and  C6_8
REMARK    4  A    between atoms: C6_8  and  C7_9
REMARK    5  A    between atoms: C7_9  and  C8_10
REMARK    6  A    between atoms: C8_10  and  C9_11
REMARK    7  A    between atoms: C9_11  and  C10_12
REMARK    8  A    between atoms: C10_12  and  O3_14
REMARK    9  A    between atoms: O3_14  and  C11_15
REMARK   10  A    between atoms: C12_17  and  C13_18
REMARK   11  A    between atoms: C13_18  and  O5_19
REMARK   12  A    between atoms: C14_21  and  O6_22
REMARK   13  A    between atoms: C15_24  and  O7_25
REMARK   14  A    between atoms: C16_27  and  O8_28
ROOT
HETATM    1  C9  UNL     1      31.074  48.395  45.824  1.00  0.00     0.111 C
ENDROOT
BRANCH   1   2
HETATM    2  C8  UNL     1      32.292  47.541  45.832  1.00  0.00     0.010 C
BRANCH   2   3
HETATM    3  C7  UNL     1      32.616  47.078  47.222  1.00  0.00     0.001 C
BRANCH   3   4
HETATM    4  C6  UNL     1      34.020  46.614  47.302  1.00  0.00     0.005 C
BRANCH   4   5
HETATM    5  C5  UNL     1      35.064  47.698  47.190  1.00  0.00    -0.004 C
HETATM    6  C4  UNL     1      35.513  47.935  45.772  1.00  0.00     0.021 C
HETATM    7  C2  UNL     1      37.040  48.103  45.815  1.00  0.00     0.001 C
HETATM    8  C1  UNL     1      37.740  46.836  45.446  1.00  0.00     0.022 C
HETATM    9  C18 UNL     1      37.275  48.332  47.293  1.00  0.00    -0.068 C
HETATM   10  C17 UNL     1      36.315  47.353  47.916  1.00  0.00     0.028 C
HETATM   11  C19 UNL     1      37.896  48.938  48.264  1.00  0.00    -0.017 C
HETATM   12  C22 UNL     1      36.315  47.583  49.386  1.00  0.00    -0.029 A
HETATM   13  C20 UNL     1      37.474  48.525  49.604  1.00  0.00     0.018 A
HETATM   14  C21 UNL     1      37.549  47.135  50.092  1.00  0.00     0.019 A
HETATM   15  C23 UNL     1      35.073  47.919  50.149  1.00  0.00     0.016 C
BRANCH   7  16
HETATM   16  C3  UNL     1      37.464  49.304  45.022  1.00  0.00     0.177 C
BRANCH  16  17
HETATM   17  O1  UNL     1      38.155  48.862  43.909  1.00  0.00    -0.400 OA
ATOM     18  H1  UNL     1      37.615  49.022  43.144  1.00  0.00     0.209 HD
ENDBRANCH  16  17
ENDBRANCH   7  16
ENDBRANCH   4   5
ENDBRANCH   3   4
ENDBRANCH   2   3
ENDBRANCH   1   2
BRANCH   1  19
HETATM   19  C10 UNL     1      29.862  47.517  45.667  1.00  0.00     0.261 C
HETATM   20  O2  UNL     1      29.224  47.246  46.713  1.00  0.00    -0.265 OA
BRANCH  19  21
HETATM   21  O3  UNL     1      29.456  47.023  44.442  1.00  0.00    -0.287 OA
BRANCH  21  22
HETATM   22  C11 UNL     1      29.181  45.668  44.309  1.00  0.00     0.301 C
HETATM   23  O4  UNL     1      28.525  45.351  43.124  1.00  0.00    -0.348 OA
HETATM   24  C12 UNL     1      27.966  44.084  43.257  1.00  0.00     0.179 C
HETATM   25  C14 UNL     1      28.719  43.186  44.168  1.00  0.00     0.180 C
HETATM   26  C15 UNL     1      30.190  43.461  44.245  1.00  0.00     0.183 C
HETATM   27  C16 UNL     1      30.528  44.936  44.245  1.00  0.00     0.205 C
BRANCH  24  28
HETATM   28  C13 UNL     1      27.775  43.513  41.870  1.00  0.00     0.198 C
BRANCH  28  29
HETATM   29  O5  UNL     1      28.918  43.501  41.116  1.00  0.00    -0.398 OA
ATOM     30  H5  UNL     1      28.788  43.185  40.230  1.00  0.00     0.209 HD
ENDBRANCH  28  29
ENDBRANCH  24  28
BRANCH  25  31
HETATM   31  O6  UNL     1      28.564  41.849  43.777  1.00  0.00    -0.390 OA
ATOM     32  H6  UNL     1      29.378  41.373  43.891  1.00  0.00     0.210 HD
ENDBRANCH  25  31
BRANCH  26  33
HETATM   33  O7  UNL     1      30.919  42.762  43.281  1.00  0.00    -0.390 OA
ATOM     34  H7  UNL     1      31.696  43.230  42.999  1.00  0.00     0.210 HD
ENDBRANCH  26  33
BRANCH  27  35
HETATM   35  O8  UNL     1      31.106  45.232  43.026  1.00  0.00    -0.388 OA
ATOM     36  H8  UNL     1      30.845  44.556  42.412  1.00  0.00     0.210 HD
ENDBRANCH  27  35
ENDBRANCH  21  22
ENDBRANCH  19  21
ENDBRANCH   1  19
TORSDOF 14
ENDMDL