MODEL 4
REMARK VINA RESULT: -7.824403863      3.317      4.616
REMARK  14 active torsions:
REMARK  status: ('A' for Active; 'I' for Inactive)
REMARK    1  A    between atoms: C2_2  and  N1_5
REMARK    2  A    between atoms: C5_6  and  C6_7
REMARK    3  A    between atoms: C6_7  and  S1_8
REMARK    4  A    between atoms: S1_8  and  N2_11
REMARK    5  A    between atoms: N2_11  and  C7_13
REMARK    6  A    between atoms: C10_16  and  N3_17
REMARK    7  A    between atoms: N3_17  and  C11_19
REMARK    8  A    between atoms: C11_19  and  C12_20
REMARK    9  A    between atoms: C12_20  and  O3_21
REMARK   10  A    between atoms: C12_20  and  C13_23
REMARK   11  A    between atoms: C13_23  and  O4_24
REMARK   12  A    between atoms: C17_29  and  O5_30
REMARK   13  A    between atoms: C18_32  and  C19_33
REMARK   14  A    between atoms: C19_33  and  O6_34
ROOT
HETATM    1  S1  UNL     1      30.581  47.924  45.510  1.00  0.00     0.228 S
HETATM    2  O1  UNL     1      29.758  47.714  46.785  1.00  0.00    -0.206 OA
HETATM    3  O2  UNL     1      29.887  49.159  44.889  1.00  0.00    -0.206 OA
ENDROOT
BRANCH   1   4
HETATM    4  C6  UNL     1      30.368  46.549  44.439  1.00  0.00     0.188 C
BRANCH   4   5
HETATM    5  C5  UNL     1      29.073  45.869  44.627  1.00  0.00     0.098 C
HETATM    6  N1  UNL     1      28.772  44.692  43.938  1.00  0.00    -0.391 N
HETATM    7  C18 UNL     1      27.383  44.531  43.813  1.00  0.00     0.132 C
HETATM    8  C17 UNL     1      26.756  45.803  44.398  1.00  0.00     0.144 C
HETATM    9  C16 UNL     1      27.936  46.800  44.298  1.00  0.00     0.059 C
BRANCH   6  10
HETATM   10  C2  UNL     1      29.604  43.580  43.892  1.00  0.00     0.018 C
HETATM   11  C1  UNL     1      30.522  43.601  42.693  1.00  0.00     0.037 C
HETATM   12  C3  UNL     1      30.556  43.484  45.097  1.00  0.00     0.037 C
HETATM   13  C4  UNL     1      28.897  42.240  43.878  1.00  0.00     0.037 C
ENDBRANCH   6  10
BRANCH   7  14
HETATM   14  C19 UNL     1      26.863  44.453  42.394  1.00  0.00     0.191 C
BRANCH  14  15
HETATM   15  O6  UNL     1      25.611  45.050  42.267  1.00  0.00    -0.399 OA
ATOM     16  H6  UNL     1      25.595  45.923  42.641  1.00  0.00     0.209 HD
ENDBRANCH  14  15
ENDBRANCH   7  14
BRANCH   8  17
HETATM   17  O5  UNL     1      26.436  45.664  45.730  1.00  0.00    -0.393 OA
ATOM     18  H5  UNL     1      26.349  44.735  45.911  1.00  0.00     0.210 HD
ENDBRANCH   8  17
ENDBRANCH   4   5
ENDBRANCH   1   4
BRANCH   1  19
HETATM   19  N2  UNL     1      32.152  48.369  45.824  1.00  0.00    -0.315 N
ATOM     20  H2  UNL     1      32.438  49.347  45.771  1.00  0.00     0.172 HD
BRANCH  19  21
HETATM   21  C7  UNL     1      33.099  47.344  46.173  1.00  0.00     0.093 C
HETATM   22  C8  UNL     1      33.327  47.427  47.719  1.00  0.00     0.028 C
HETATM   23  C9  UNL     1      34.454  46.468  48.015  1.00  0.00     0.027 C
HETATM   24  C10 UNL     1      35.732  47.197  47.580  1.00  0.00     0.076 C
HETATM   25  C14 UNL     1      35.464  48.016  46.364  1.00  0.00     0.027 C
HETATM   26  C15 UNL     1      34.394  47.343  45.496  1.00  0.00     0.028 C
BRANCH  24  27
HETATM   27  N3  UNL     1      36.178  47.968  48.673  1.00  0.00    -0.415 N
ATOM     28  H3  UNL     1      36.588  48.892  48.534  1.00  0.00     0.153 HD
BRANCH  27  29
HETATM   29  C11 UNL     1      36.037  47.415  49.978  1.00  0.00     0.147 C
BRANCH  29  30
HETATM   30  C12 UNL     1      35.957  48.613  50.954  1.00  0.00     0.159 C
BRANCH  30  31
HETATM   31  O3  UNL     1      37.153  48.669  51.653  1.00  0.00    -0.392 OA
ATOM     32  H3  UNL     1      37.110  48.028  52.353  1.00  0.00     0.210 HD
ENDBRANCH  30  31
BRANCH  30  33
HETATM   33  C13 UNL     1      34.798  48.335  51.905  1.00  0.00     0.197 C
BRANCH  33  34
HETATM   34  O4  UNL     1      34.008  47.303  51.441  1.00  0.00    -0.398 OA
ATOM     35  H4  UNL     1      33.184  47.262  51.912  1.00  0.00     0.209 HD
ENDBRANCH  33  34
ENDBRANCH  30  33
ENDBRANCH  29  30
ENDBRANCH  27  29
ENDBRANCH  24  27
ENDBRANCH  19  21
ENDBRANCH   1  19
TORSDOF 14
ENDMDL