MODEL 2
REMARK VINA RESULT: -9.014320436      1.532      2.426
REMARK  12 active torsions:
REMARK  status: ('A' for Active; 'I' for Inactive)
REMARK    1  A    between atoms: C2_2  and  N1_4
REMARK    2  A    between atoms: N1_4  and  C4_5
REMARK    3  A    between atoms: N1_4  and  C6_9
REMARK    4  A    between atoms: C4_5  and  C5_6
REMARK    5  A    between atoms: C6_9  and  C7_10
REMARK    6  A    between atoms: C12_15  and  O2_16
REMARK    7  A    between atoms: O2_16  and  C13_17
REMARK    8  A    between atoms: C15_19  and  O3_20
REMARK    9  A    between atoms: O3_20  and  C16_21
REMARK   10  A    between atoms: C20_28  and  O4_29
REMARK   11  A    between atoms: C21_31  and  O5_32
REMARK   12  A    between atoms: C22_34  and  O6_35
ROOT
HETATM    1  C13 UNL     1      32.086  47.306  45.074  1.00  0.00     0.156 C
HETATM    2  C14 UNL     1      31.386  45.973  45.297  1.00  0.00     0.069 C
HETATM    3  C15 UNL     1      30.052  46.077  44.599  1.00  0.00     0.155 C
HETATM    4  C20 UNL     1      29.335  47.356  44.759  1.00  0.00     0.178 C
HETATM    5  C21 UNL     1      30.023  48.508  45.354  1.00  0.00     0.180 C
HETATM    6  C22 UNL     1      31.358  48.234  45.998  1.00  0.00     0.178 C
ENDROOT
BRANCH   1   7
HETATM    7  O2  UNL     1      33.450  47.283  45.210  1.00  0.00    -0.373 OA
BRANCH   7   8
HETATM    8  C12 UNL     1      33.864  47.479  46.511  1.00  0.00     0.152 C
HETATM    9  C7  UNL     1      35.320  47.711  46.709  1.00  0.00    -0.036 C
HETATM   10  C8  UNL     1      35.983  47.024  47.832  1.00  0.00     0.038 C
HETATM   11  C9  UNL     1      35.202  46.387  48.910  1.00  0.00     0.004 C
HETATM   12  C10 UNL     1      33.748  46.734  48.824  1.00  0.00     0.003 C
HETATM   13  C11 UNL     1      33.353  46.333  47.387  1.00  0.00     0.036 C
BRANCH   9  14
HETATM   14  C6  UNL     1      36.132  47.652  45.471  1.00  0.00     0.096 C
BRANCH  14  15
HETATM   15  N1  UNL     1      37.508  47.901  45.454  1.00  0.00    -0.357 N
BRANCH  15  16
HETATM   16  C2  UNL     1      38.102  49.117  45.685  1.00  0.00     0.080 C
HETATM   17  C1  UNL     1      37.183  50.305  45.226  1.00  0.00     0.032 C
HETATM   18  C3  UNL     1      38.328  49.451  47.150  1.00  0.00     0.032 C
ENDBRANCH  15  16
BRANCH  15  19
HETATM   19  C4  UNL     1      38.222  46.687  45.519  1.00  0.00     0.161 C
BRANCH  19  20
HETATM   20  C5  UNL     1      38.946  46.148  44.396  1.00  0.00     0.270 C
HETATM   21  N2  UNL     1      40.331  46.108  44.186  1.00  0.00    -0.057 NA
HETATM   22  O1  UNL     1      38.261  45.630  43.423  1.00  0.00    -0.270 OA
ENDBRANCH  19  20
ENDBRANCH  15  19
ENDBRANCH  14  15
ENDBRANCH   9  14
ENDBRANCH   7   8
ENDBRANCH   1   7
BRANCH   6  23
HETATM   23  O6  UNL     1      31.994  49.390  46.329  1.00  0.00    -0.390 OA
ATOM     24  H6  UNL     1      31.553  49.956  46.951  1.00  0.00     0.210 HD
ENDBRANCH   6  23
BRANCH   3  25
HETATM   25  O3  UNL     1      29.195  45.042  44.909  1.00  0.00    -0.376 OA
BRANCH  25  26
HETATM   26  C16 UNL     1      29.023  44.116  43.907  1.00  0.00     0.149 C
HETATM   27  C17 UNL     1      27.917  43.116  44.239  1.00  0.00     0.061 C
HETATM   28  C18 UNL     1      26.699  43.972  44.077  1.00  0.00     0.235 C
HETATM   29  N3  UNL     1      27.033  45.074  43.198  1.00  0.00    -0.073 N
HETATM   30  C19 UNL     1      28.392  44.833  42.725  1.00  0.00     0.264 C
ATOM     31  H32 UNL     1      26.361  45.205  42.442  1.00  0.00     0.277 HD
ATOM     32  H31 UNL     1      26.914  45.988  43.635  1.00  0.00     0.277 HD
ENDBRANCH  25  26
ENDBRANCH   3  25
BRANCH   5  33
HETATM   33  O5  UNL     1      30.230  49.523  44.391  1.00  0.00    -0.390 OA
ATOM     34  H5  UNL     1      29.590  50.218  44.489  1.00  0.00     0.210 HD
ENDBRANCH   5  33
BRANCH   4  35
HETATM   35  O4  UNL     1      28.146  47.142  45.509  1.00  0.00    -0.390 OA
ATOM     36  H4  UNL     1      28.373  46.930  46.407  1.00  0.00     0.210 HD
ENDBRANCH   4  35
TORSDOF 12
ENDMDL