MODEL 1
REMARK VINA RESULT: -8.376980905      0.000      0.000
REMARK  14 active torsions:
REMARK  status: ('A' for Active; 'I' for Inactive)
REMARK    1  A    between atoms: C2_2  and  C3_3
REMARK    2  A    between atoms: C3_3  and  C4_4
REMARK    3  A    between atoms: C4_4  and  C5_5
REMARK    4  A    between atoms: C5_5  and  C6_6
REMARK    5  A    between atoms: C6_6  and  C15_26
REMARK    6  A    between atoms: C7_7  and  C8_8
REMARK    7  A    between atoms: C8_8  and  N1_9
REMARK    8  A    between atoms: C10_11  and  N2_12
REMARK    9  A    between atoms: C11_16  and  O1_17
REMARK   10  A    between atoms: C12_19  and  O2_20
REMARK   11  A    between atoms: C13_22  and  C14_23
REMARK   12  A    between atoms: C20_31  and  O4_32
REMARK   13  A    between atoms: C21_34  and  C22_35
REMARK   14  A    between atoms: C22_35  and  O5_36
ROOT
HETATM    1  C6  UNL     1      34.433  47.530  47.023  1.00  0.00    -0.053 C
HETATM    2  C7  UNL     1      33.653  48.372  46.499  1.00  0.00    -0.002 C
ENDROOT
BRANCH   1   3
HETATM    3  C5  UNL     1      34.167  46.483  48.011  1.00  0.00     0.036 C
BRANCH   3   4
HETATM    4  C4  UNL     1      35.126  46.174  49.076  1.00  0.00     0.004 C
BRANCH   4   5
HETATM    5  C3  UNL     1      34.528  46.848  50.353  1.00  0.00    -0.000 C
BRANCH   5   6
HETATM    6  C2  UNL     1      35.206  48.157  50.598  1.00  0.00    -0.005 C
HETATM    7  C1  UNL     1      36.696  47.929  50.332  1.00  0.00     0.005 C
ENDBRANCH   5   6
ENDBRANCH   4   5
ENDBRANCH   3   4
ENDBRANCH   1   3
BRANCH   1   8
HETATM    8  C15 UNL     1      35.911  47.557  46.598  1.00  0.00     0.151 C
HETATM    9  C16 UNL     1      36.118  47.254  45.176  1.00  0.00     0.048 C
HETATM   10  C17 UNL     1      37.613  47.319  44.882  1.00  0.00    -0.017 C
HETATM   11  C18 UNL     1      37.731  47.315  43.354  1.00  0.00     0.018 C
HETATM   12  C19 UNL     1      38.368  46.143  45.406  1.00  0.00     0.018 C
HETATM   13  C20 UNL     1      38.237  48.583  45.422  1.00  0.00     0.157 C
HETATM   14  C21 UNL     1      37.847  48.697  46.881  1.00  0.00     0.175 C
HETATM   15  O6  UNL     1      36.447  48.783  46.914  1.00  0.00    -0.371 OA
BRANCH  13  16
HETATM   16  O4  UNL     1      37.724  49.715  44.773  1.00  0.00    -0.392 OA
ATOM     17  H4  UNL     1      38.167  50.504  45.063  1.00  0.00     0.210 HD
ENDBRANCH  13  16
BRANCH  14  18
HETATM   18  C22 UNL     1      38.379  49.961  47.513  1.00  0.00     0.198 C
BRANCH  18  19
HETATM   19  O5  UNL     1      39.468  50.391  46.783  1.00  0.00    -0.398 OA
ATOM     20  H5  UNL     1      39.153  50.835  46.004  1.00  0.00     0.209 HD
ENDBRANCH  18  19
ENDBRANCH  14  18
ENDBRANCH   1   8
BRANCH   2  21
HETATM   21  C8  UNL     1      32.230  48.706  46.593  1.00  0.00     0.145 C
BRANCH  21  22
HETATM   22  N1  UNL     1      31.445  47.887  45.714  1.00  0.00    -0.393 N
HETATM   23  C9  UNL     1      32.105  47.113  44.761  1.00  0.00     0.153 C
HETATM   24  C10 UNL     1      31.343  45.793  44.588  1.00  0.00     0.232 C
HETATM   25  C11 UNL     1      30.292  45.658  45.660  1.00  0.00     0.181 C
HETATM   26  C12 UNL     1      29.325  46.812  45.684  1.00  0.00     0.180 C
HETATM   27  C13 UNL     1      30.081  48.139  45.607  1.00  0.00     0.201 C
BRANCH  24  28
HETATM   28  N2  UNL     1      30.830  45.635  43.261  1.00  0.00    -0.071 N
ATOM     29  H23 UNL     1      30.016  46.230  43.107  1.00  0.00     0.274 HD
ATOM     30  H22 UNL     1      31.461  46.041  42.570  1.00  0.00     0.274 HD
ATOM     31  H21 UNL     1      30.621  44.661  43.042  1.00  0.00     0.274 HD
ENDBRANCH  24  28
BRANCH  25  32
HETATM   32  O1  UNL     1      29.629  44.469  45.482  1.00  0.00    -0.391 OA
ATOM     33  H1  UNL     1      29.844  43.888  46.203  1.00  0.00     0.210 HD
ENDBRANCH  25  32
BRANCH  26  34
HETATM   34  O2  UNL     1      28.673  46.783  46.918  1.00  0.00    -0.390 OA
ATOM     35  H2  UNL     1      28.589  47.682  47.216  1.00  0.00     0.210 HD
ENDBRANCH  26  34
BRANCH  27  36
HETATM   36  C14 UNL     1      29.627  48.813  44.366  1.00  0.00     0.256 C
HETATM   37  N3  UNL     1      28.288  48.557  43.955  1.00  0.00    -0.060 NA
HETATM   38  O3  UNL     1      30.309  49.573  43.667  1.00  0.00    -0.274 OA
ENDBRANCH  27  36
ENDBRANCH  21  22
ENDBRANCH   2  21
TORSDOF 14
ENDMDL