MODEL 1
REMARK VINA RESULT: -8.769335122      0.000      0.000
REMARK  13 active torsions:
REMARK  status: ('A' for Active; 'I' for Inactive)
REMARK    1  A    between atoms: C1_2  and  C2_3
REMARK       I    between atoms: C1_2  and  N1_25
REMARK    2  A    between atoms: C2_3  and  C3_4
REMARK    3  A    between atoms: C3_4  and  C4_5
REMARK    4  A    between atoms: C5_6  and  O2_7
REMARK    5  A    between atoms: C7_10  and  O3_11
REMARK    6  A    between atoms: C8_13  and  C9_14
REMARK    7  A    between atoms: C10_15  and  C11_16
REMARK    8  A    between atoms: C11_16  and  O4_17
REMARK    9  A    between atoms: C11_16  and  C12_19
REMARK   10  A    between atoms: N1_25  and  C17_27
REMARK   11  A    between atoms: C17_27  and  C18_28
REMARK   12  A    between atoms: C18_28  and  N2_29
REMARK   13  A    between atoms: C22_33  and  O6_34
ROOT
HETATM    1  C4  UNL     1      30.965  45.447  45.115  1.00  0.00     0.025 C
HETATM    2  C5  UNL     1      30.513  46.351  44.028  1.00  0.00     0.125 C
HETATM    3  C6  UNL     1      29.789  47.516  44.610  1.00  0.00     0.064 C
HETATM    4  C7  UNL     1      30.215  47.548  46.037  1.00  0.00     0.128 C
HETATM    5  C8  UNL     1      31.127  46.372  46.292  1.00  0.00     0.043 C
ENDROOT
BRANCH   1   6
HETATM    6  C3  UNL     1      30.103  44.270  45.381  1.00  0.00     0.017 C
BRANCH   6   7
HETATM    7  C2  UNL     1      30.577  42.980  44.844  1.00  0.00     0.103 C
BRANCH   7   8
HETATM    8  C1  UNL     1      29.489  42.369  44.004  1.00  0.00     0.217 C
HETATM    9  O1  UNL     1      29.627  41.161  43.694  1.00  0.00    -0.274 OA
HETATM   10  N1  UNL     1      28.373  43.142  43.598  1.00  0.00    -0.359 N
ATOM     11  H1  UNL     1      28.303  44.120  43.879  1.00  0.00     0.162 HD
BRANCH  10  12
HETATM   12  C17 UNL     1      27.341  42.553  42.792  1.00  0.00     0.152 C
BRANCH  12  13
HETATM   13  C18 UNL     1      26.068  43.313  42.895  1.00  0.00     0.292 C
BRANCH  13  14
HETATM   14  N2  UNL     1      26.307  44.400  43.862  1.00  0.00     0.092 N
HETATM   15  C19 UNL     1      25.958  45.632  43.169  1.00  0.00     0.272 C
HETATM   16  C20 UNL     1      26.280  46.848  44.010  1.00  0.00     0.033 C
HETATM   17  C21 UNL     1      26.260  46.479  45.496  1.00  0.00     0.035 C
HETATM   18  C22 UNL     1      25.149  45.486  45.693  1.00  0.00     0.146 C
HETATM   19  C23 UNL     1      25.517  44.191  45.035  1.00  0.00     0.303 C
BRANCH  18  20
HETATM   20  O6  UNL     1      24.938  45.271  47.060  1.00  0.00    -0.394 OA
ATOM     21  H6  UNL     1      24.470  44.454  47.191  1.00  0.00     0.210 HD
ENDBRANCH  18  20
ENDBRANCH  13  14
ENDBRANCH  12  13
ENDBRANCH  10  12
ENDBRANCH   7   8
ENDBRANCH   6   7
ENDBRANCH   1   6
BRANCH   2  22
HETATM   22  O2  UNL     1      29.791  45.701  43.029  1.00  0.00    -0.395 OA
ATOM     23  H2  UNL     1      30.069  44.804  42.884  1.00  0.00     0.210 HD
ENDBRANCH   2  22
BRANCH   5  24
HETATM   24  C9  UNL     1      32.527  46.875  46.327  1.00  0.00    -0.021 C
HETATM   25  C10 UNL     1      33.405  46.536  47.239  1.00  0.00     0.003 C
BRANCH  25  26
HETATM   26  C11 UNL     1      34.802  47.038  47.274  1.00  0.00     0.169 C
BRANCH  26  27
HETATM   27  O4  UNL     1      34.886  48.109  46.392  1.00  0.00    -0.389 OA
ATOM     28  H4  UNL     1      35.793  48.389  46.366  1.00  0.00     0.210 HD
ENDBRANCH  26  27
BRANCH  26  29
HETATM   29  C12 UNL     1      35.204  47.531  48.633  1.00  0.00     0.153 C
HETATM   30  C13 UNL     1      36.666  47.928  48.700  1.00  0.00     0.035 C
HETATM   31  C14 UNL     1      37.025  48.021  50.189  1.00  0.00     0.005 C
HETATM   32  C15 UNL     1      35.755  48.430  50.929  1.00  0.00     0.026 C
HETATM   33  C16 UNL     1      34.736  47.332  50.820  1.00  0.00     0.168 C
HETATM   34  O5  UNL     1      34.908  46.615  49.641  1.00  0.00    -0.383 OA
ENDBRANCH  26  29
ENDBRANCH  25  26
ENDBRANCH   5  24
BRANCH   4  35
HETATM   35  O3  UNL     1      30.873  48.753  46.278  1.00  0.00    -0.395 OA
ATOM     36  H3  UNL     1      31.459  48.637  47.016  1.00  0.00     0.210 HD
ENDBRANCH   4  35
TORSDOF 13
ENDMDL