MODEL 5
REMARK VINA RESULT: -8.563047449      5.324      8.387
REMARK  12 active torsions:
REMARK  status: ('A' for Active; 'I' for Inactive)
REMARK    1  A    between atoms: C2_2  and  C4_4
REMARK    2  A    between atoms: C5_5  and  O1_6
REMARK    3  A    between atoms: C7_9  and  O2_10
REMARK    4  A    between atoms: O2_10  and  C8_11
REMARK    5  A    between atoms: C11_14  and  N1_15
REMARK    6  A    between atoms: C13_21  and  O4_22
REMARK    7  A    between atoms: O4_22  and  C14_23
REMARK    8  A    between atoms: C14_23  and  C15_24
REMARK    9  A    between atoms: C14_23  and  C16_30
REMARK   10  A    between atoms: C15_24  and  O5_25
REMARK   11  A    between atoms: O5_25  and  S1_26
REMARK   12  A    between atoms: C16_30  and  O9_32
ROOT
HETATM    1  C4  UNL     1      19.290 -41.143   5.374  1.00  0.00     0.052 C
HETATM    2  C5  UNL     1      17.836 -41.406   4.970  1.00  0.00     0.152 C
HETATM    3  C6  UNL     1      17.416 -40.201   4.199  1.00  0.00     0.040 C
HETATM    4  C7  UNL     1      18.033 -39.049   4.194  1.00  0.00     0.077 C
HETATM    5  C13 UNL     1      19.299 -38.774   4.994  1.00  0.00     0.183 C
HETATM    6  C18 UNL     1      19.239 -39.828   6.095  1.00  0.00     0.028 C
HETATM    7  C19 UNL     1      20.181 -39.625   7.210  1.00  0.00     0.014 C
ENDROOT
BRANCH   5   8
HETATM    8  O4  UNL     1      20.358 -39.076   4.180  1.00  0.00    -0.369 OA
BRANCH   8   9
HETATM    9  C14 UNL     1      21.069 -37.998   3.671  1.00  0.00     0.176 C
BRANCH   9  10
HETATM   10  C15 UNL     1      21.005 -36.782   4.523  1.00  0.00     0.227 C
BRANCH  10  11
HETATM   11  O5  UNL     1      22.158 -36.642   5.259  1.00  0.00    -0.254 OA
BRANCH  11  12
HETATM   12  S1  UNL     1      22.841 -35.124   5.129  1.00  0.00     0.251 S
HETATM   13  O6  UNL     1      21.814 -34.072   5.400  1.00  0.00    -0.572 OA
HETATM   14  O7  UNL     1      23.513 -34.924   3.805  1.00  0.00    -0.572 OA
HETATM   15  O8  UNL     1      24.002 -34.994   6.363  1.00  0.00    -0.572 OA
ENDBRANCH  11  12
ENDBRANCH  10  11
ENDBRANCH   9  10
BRANCH   9  16
HETATM   16  C16 UNL     1      22.516 -38.415   3.370  1.00  0.00     0.145 C
HETATM   17  C17 UNL     1      22.923 -39.658   4.115  1.00  0.00     0.042 C
BRANCH  16  18
HETATM   18  O9  UNL     1      22.754 -38.593   2.031  1.00  0.00    -0.393 OA
ATOM     19  H9  UNL     1      22.425 -39.421   1.703  1.00  0.00     0.210 HD
ENDBRANCH  16  18
ENDBRANCH   9  16
ENDBRANCH   8   9
ENDBRANCH   5   8
BRANCH   4  20
HETATM   20  O2  UNL     1      17.538 -38.022   3.438  1.00  0.00    -0.322 OA
BRANCH  20  21
HETATM   21  C8  UNL     1      16.203 -37.595   3.366  1.00  0.00     0.266 C
HETATM   22  C9  UNL     1      16.226 -36.081   3.354  1.00  0.00     0.063 C
HETATM   23  C10 UNL     1      14.945 -35.453   2.920  1.00  0.00     0.040 C
HETATM   24  C11 UNL     1      14.229 -36.212   1.830  1.00  0.00     0.207 C
HETATM   25  C12 UNL     1      14.232 -37.670   2.244  1.00  0.00     0.203 C
HETATM   26  O3  UNL     1      15.523 -38.138   2.302  1.00  0.00    -0.359 OA
BRANCH  24  27
HETATM   27  N1  UNL     1      14.831 -36.025   0.528  1.00  0.00    -0.073 N
ATOM     28  H13 UNL     1      14.170 -36.252  -0.216  1.00  0.00     0.274 HD
ATOM     29  H12 UNL     1      14.971 -35.034   0.329  1.00  0.00     0.274 HD
ATOM     30  H11 UNL     1      15.701 -36.546   0.415  1.00  0.00     0.274 HD
ENDBRANCH  24  27
ENDBRANCH  20  21
ENDBRANCH   4  20
BRANCH   1  31
HETATM   31  C2  UNL     1      19.946 -42.258   6.032  1.00  0.00    -0.086 C
HETATM   32  C1  UNL     1      19.405 -43.047   6.935  1.00  0.00     0.014 C
HETATM   33  C3  UNL     1      21.367 -42.582   5.635  1.00  0.00     0.043 C
ENDBRANCH   1  31
BRANCH   2  34
HETATM   34  O1  UNL     1      17.012 -41.545   6.080  1.00  0.00    -0.391 OA
ATOM     35  H1  UNL     1      16.768 -40.702   6.444  1.00  0.00     0.210 HD
ENDBRANCH   2  34
TORSDOF 12
ENDMDL