MODEL 1
REMARK VINA RESULT: -8.779559525      0.000      0.000
REMARK  14 active torsions:
REMARK  status: ('A' for Active; 'I' for Inactive)
REMARK    1  A    between atoms: O1_2  and  C2_3
REMARK    2  A    between atoms: C3_5  and  C4_6
REMARK    3  A    between atoms: C4_6  and  O3_7
REMARK    4  A    between atoms: C5_9  and  O4_10
REMARK    5  A    between atoms: C6_12  and  S1_13
REMARK    6  A    between atoms: S1_13  and  C7_14
REMARK    7  A    between atoms: C9_17  and  O6_18
REMARK    8  A    between atoms: C10_20  and  N1_21
REMARK    9  A    between atoms: N1_21  and  C11_24
REMARK   10  A    between atoms: C11_24  and  C12_25
REMARK   11  A    between atoms: C12_25  and  C13_26
REMARK   12  A    between atoms: C13_26  and  C14_27
REMARK   13  A    between atoms: C14_27  and  C15_28
REMARK   14  A    between atoms: C18_33  and  O7_34
ROOT
HETATM    1  C15 UNL     1       8.919 -38.357   4.519  1.00  0.00     0.089 C
HETATM    2  C16 UNL     1       7.575 -37.787   4.932  1.00  0.00     0.025 C
HETATM    3  C17 UNL     1       9.708 -38.530   5.746  1.00  0.00     0.063 C
HETATM    4  N2  UNL     1      10.319 -38.658   6.729  1.00  0.00    -0.197 NA
ENDROOT
BRANCH   1   5
HETATM    5  C14 UNL     1       9.676 -37.401   3.633  1.00  0.00     0.019 C
BRANCH   5   6
HETATM    6  C13 UNL     1       9.744 -36.007   4.201  1.00  0.00     0.003 C
BRANCH   6   7
HETATM    7  C12 UNL     1      10.213 -34.989   3.217  1.00  0.00     0.027 C
BRANCH   7   8
HETATM    8  C11 UNL     1      11.701 -35.257   2.952  1.00  0.00     0.233 C
BRANCH   8   9
HETATM    9  N1  UNL     1      11.926 -35.659   1.598  1.00  0.00    -0.059 N
ATOM     10  H12 UNL     1      11.757 -34.895   0.945  1.00  0.00     0.278 HD
ATOM     11  H11 UNL     1      11.205 -36.303   1.272  1.00  0.00     0.278 HD
BRANCH   9  12
HETATM   12  C10 UNL     1      13.231 -36.207   1.441  1.00  0.00     0.280 C
HETATM   13  C9  UNL     1      13.281 -37.715   1.337  1.00  0.00     0.182 C
HETATM   14  C8  UNL     1      14.779 -38.044   1.270  1.00  0.00     0.205 C
HETATM   15  O5  UNL     1      15.344 -38.265   2.494  1.00  0.00    -0.363 OA
HETATM   16  C7  UNL     1      15.229 -37.270   3.424  1.00  0.00     0.247 C
HETATM   17  S2  UNL     1      14.354 -35.791   2.828  1.00  0.00    -0.091 SA
BRANCH  13  18
HETATM   18  O6  UNL     1      12.638 -38.193   0.216  1.00  0.00    -0.391 OA
ATOM     19  H6  UNL     1      12.500 -37.491  -0.409  1.00  0.00     0.210 HD
ENDBRANCH  13  18
BRANCH  16  20
HETATM   20  S1  UNL     1      16.782 -36.722   4.148  1.00  0.00    -0.117 SA
BRANCH  20  21
HETATM   21  C6  UNL     1      18.214 -37.657   3.548  1.00  0.00     0.115 C
HETATM   22  C5  UNL     1      19.408 -36.767   3.594  1.00  0.00     0.165 C
HETATM   23  C3  UNL     1      20.730 -37.440   3.576  1.00  0.00     0.178 C
HETATM   24  O2  UNL     1      20.786 -38.741   3.971  1.00  0.00    -0.349 OA
HETATM   25  C2  UNL     1      19.789 -39.148   4.844  1.00  0.00     0.289 C
HETATM   26  C18 UNL     1      18.408 -38.932   4.285  1.00  0.00     0.189 C
BRANCH  22  27
HETATM   27  O4  UNL     1      19.312 -35.818   4.642  1.00  0.00    -0.392 OA
ATOM     28  H4  UNL     1      19.215 -34.933   4.311  1.00  0.00     0.210 HD
ENDBRANCH  22  27
BRANCH  23  29
HETATM   29  C4  UNL     1      21.289 -37.382   2.157  1.00  0.00     0.198 C
BRANCH  29  30
HETATM   30  O3  UNL     1      22.403 -38.210   2.034  1.00  0.00    -0.398 OA
ATOM     31  H3  UNL     1      23.021 -37.849   1.409  1.00  0.00     0.209 HD
ENDBRANCH  29  30
ENDBRANCH  23  29
BRANCH  25  32
HETATM   32  O1  UNL     1      19.937 -38.601   6.112  1.00  0.00    -0.363 OA
HETATM   33  C1  UNL     1      20.819 -39.376   6.843  1.00  0.00     0.204 C
ENDBRANCH  25  32
BRANCH  26  34
HETATM   34  O7  UNL     1      17.533 -38.915   5.392  1.00  0.00    -0.389 OA
ATOM     35  H7  UNL     1      16.942 -38.184   5.252  1.00  0.00     0.210 HD
ENDBRANCH  26  34
ENDBRANCH  20  21
ENDBRANCH  16  20
ENDBRANCH   9  12
ENDBRANCH   8   9
ENDBRANCH   7   8
ENDBRANCH   6   7
ENDBRANCH   5   6
ENDBRANCH   1   5
TORSDOF 14
ENDMDL