MODEL 5
REMARK VINA RESULT: -8.595353168      3.410      9.860
REMARK  13 active torsions:
REMARK  status: ('A' for Active; 'I' for Inactive)
REMARK    1  A    between atoms: O1_2  and  C2_3
REMARK    2  A    between atoms: C4_5  and  O2_6
REMARK    3  A    between atoms: O2_6  and  C5_7
REMARK    4  A    between atoms: C8_10  and  O3_11
REMARK    5  A    between atoms: C9_13  and  C10_14
REMARK    6  A    between atoms: C10_14  and  O4_15
REMARK    7  A    between atoms: O4_15  and  C11_16
REMARK    8  A    between atoms: C13_18  and  C14_19
REMARK    9  A    between atoms: C14_19  and  O5_20
REMARK   10  A    between atoms: C15_22  and  O6_23
REMARK   11  A    between atoms: C17_26  and  N1_27
REMARK   12  A    between atoms: C19_33  and  O8_34
REMARK   13  A    between atoms: C21_36  and  O9_37
ROOT
HETATM    1  C5  UNL     1      17.328 -38.825   3.819  1.00  0.00     0.267 C
HETATM    2  C6  UNL     1      18.715 -38.230   3.683  1.00  0.00     0.064 C
HETATM    3  C7  UNL     1      18.690 -36.797   4.156  1.00  0.00     0.039 C
HETATM    4  C8  UNL     1      17.576 -36.015   3.495  1.00  0.00     0.149 C
HETATM    5  C9  UNL     1      16.856 -36.983   2.581  1.00  0.00     0.177 C
HETATM    6  O7  UNL     1      16.324 -37.977   3.359  1.00  0.00    -0.351 OA
ENDROOT
BRANCH   5   7
HETATM    7  C10 UNL     1      15.796 -36.277   1.759  1.00  0.00     0.203 C
BRANCH   7   8
HETATM    8  O4  UNL     1      14.794 -35.792   2.586  1.00  0.00    -0.381 OA
BRANCH   8   9
HETATM    9  C11 UNL     1      13.593 -36.432   2.370  1.00  0.00     0.152 C
HETATM   10  C12 UNL     1      12.458 -35.706   3.024  1.00  0.00     0.043 C
HETATM   11  C13 UNL     1      11.174 -36.222   2.416  1.00  0.00     0.040 C
HETATM   12  C15 UNL     1      11.069 -35.728   0.992  1.00  0.00     0.126 C
HETATM   13  C16 UNL     1      12.364 -35.858   0.238  1.00  0.00     0.067 C
HETATM   14  C17 UNL     1      13.360 -36.754   0.913  1.00  0.00     0.214 C
BRANCH  11  15
HETATM   15  C14 UNL     1      10.027 -35.610   3.224  1.00  0.00     0.171 C
BRANCH  15  16
HETATM   16  O5  UNL     1       9.690 -34.431   2.559  1.00  0.00    -0.400 OA
ATOM     17  H5  UNL     1       8.940 -34.082   3.026  1.00  0.00     0.209 HD
ENDBRANCH  15  16
ENDBRANCH  11  15
BRANCH  12  18
HETATM   18  O6  UNL     1      10.000 -36.334   0.357  1.00  0.00    -0.395 OA
ATOM     19  H6  UNL     1      10.175 -37.260   0.238  1.00  0.00     0.210 HD
ENDBRANCH  12  18
BRANCH  14  20
HETATM   20  N1  UNL     1      13.056 -38.156   0.693  1.00  0.00    -0.072 N
ATOM     21  H13 UNL     1      13.133 -38.397  -0.296  1.00  0.00     0.274 HD
ATOM     22  H12 UNL     1      13.794 -38.754   1.065  1.00  0.00     0.274 HD
ATOM     23  H11 UNL     1      12.145 -38.423   1.066  1.00  0.00     0.274 HD
ENDBRANCH  14  20
ENDBRANCH   8   9
ENDBRANCH   7   8
ENDBRANCH   5   7
BRANCH   4  24
HETATM   24  O3  UNL     1      16.714 -35.493   4.456  1.00  0.00    -0.393 OA
ATOM     25  H3  UNL     1      16.084 -36.151   4.728  1.00  0.00     0.210 HD
ENDBRANCH   4  24
BRANCH   1  26
HETATM   26  O2  UNL     1      17.014 -39.138   5.147  1.00  0.00    -0.320 OA
BRANCH  26  27
HETATM   27  C4  UNL     1      17.503 -40.135   5.933  1.00  0.00     0.077 A
HETATM   28  C3  UNL     1      17.306 -41.489   5.746  1.00  0.00     0.076 A
HETATM   29  C2  UNL     1      17.832 -42.449   6.582  1.00  0.00     0.106 A
HETATM   30  C21 UNL     1      18.585 -42.005   7.644  1.00  0.00     0.135 A
HETATM   31  C19 UNL     1      18.808 -40.679   7.871  1.00  0.00     0.106 A
HETATM   32  C18 UNL     1      18.275 -39.737   7.027  1.00  0.00     0.076 A
BRANCH  29  33
HETATM   33  O1  UNL     1      17.657 -43.813   6.428  1.00  0.00    -0.353 OA
HETATM   34  C1  UNL     1      18.565 -44.566   5.649  1.00  0.00     0.210 C
ENDBRANCH  29  33
BRANCH  30  35
HETATM   35  O9  UNL     1      19.135 -42.935   8.513  1.00  0.00    -0.351 OA
HETATM   36  C22 UNL     1      18.357 -43.282   9.668  1.00  0.00     0.210 C
ENDBRANCH  30  35
BRANCH  31  37
HETATM   37  O8  UNL     1      19.586 -40.261   8.971  1.00  0.00    -0.353 OA
HETATM   38  C20 UNL     1      20.977 -40.065   8.808  1.00  0.00     0.210 C
ENDBRANCH  31  37
ENDBRANCH  26  27
ENDBRANCH   1  26
TORSDOF 13
ENDMDL