MODEL 4
REMARK VINA RESULT: -10.167310618      2.175      5.900
REMARK  13 active torsions:
REMARK  status: ('A' for Active; 'I' for Inactive)
REMARK    1  A    between atoms: O1_2  and  C2_3
REMARK    2  A    between atoms: C4_5  and  C5_6
REMARK    3  A    between atoms: C6_7  and  C7_8
REMARK    4  A    between atoms: C7_8  and  O2_12
REMARK    5  A    between atoms: O2_12  and  C8_13
REMARK    6  A    between atoms: C8_13  and  C10_15
REMARK    7  A    between atoms: C10_15  and  C11_16
REMARK    8  A    between atoms: C14_19  and  O3_20
REMARK    9  A    between atoms: O3_20  and  C15_21
REMARK   10  A    between atoms: C17_24  and  O5_25
REMARK   11  A    between atoms: C18_27  and  O6_28
REMARK   12  A    between atoms: C19_30  and  O7_31
REMARK   13  A    between atoms: C21_34  and  O8_35
ROOT
HETATM    1  C11 UNL     1      13.794 -36.814   1.592  1.00  0.00     0.017 C
HETATM    2  C12 UNL     1      14.476 -38.070   2.022  1.00  0.00     0.010 C
HETATM    3  C13 UNL     1      15.914 -37.780   2.329  1.00  0.00     0.032 C
HETATM    4  C14 UNL     1      16.005 -37.045   3.630  1.00  0.00     0.127 C
HETATM    5  C20 UNL     1      14.676 -36.388   3.915  1.00  0.00     0.064 C
HETATM    6  C21 UNL     1      14.042 -35.776   2.685  1.00  0.00     0.124 C
ENDROOT
BRANCH   1   7
HETATM    7  C10 UNL     1      14.211 -36.290   0.249  1.00  0.00     0.039 C
BRANCH   7   8
HETATM    8  C8  UNL     1      12.997 -36.149  -0.636  1.00  0.00     0.127 C
HETATM    9  C9  UNL     1      13.397 -35.907  -2.069  1.00  0.00     0.040 C
BRANCH   8  10
HETATM   10  O2  UNL     1      12.089 -37.213  -0.470  1.00  0.00    -0.331 OA
BRANCH  10  11
HETATM   11  C7  UNL     1      10.799 -36.954  -0.055  1.00  0.00     0.135 C
HETATM   12  N1  UNL     1      10.051 -36.253  -0.805  1.00  0.00    -0.380 N
ATOM     13  H12 UNL     1       9.097 -36.061  -0.498  1.00  0.00     0.158 HD
ATOM     14  H11 UNL     1      10.380 -35.881  -1.696  1.00  0.00     0.158 HD
BRANCH  11  15
HETATM   15  C6  UNL     1      10.326 -37.490   1.228  1.00  0.00     0.056 C
HETATM   16  C5  UNL     1      10.020 -36.723   2.242  1.00  0.00     0.017 C
BRANCH  16  17
HETATM   17  C4  UNL     1       9.554 -37.298   3.498  1.00  0.00    -0.009 A
HETATM   18  C3  UNL     1       9.604 -36.696   4.743  1.00  0.00     0.077 A
HETATM   19  C2  UNL     1       9.065 -37.570   5.665  1.00  0.00     0.185 A
HETATM   20  O9  UNL     1       8.711 -38.634   5.010  1.00  0.00    -0.299 OA
HETATM   21  C22 UNL     1       8.978 -38.529   3.723  1.00  0.00     0.156 A
BRANCH  19  22
HETATM   22  O1  UNL     1       8.938 -37.321   7.044  1.00  0.00    -0.335 OA
HETATM   23  C1  UNL     1       8.025 -36.340   7.494  1.00  0.00     0.212 C
ENDBRANCH  19  22
ENDBRANCH  16  17
ENDBRANCH  11  15
ENDBRANCH  10  11
ENDBRANCH   8  10
ENDBRANCH   7   8
ENDBRANCH   1   7
BRANCH   6  24
HETATM   24  O8  UNL     1      12.842 -35.220   3.064  1.00  0.00    -0.395 OA
ATOM     25  H8  UNL     1      12.990 -34.610   3.777  1.00  0.00     0.210 HD
ENDBRANCH   6  24
BRANCH   4  26
HETATM   26  O3  UNL     1      16.357 -37.905   4.659  1.00  0.00    -0.353 OA
BRANCH  26  27
HETATM   27  C15 UNL     1      17.398 -38.750   4.315  1.00  0.00     0.291 C
HETATM   28  O4  UNL     1      17.183 -40.055   4.784  1.00  0.00    -0.356 OA
HETATM   29  C16 UNL     1      17.641 -40.148   6.099  1.00  0.00     0.205 C
HETATM   30  C17 UNL     1      19.169 -40.198   6.127  1.00  0.00     0.173 C
HETATM   31  C18 UNL     1      19.653 -39.469   4.899  1.00  0.00     0.182 C
HETATM   32  C19 UNL     1      18.757 -38.251   4.680  1.00  0.00     0.204 C
BRANCH  30  33
HETATM   33  O5  UNL     1      19.643 -39.525   7.239  1.00  0.00    -0.391 OA
ATOM     34  H5  UNL     1      20.186 -40.104   7.761  1.00  0.00     0.210 HD
ENDBRANCH  30  33
BRANCH  31  35
HETATM   35  O6  UNL     1      20.930 -38.974   5.202  1.00  0.00    -0.390 OA
ATOM     36  H6  UNL     1      21.514 -39.723   5.227  1.00  0.00     0.210 HD
ENDBRANCH  31  35
BRANCH  32  37
HETATM   37  O7  UNL     1      19.333 -37.575   3.578  1.00  0.00    -0.388 OA
ATOM     38  H7  UNL     1      19.053 -37.983   2.766  1.00  0.00     0.210 HD
ENDBRANCH  32  37
ENDBRANCH  26  27
ENDBRANCH   4  26
TORSDOF 13
ENDMDL