MODEL 3
REMARK VINA RESULT: -8.687305370      3.464      7.786
REMARK  15 active torsions:
REMARK  status: ('A' for Active; 'I' for Inactive)
REMARK    1  A    between atoms: C2_2  and  C3_3
REMARK    2  A    between atoms: C2_2  and  C10_10
REMARK    3  A    between atoms: C4_4  and  C5_5
REMARK    4  A    between atoms: C10_10  and  N1_11
REMARK    5  A    between atoms: C11_12  and  O1_13
REMARK    6  A    between atoms: C13_17  and  N2_18
REMARK    7  A    between atoms: N2_18  and  C14_20
REMARK    8  A    between atoms: C14_20  and  C15_21
REMARK    9  A    between atoms: C15_21  and  O2_22
REMARK   10  A    between atoms: O2_22  and  C16_23
REMARK   11  A    between atoms: C17_25  and  C18_26
REMARK   12  A    between atoms: C18_26  and  O4_27
REMARK   13  A    between atoms: C19_29  and  O5_30
REMARK   14  A    between atoms: C20_32  and  O6_33
REMARK   15  A    between atoms: C21_35  and  O7_36
ROOT
HETATM    1  N2  UNL     1      12.274 -36.167  -1.637  1.00  0.00    -0.368 N
ATOM      2  H2  UNL     1      12.099 -36.923  -2.298  1.00  0.00     0.161 HD
ENDROOT
BRANCH   1   3
HETATM    3  C13 UNL     1      13.526 -36.093  -1.527  1.00  0.00     0.148 A
HETATM    4  N1  UNL     1      14.405 -36.087  -0.522  1.00  0.00    -0.307 N
HETATM    5  C11 UNL     1      15.680 -35.875  -0.792  1.00  0.00     0.150 A
HETATM    6  C12 UNL     1      16.053 -35.677  -2.085  1.00  0.00     0.109 A
HETATM    7  S1  UNL     1      14.590 -35.791  -2.904  1.00  0.00    -0.062 SA
BRANCH   4   8
HETATM    8  C10 UNL     1      13.964 -36.329   0.879  1.00  0.00     0.141 C
BRANCH   8   9
HETATM    9  C2  UNL     1      13.898 -37.729   1.305  1.00  0.00     0.022 C
HETATM   10  C1  UNL     1      13.440 -38.750   0.287  1.00  0.00     0.016 C
BRANCH   9  11
HETATM   11  C3  UNL     1      15.131 -38.310   1.903  1.00  0.00    -0.020 C
HETATM   12  C4  UNL     1      15.709 -37.717   2.951  1.00  0.00     0.003 C
BRANCH  12  13
HETATM   13  C5  UNL     1      16.911 -38.282   3.534  1.00  0.00    -0.062 C
HETATM   14  C6  UNL     1      17.064 -39.530   3.948  1.00  0.00    -0.020 C
HETATM   15  C7  UNL     1      18.428 -39.750   4.486  1.00  0.00     0.028 C
HETATM   16  C8  UNL     1      18.866 -38.350   4.854  1.00  0.00     0.008 C
HETATM   17  C9  UNL     1      18.172 -37.534   3.759  1.00  0.00     0.038 C
ENDBRANCH  12  13
ENDBRANCH   9  11
ENDBRANCH   8   9
ENDBRANCH   4   8
BRANCH   5  18
HETATM   18  O1  UNL     1      16.713 -35.832   0.211  1.00  0.00    -0.346 OA
ATOM     19  H1  UNL     1      17.534 -35.367   0.102  1.00  0.00     0.219 HD
ENDBRANCH   5  18
ENDBRANCH   1   3
BRANCH   1  20
HETATM   20  C14 UNL     1      11.047 -35.700  -1.278  1.00  0.00     0.148 C
BRANCH  20  21
HETATM   21  C15 UNL     1      10.141 -36.812  -0.677  1.00  0.00     0.190 C
BRANCH  21  22
HETATM   22  O2  UNL     1       9.678 -36.545   0.553  1.00  0.00    -0.357 OA
BRANCH  22  23
HETATM   23  C16 UNL     1      10.564 -36.501   1.613  1.00  0.00     0.291 C
HETATM   24  O3  UNL     1      10.426 -37.559   2.398  1.00  0.00    -0.348 OA
HETATM   25  C17 UNL     1       9.667 -37.510   3.507  1.00  0.00     0.179 C
HETATM   26  C19 UNL     1       9.635 -36.167   4.223  1.00  0.00     0.180 C
HETATM   27  C20 UNL     1      10.859 -35.360   3.755  1.00  0.00     0.183 C
HETATM   28  C21 UNL     1      10.702 -35.192   2.265  1.00  0.00     0.204 C
BRANCH  25  29
HETATM   29  C18 UNL     1       8.250 -37.924   3.233  1.00  0.00     0.198 C
BRANCH  29  30
HETATM   30  O4  UNL     1       7.355 -37.583   4.219  1.00  0.00    -0.398 OA
ATOM     31  H4  UNL     1       6.552 -37.187   3.903  1.00  0.00     0.209 HD
ENDBRANCH  29  30
ENDBRANCH  25  29
BRANCH  26  32
HETATM   32  O5  UNL     1       9.789 -36.402   5.580  1.00  0.00    -0.390 OA
ATOM     33  H5  UNL     1       9.149 -37.053   5.840  1.00  0.00     0.210 HD
ENDBRANCH  26  32
BRANCH  27  34
HETATM   34  O6  UNL     1      11.967 -36.154   4.057  1.00  0.00    -0.390 OA
ATOM     35  H6  UNL     1      11.898 -36.913   3.490  1.00  0.00     0.210 HD
ENDBRANCH  27  34
BRANCH  28  36
HETATM   36  O7  UNL     1       9.551 -34.376   2.109  1.00  0.00    -0.388 OA
ATOM     37  H7  UNL     1       9.278 -33.966   2.922  1.00  0.00     0.210 HD
ENDBRANCH  28  36
ENDBRANCH  22  23
ENDBRANCH  21  22
ENDBRANCH  20  21
ENDBRANCH   1  20
TORSDOF 15
ENDMDL