MODEL 1
REMARK VINA RESULT: -8.967895083      0.000      0.000
REMARK  14 active torsions:
REMARK  status: ('A' for Active; 'I' for Inactive)
REMARK    1  A    between atoms: C2_2  and  C3_3
REMARK    2  A    between atoms: C3_3  and  C4_4
REMARK    3  A    between atoms: C4_4  and  C5_5
REMARK    4  A    between atoms: C5_5  and  C6_6
REMARK    5  A    between atoms: C6_6  and  C7_7
REMARK    6  A    between atoms: C7_7  and  C8_8
REMARK    7  A    between atoms: C8_8  and  C9_9
REMARK    8  A    between atoms: C10_10  and  O1_11
REMARK    9  A    between atoms: O1_11  and  C11_12
REMARK   10  A    between atoms: C14_16  and  O3_17
REMARK   11  A    between atoms: C15_19  and  O4_20
REMARK   12  A    between atoms: C16_22  and  O5_23
REMARK   13  A    between atoms: C17_25  and  O6_26
REMARK   14  A    between atoms: C22_36  and  O9_37
ROOT
HETATM    1  C9  UNL     1      13.256 -36.569  -0.406  1.00  0.00     0.040 C
HETATM    2  C10 UNL     1      13.329 -36.911   0.894  1.00  0.00     0.113 C
HETATM    3  C17 UNL     1      12.173 -36.324   1.555  1.00  0.00     0.179 C
HETATM    4  C18 UNL     1      11.171 -36.238   0.424  1.00  0.00     0.274 C
HETATM    5  N1  UNL     1      12.072 -35.817  -0.633  1.00  0.00    -0.362 N
ATOM      6  H1  UNL     1      11.896 -35.135  -1.372  1.00  0.00     0.162 HD
HETATM    7  O7  UNL     1      10.252 -35.226   0.817  1.00  0.00    -0.291 OA
HETATM    8  C19 UNL     1       9.866 -35.366   2.171  1.00  0.00     0.267 C
HETATM    9  O8  UNL     1       9.387 -34.419   2.834  1.00  0.00    -0.265 OA
HETATM   10  C20 UNL     1      10.082 -36.736   2.720  1.00  0.00     0.114 C
HETATM   11  C21 UNL     1       9.555 -36.768   4.119  1.00  0.00     0.023 C
HETATM   12  C22 UNL     1      11.547 -37.158   2.639  1.00  0.00     0.177 C
ENDROOT
BRANCH   2  13
HETATM   13  O1  UNL     1      14.359 -37.689   1.431  1.00  0.00    -0.317 OA
BRANCH  13  14
HETATM   14  C11 UNL     1      15.007 -37.392   2.649  1.00  0.00     0.297 C
HETATM   15  O2  UNL     1      15.565 -38.489   3.253  1.00  0.00    -0.351 OA
HETATM   16  C12 UNL     1      16.948 -38.534   3.173  1.00  0.00     0.152 C
HETATM   17  C13 UNL     1      17.471 -39.784   3.843  1.00  0.00     0.042 C
HETATM   18  C14 UNL     1      17.603 -37.357   3.859  1.00  0.00     0.178 C
HETATM   19  C15 UNL     1      16.923 -36.061   3.530  1.00  0.00     0.183 C
HETATM   20  C16 UNL     1      15.987 -36.274   2.365  1.00  0.00     0.205 C
BRANCH  18  21
HETATM   21  O3  UNL     1      17.660 -37.518   5.238  1.00  0.00    -0.390 OA
ATOM     22  H3  UNL     1      16.909 -37.134   5.676  1.00  0.00     0.210 HD
ENDBRANCH  18  21
BRANCH  19  23
HETATM   23  O4  UNL     1      17.826 -35.056   3.210  1.00  0.00    -0.390 OA
ATOM     24  H4  UNL     1      17.398 -34.282   2.862  1.00  0.00     0.210 HD
ENDBRANCH  19  23
BRANCH  20  25
HETATM   25  O5  UNL     1      16.631 -36.404   1.155  1.00  0.00    -0.388 OA
ATOM     26  H5  UNL     1      17.566 -36.543   1.239  1.00  0.00     0.210 HD
ENDBRANCH  20  25
ENDBRANCH  13  14
ENDBRANCH   2  13
BRANCH   1  27
HETATM   27  C8  UNL     1      14.231 -36.946  -1.455  1.00  0.00     0.059 C
BRANCH  27  28
HETATM   28  C7  UNL     1      14.728 -35.867  -2.327  1.00  0.00     0.006 C
BRANCH  28  29
HETATM   29  C6  UNL     1      14.304 -35.812  -3.736  1.00  0.00     0.000 C
BRANCH  29  30
HETATM   30  C5  UNL     1      12.926 -35.320  -3.994  1.00  0.00     0.000 C
BRANCH  30  31
HETATM   31  C4  UNL     1      12.526 -35.187  -5.428  1.00  0.00     0.000 C
BRANCH  31  32
HETATM   32  C3  UNL     1      11.090 -34.787  -5.538  1.00  0.00    -0.000 C
BRANCH  32  33
HETATM   33  C2  UNL     1      10.487 -35.306  -6.833  1.00  0.00    -0.005 C
HETATM   34  C1  UNL     1      11.241 -34.714  -8.004  1.00  0.00     0.005 C
ENDBRANCH  32  33
ENDBRANCH  31  32
ENDBRANCH  30  31
ENDBRANCH  29  30
ENDBRANCH  28  29
ENDBRANCH  27  28
ENDBRANCH   1  27
BRANCH   3  35
HETATM   35  O6  UNL     1      12.395 -35.014   1.987  1.00  0.00    -0.376 OA
ATOM     36  H6  UNL     1      11.672 -34.660   2.492  1.00  0.00     0.211 HD
ENDBRANCH   3  35
BRANCH  12  37
HETATM   37  O9  UNL     1      12.133 -36.774   3.845  1.00  0.00    -0.391 OA
ATOM     38  H9  UNL     1      12.201 -35.826   3.835  1.00  0.00     0.210 HD
ENDBRANCH  12  37
TORSDOF 14
ENDMDL