MODEL 4
REMARK VINA RESULT: -7.533550806      2.106      5.881
REMARK  14 active torsions:
REMARK  status: ('A' for Active; 'I' for Inactive)
REMARK    1  A    between atoms: C2_2  and  C3_3
REMARK    2  A    between atoms: C3_3  and  O1_4
REMARK    3  A    between atoms: O1_4  and  C4_5
REMARK    4  A    between atoms: C5_6  and  O2_7
REMARK    5  A    between atoms: O2_7  and  C6_8
REMARK    6  A    between atoms: C12_14  and  O3_15
REMARK    7  A    between atoms: C13_18  and  C14_19
REMARK    8  A    between atoms: C14_19  and  O5_20
REMARK    9  A    between atoms: C15_22  and  O6_23
REMARK   10  A    between atoms: C16_25  and  O7_26
REMARK   11  A    between atoms: C17_28  and  C18_29
REMARK   12  A    between atoms: C17_28  and  C20_33
REMARK   13  A    between atoms: C18_29  and  O9_31
REMARK   14  A    between atoms: C20_33  and  C22_35
ROOT
HETATM    1  C4  UNL     1      20.223 -37.937   4.200  1.00  0.00     0.214 C
HETATM    2  C5  UNL     1      21.107 -39.020   4.833  1.00  0.00     0.292 C
HETATM    3  O4  UNL     1      22.272 -39.145   4.125  1.00  0.00    -0.348 OA
HETATM    4  C13 UNL     1      22.324 -38.565   2.894  1.00  0.00     0.179 C
HETATM    5  C15 UNL     1      22.096 -37.075   2.908  1.00  0.00     0.180 C
HETATM    6  C16 UNL     1      21.113 -36.760   4.062  1.00  0.00     0.183 C
ENDROOT
BRANCH   1   7
HETATM    7  O1  UNL     1      18.994 -37.852   4.746  1.00  0.00    -0.342 OA
BRANCH   7   8
HETATM    8  C3  UNL     1      17.703 -38.169   4.427  1.00  0.00     0.059 C
HETATM    9  C17 UNL     1      16.957 -37.496   3.573  1.00  0.00     0.055 C
BRANCH   8  10
HETATM   10  C2  UNL     1      17.191 -39.359   5.135  1.00  0.00     0.061 C
HETATM   11  C1  UNL     1      17.565 -40.561   4.262  1.00  0.00     0.012 C
ENDBRANCH   8  10
BRANCH   9  12
HETATM   12  C18 UNL     1      15.580 -37.766   3.188  1.00  0.00     0.292 C
HETATM   13  O8  UNL     1      15.282 -38.567   2.216  1.00  0.00    -0.259 OA
BRANCH  12  14
HETATM   14  O9  UNL     1      14.497 -37.218   3.789  1.00  0.00    -0.323 OA
HETATM   15  C19 UNL     1      13.443 -36.544   3.135  1.00  0.00     0.213 C
ENDBRANCH  12  14
ENDBRANCH   9  12
BRANCH   9  16
HETATM   16  C20 UNL     1      17.436 -36.317   2.802  1.00  0.00     0.061 C
HETATM   17  C21 UNL     1      16.883 -35.958   1.527  1.00  0.00     0.021 C
BRANCH  16  18
HETATM   18  C22 UNL     1      17.248 -35.145   3.747  1.00  0.00     0.062 C
HETATM   19  N1  UNL     1      18.254 -34.719   4.385  1.00  0.00    -0.410 N
ATOM     20  H12 UNL     1      19.163 -35.165   4.257  1.00  0.00     0.155 HD
ATOM     21  H11 UNL     1      18.128 -33.930   5.020  1.00  0.00     0.155 HD
ENDBRANCH  16  18
ENDBRANCH   9  16
ENDBRANCH   7   8
ENDBRANCH   1   7
BRANCH   2  22
HETATM   22  O2  UNL     1      21.445 -38.755   6.137  1.00  0.00    -0.351 OA
BRANCH  22  23
HETATM   23  C6  UNL     1      21.621 -39.940   6.847  1.00  0.00     0.153 C
HETATM   24  C7  UNL     1      21.184 -41.081   6.017  1.00  0.00     0.039 C
HETATM   25  C8  UNL     1      20.465 -42.180   6.689  1.00  0.00    -0.016 C
HETATM   26  C9  UNL     1      19.558 -42.864   5.654  1.00  0.00     0.010 C
HETATM   27  C10 UNL     1      19.607 -41.815   7.840  1.00  0.00     0.007 C
HETATM   28  C11 UNL     1      19.425 -40.302   7.902  1.00  0.00     0.034 C
HETATM   29  C12 UNL     1      20.849 -39.778   8.137  1.00  0.00     0.147 C
BRANCH  29  30
HETATM   30  O3  UNL     1      21.411 -40.505   9.171  1.00  0.00    -0.393 OA
ATOM     31  H3  UNL     1      21.743 -41.345   8.875  1.00  0.00     0.210 HD
ENDBRANCH  29  30
ENDBRANCH  22  23
ENDBRANCH   2  22
BRANCH   6  32
HETATM   32  O7  UNL     1      21.994 -36.636   5.171  1.00  0.00    -0.390 OA
ATOM     33  H7  UNL     1      22.901 -36.572   4.892  1.00  0.00     0.210 HD
ENDBRANCH   6  32
BRANCH   5  34
HETATM   34  O6  UNL     1      23.261 -36.357   3.091  1.00  0.00    -0.390 OA
ATOM     35  H6  UNL     1      23.478 -35.811   2.345  1.00  0.00     0.210 HD
ENDBRANCH   5  34
BRANCH   4  36
HETATM   36  C14 UNL     1      23.760 -38.763   2.378  1.00  0.00     0.198 C
BRANCH  36  37
HETATM   37  O5  UNL     1      23.860 -38.450   1.038  1.00  0.00    -0.398 OA
ATOM     38  H5  UNL     1      23.740 -37.519   0.890  1.00  0.00     0.209 HD
ENDBRANCH  36  37
ENDBRANCH   4  36
TORSDOF 14
ENDMDL