MODEL 5
REMARK VINA RESULT: -9.555027155      1.056      2.003
REMARK  15 active torsions:
REMARK  status: ('A' for Active; 'I' for Inactive)
REMARK    1  A    between atoms: C2_2  and  C3_3
REMARK    2  A    between atoms: C5_6  and  C6_7
REMARK    3  A    between atoms: C7_8  and  C8_9
REMARK    4  A    between atoms: C10_11  and  C11_12
REMARK    5  A    between atoms: C11_12  and  C12_13
REMARK    6  A    between atoms: C12_13  and  C21_31
REMARK    7  A    between atoms: C13_14  and  C14_15
REMARK    8  A    between atoms: C14_15  and  O2_16
REMARK    9  A    between atoms: O2_16  and  C15_17
REMARK   10  A    between atoms: C17_20  and  O4_22
REMARK   11  A    between atoms: O4_22  and  O5_23
REMARK   12  A    between atoms: C19_25  and  O6_26
REMARK   13  A    between atoms: C20_28  and  O7_29
REMARK   14  A    between atoms: C21_31  and  O8_32
REMARK   15  A    between atoms: C23_35  and  O9_36
ROOT
HETATM    1  C12 UNL     1      18.025 -39.531   5.001  1.00  0.00    -0.055 C
HETATM    2  C13 UNL     1      19.131 -38.937   5.311  1.00  0.00     0.004 C
ENDROOT
BRANCH   1   3
HETATM    3  C11 UNL     1      17.222 -39.156   3.786  1.00  0.00     0.063 C
BRANCH   3   4
HETATM    4  C10 UNL     1      16.344 -38.029   4.053  1.00  0.00    -0.016 C
HETATM    5  C8  UNL     1      15.454 -37.465   3.240  1.00  0.00    -0.065 C
HETATM    6  C9  UNL     1      14.702 -36.302   3.843  1.00  0.00     0.048 C
BRANCH   5   7
HETATM    7  C7  UNL     1      15.255 -37.943   1.923  1.00  0.00     0.009 C
HETATM    8  C6  UNL     1      14.287 -38.052   1.088  1.00  0.00     0.037 C
BRANCH   8   9
HETATM    9  C5  UNL     1      12.891 -37.727   1.090  1.00  0.00     0.068 C
HETATM   10  O1  UNL     1      12.115 -37.285   2.134  1.00  0.00    -0.338 OA
HETATM   11  C3  UNL     1      10.854 -36.836   1.761  1.00  0.00     0.093 C
HETATM   12  C4  UNL     1       9.803 -37.414   2.674  1.00  0.00     0.049 C
HETATM   13  C23 UNL     1      10.741 -37.412   0.359  1.00  0.00     0.178 C
HETATM   14  C22 UNL     1      12.115 -37.822  -0.001  1.00  0.00     0.044 C
BRANCH  11  15
HETATM   15  C2  UNL     1      10.739 -35.332   1.667  1.00  0.00     0.037 C
HETATM   16  C1  UNL     1      10.700 -34.746   3.060  1.00  0.00     0.008 C
ENDBRANCH  11  15
BRANCH  13  17
HETATM   17  O9  UNL     1       9.955 -38.569   0.361  1.00  0.00    -0.389 OA
ATOM     18  H9  UNL     1       9.117 -38.407  -0.057  1.00  0.00     0.210 HD
ENDBRANCH  13  17
ENDBRANCH   8   9
ENDBRANCH   5   7
ENDBRANCH   3   4
ENDBRANCH   1   3
BRANCH   1  19
HETATM   19  C21 UNL     1      17.466 -40.659   5.861  1.00  0.00     0.198 C
BRANCH  19  20
HETATM   20  O8  UNL     1      17.168 -40.066   7.090  1.00  0.00    -0.397 OA
ATOM     21  H8  UNL     1      16.473 -40.599   7.459  1.00  0.00     0.209 HD
ENDBRANCH  19  20
ENDBRANCH   1  19
BRANCH   2  22
HETATM   22  C14 UNL     1      19.771 -37.849   4.575  1.00  0.00     0.198 C
BRANCH  22  23
HETATM   23  O2  UNL     1      20.780 -38.302   3.711  1.00  0.00    -0.355 OA
BRANCH  23  24
HETATM   24  C15 UNL     1      22.039 -38.305   4.299  1.00  0.00     0.291 C
HETATM   25  O3  UNL     1      22.052 -37.274   5.230  1.00  0.00    -0.355 OA
HETATM   26  C16 UNL     1      23.333 -36.852   5.565  1.00  0.00     0.214 C
HETATM   27  C17 UNL     1      24.010 -36.136   4.413  1.00  0.00     0.142 C
HETATM   28  C18 UNL     1      25.427 -36.664   4.322  1.00  0.00     0.054 C
HETATM   29  C19 UNL     1      23.307 -36.580   3.123  1.00  0.00     0.191 C
HETATM   30  C20 UNL     1      23.116 -38.079   3.262  1.00  0.00     0.205 C
BRANCH  27  31
HETATM   31  O4  UNL     1      23.950 -34.764   4.536  1.00  0.00    -0.227 OA
BRANCH  31  32
HETATM   32  O5  UNL     1      22.968 -34.485   5.365  1.00  0.00    -0.250 OA
ATOM     33  H5  UNL     1      23.289 -33.835   5.979  1.00  0.00     0.253 HD
ENDBRANCH  31  32
ENDBRANCH  27  31
BRANCH  29  34
HETATM   34  O6  UNL     1      22.080 -35.925   3.049  1.00  0.00    -0.390 OA
ATOM     35  H6  UNL     1      21.845 -35.638   3.923  1.00  0.00     0.210 HD
ENDBRANCH  29  34
BRANCH  30  36
HETATM   36  O7  UNL     1      22.791 -38.670   2.047  1.00  0.00    -0.388 OA
ATOM     37  H7  UNL     1      23.524 -39.153   1.685  1.00  0.00     0.210 HD
ENDBRANCH  30  36
ENDBRANCH  23  24
ENDBRANCH  22  23
ENDBRANCH   2  22
TORSDOF 15
ENDMDL