MODEL 2
REMARK VINA RESULT: -8.910644250      0.934      2.414
REMARK  12 active torsions:
REMARK  status: ('A' for Active; 'I' for Inactive)
REMARK    1  A    between atoms: C2_2  and  C3_3
REMARK    2  A    between atoms: C3_3  and  C4_4
REMARK    3  A    between atoms: C6_6  and  O1_7
REMARK    4  A    between atoms: C8_9  and  O2_10
REMARK    5  A    between atoms: O2_10  and  C9_11
REMARK    6  A    between atoms: C10_15  and  O3_16
REMARK    7  A    between atoms: O3_16  and  C11_17
REMARK    8  A    between atoms: C14_20  and  O4_21
REMARK    9  A    between atoms: C17_28  and  O5_29
REMARK   10  A    between atoms: C18_31  and  C19_32
REMARK   11  A    between atoms: C19_32  and  O6_33
REMARK   12  A    between atoms: C21_37  and  O8_38
ROOT
HETATM    1  C9  UNL     1      10.566 -36.020   0.536  1.00  0.00     0.478 C
HETATM    2  N1  UNL     1      11.706 -35.312   1.086  1.00  0.00     0.004 N
ATOM      3  H11 UNL     1      11.572 -34.304   1.008  1.00  0.00     0.286 HD
ATOM      4  H12 UNL     1      12.521 -35.426   0.484  1.00  0.00     0.286 HD
HETATM    5  C10 UNL     1      12.025 -35.672   2.434  1.00  0.00     0.360 C
HETATM    6  C17 UNL     1      10.802 -35.877   3.300  1.00  0.00     0.206 C
HETATM    7  C18 UNL     1       9.738 -36.681   2.585  1.00  0.00     0.183 C
HETATM    8  O7  UNL     1      10.201 -37.101   1.342  1.00  0.00    -0.328 OA
ENDROOT
BRANCH   1   9
HETATM    9  O2  UNL     1      10.950 -36.548  -0.701  1.00  0.00    -0.294 OA
BRANCH   9  10
HETATM   10  C8  UNL     1      12.111 -36.355  -1.392  1.00  0.00     0.110 A
HETATM   11  C6  UNL     1      12.040 -35.644  -2.586  1.00  0.00     0.102 A
HETATM   12  C5  UNL     1      13.194 -35.445  -3.284  1.00  0.00     0.049 A
HETATM   13  C4  UNL     1      14.427 -35.908  -2.872  1.00  0.00    -0.019 A
HETATM   14  C21 UNL     1      14.505 -36.613  -1.690  1.00  0.00     0.077 A
HETATM   15  C20 UNL     1      13.330 -36.828  -0.959  1.00  0.00     0.077 A
BRANCH  11  16
HETATM   16  O1  UNL     1      10.797 -35.171  -3.012  1.00  0.00    -0.353 OA
HETATM   17  C7  UNL     1      10.601 -34.895  -4.378  1.00  0.00     0.210 C
ENDBRANCH  11  16
BRANCH  13  18
HETATM   18  C3  UNL     1      15.667 -35.670  -3.662  1.00  0.00     0.068 C
BRANCH  18  19
HETATM   19  C2  UNL     1      15.396 -35.586  -5.122  1.00  0.00    -0.032 C
HETATM   20  C1  UNL     1      15.519 -36.650  -5.897  1.00  0.00     0.007 C
ENDBRANCH  18  19
ENDBRANCH  13  18
BRANCH  14  21
HETATM   21  O8  UNL     1      15.711 -37.115  -1.203  1.00  0.00    -0.355 OA
HETATM   22  C22 UNL     1      16.527 -36.306  -0.385  1.00  0.00     0.210 C
ENDBRANCH  14  21
ENDBRANCH   9  10
ENDBRANCH   1   9
BRANCH   5  23
HETATM   23  O3  UNL     1      12.748 -36.847   2.457  1.00  0.00    -0.323 OA
BRANCH  23  24
HETATM   24  C11 UNL     1      13.864 -36.754   3.300  1.00  0.00     0.323 C
HETATM   25  C12 UNL     1      14.442 -35.385   3.320  1.00  0.00     0.064 C
HETATM   26  C13 UNL     1      15.846 -35.278   2.823  1.00  0.00     0.038 C
HETATM   27  C14 UNL     1      16.726 -36.437   3.181  1.00  0.00     0.148 C
HETATM   28  C15 UNL     1      15.974 -37.633   3.691  1.00  0.00     0.213 C
HETATM   29  C16 UNL     1      16.862 -38.870   3.568  1.00  0.00     0.043 C
HETATM   30  N2  UNL     1      14.787 -37.787   2.873  1.00  0.00    -0.043 N
ATOM     31  H22 UNL     1      14.389 -38.726   2.908  1.00  0.00     0.280 HD
ATOM     32  H21 UNL     1      14.979 -37.769   1.871  1.00  0.00     0.280 HD
BRANCH  27  33
HETATM   33  O4  UNL     1      17.699 -36.098   4.123  1.00  0.00    -0.393 OA
ATOM     34  H4  UNL     1      18.406 -35.585   3.747  1.00  0.00     0.210 HD
ENDBRANCH  27  33
ENDBRANCH  23  24
ENDBRANCH   5  23
BRANCH   7  35
HETATM   35  C19 UNL     1       9.348 -37.915   3.370  1.00  0.00     0.199 C
BRANCH  35  36
HETATM   36  O6  UNL     1       8.465 -37.604   4.401  1.00  0.00    -0.398 OA
ATOM     37  H6  UNL     1       7.573 -37.524   4.082  1.00  0.00     0.209 HD
ENDBRANCH  35  36
ENDBRANCH   7  35
BRANCH   6  38
HETATM   38  O5  UNL     1      10.300 -34.680   3.806  1.00  0.00    -0.389 OA
ATOM     39  H5  UNL     1      10.081 -34.059   3.120  1.00  0.00     0.210 HD
ENDBRANCH   6  38
TORSDOF 12
ENDMDL