MODEL 1
REMARK VINA RESULT: -8.833453781      0.000      0.000
REMARK  15 active torsions:
REMARK  status: ('A' for Active; 'I' for Inactive)
REMARK    1  A    between atoms: C2_2  and  C4_4
REMARK    2  A    between atoms: C4_4  and  C5_5
REMARK    3  A    between atoms: C5_5  and  C6_6
REMARK    4  A    between atoms: C6_6  and  C8_8
REMARK    5  A    between atoms: C8_8  and  O1_9
REMARK    6  A    between atoms: C8_8  and  C9_11
REMARK    7  A    between atoms: C9_11  and  C10_12
REMARK    8  A    between atoms: C13_17  and  O3_18
REMARK    9  A    between atoms: O3_18  and  C14_19
REMARK   10  A    between atoms: C15_21  and  C16_22
REMARK   11  A    between atoms: C16_22  and  O5_23
REMARK   12  A    between atoms: C17_25  and  O6_26
REMARK   13  A    between atoms: C18_28  and  O7_29
REMARK   14  A    between atoms: C19_31  and  O8_32
REMARK   15  A    between atoms: C20_34  and  O9_35
ROOT
HETATM    1  C10 UNL     1      14.787 -36.349   0.483  1.00  0.00    -0.007 C
HETATM    2  C11 UNL     1      15.524 -36.428   1.581  1.00  0.00     0.014 C
HETATM    3  S1  UNL     1      17.042 -35.502   1.806  1.00  0.00    -0.052 SA
HETATM    4  C12 UNL     1      17.127 -35.801   3.587  1.00  0.00     0.222 C
HETATM    5  O2  UNL     1      17.697 -35.052   4.345  1.00  0.00    -0.282 OA
HETATM    6  C13 UNL     1      16.390 -37.053   3.767  1.00  0.00     0.239 C
HETATM    7  C20 UNL     1      15.320 -37.216   2.794  1.00  0.00     0.195 C
ENDROOT
BRANCH   6   8
HETATM    8  O3  UNL     1      17.146 -38.183   3.897  1.00  0.00    -0.342 OA
BRANCH   8   9
HETATM    9  C14 UNL     1      17.678 -38.543   5.051  1.00  0.00     0.292 C
HETATM   10  O4  UNL     1      19.052 -38.440   5.189  1.00  0.00    -0.348 OA
HETATM   11  C15 UNL     1      19.531 -39.087   6.308  1.00  0.00     0.179 C
HETATM   12  C17 UNL     1      19.411 -40.582   6.248  1.00  0.00     0.180 C
HETATM   13  C18 UNL     1      18.335 -40.920   5.247  1.00  0.00     0.183 C
HETATM   14  C19 UNL     1      17.184 -39.928   5.457  1.00  0.00     0.204 C
BRANCH  11  15
HETATM   15  C16 UNL     1      21.014 -38.752   6.424  1.00  0.00     0.198 C
BRANCH  15  16
HETATM   16  O5  UNL     1      21.331 -37.602   5.726  1.00  0.00    -0.398 OA
ATOM     17  H5  UNL     1      21.134 -37.690   4.801  1.00  0.00     0.209 HD
ENDBRANCH  15  16
ENDBRANCH  11  15
BRANCH  12  18
HETATM   18  O6  UNL     1      19.178 -41.152   7.496  1.00  0.00    -0.390 OA
ATOM     19  H6  UNL     1      19.748 -40.801   8.170  1.00  0.00     0.210 HD
ENDBRANCH  12  18
BRANCH  13  20
HETATM   20  O7  UNL     1      17.885 -42.216   5.394  1.00  0.00    -0.390 OA
ATOM     21  H7  UNL     1      18.588 -42.811   5.626  1.00  0.00     0.210 HD
ENDBRANCH  13  20
BRANCH  14  22
HETATM   22  O8  UNL     1      16.876 -39.990   6.815  1.00  0.00    -0.388 OA
ATOM     23  H8  UNL     1      15.943 -40.097   6.960  1.00  0.00     0.210 HD
ENDBRANCH  14  22
ENDBRANCH   8   9
ENDBRANCH   6   8
BRANCH   7  24
HETATM   24  O9  UNL     1      14.046 -36.991   3.366  1.00  0.00    -0.387 OA
ATOM     25  H9  UNL     1      13.357 -36.987   2.712  1.00  0.00     0.210 HD
ENDBRANCH   7  24
BRANCH   1  26
HETATM   26  C9  UNL     1      13.532 -37.097   0.266  1.00  0.00     0.060 C
BRANCH  26  27
HETATM   27  C8  UNL     1      12.824 -36.812  -1.027  1.00  0.00     0.125 C
BRANCH  27  28
HETATM   28  C6  UNL     1      11.632 -35.910  -0.924  1.00  0.00     0.011 C
HETATM   29  C7  UNL     1      11.217 -35.223  -2.172  1.00  0.00     0.012 C
BRANCH  28  30
HETATM   30  C5  UNL     1      10.491 -36.587  -0.172  1.00  0.00     0.007 C
BRANCH  30  31
HETATM   31  C4  UNL     1      10.159 -35.685   0.997  1.00  0.00     0.004 C
BRANCH  31  32
HETATM   32  C2  UNL     1      10.743 -36.213   2.288  1.00  0.00    -0.023 C
HETATM   33  C1  UNL     1      11.261 -35.118   3.165  1.00  0.00     0.009 C
HETATM   34  C3  UNL     1       9.608 -36.918   3.041  1.00  0.00     0.009 C
ENDBRANCH  31  32
ENDBRANCH  30  31
ENDBRANCH  28  30
ENDBRANCH  27  28
BRANCH  27  35
HETATM   35  O1  UNL     1      13.714 -36.110  -1.898  1.00  0.00    -0.395 OA
ATOM     36  H1  UNL     1      13.141 -35.559  -2.418  1.00  0.00     0.210 HD
ENDBRANCH  27  35
ENDBRANCH  26  27
ENDBRANCH   1  26
TORSDOF 15
ENDMDL