MODEL 2
REMARK VINA RESULT: -7.883918388      7.583     11.673
REMARK  15 active torsions:
REMARK  status: ('A' for Active; 'I' for Inactive)
REMARK    1  A    between atoms: C3_3  and  O1_4
REMARK    2  A    between atoms: C6_8  and  O2_9
REMARK    3  A    between atoms: C6_8  and  C7_11
REMARK    4  A    between atoms: C8_12  and  C9_13
REMARK    5  A    between atoms: C9_13  and  C10_14
REMARK    6  A    between atoms: C9_13  and  O4_17
REMARK    7  A    between atoms: C10_14  and  O3_15
REMARK    8  A    between atoms: O4_17  and  C11_18
REMARK    9  A    between atoms: C13_22  and  O7_23
REMARK   10  A    between atoms: O7_23  and  C14_24
REMARK   11  A    between atoms: C14_24  and  C15_25
REMARK   12  A    between atoms: C15_25  and  C16_26
REMARK   13  A    between atoms: C16_26  and  C17_27
REMARK   14  A    between atoms: C20_30  and  O8_32
REMARK   15  A    between atoms: C22_34  and  O9_35
ROOT
HETATM    1  C7  UNL     1      23.732 -38.551   4.033  1.00  0.00     0.089 C
HETATM    2  C8  UNL     1      22.312 -38.355   3.656  1.00  0.00     0.166 C
HETATM    3  O6  UNL     1      21.382 -39.033   4.425  1.00  0.00    -0.353 OA
HETATM    4  C13 UNL     1      21.561 -38.980   5.776  1.00  0.00     0.263 C
HETATM    5  C19 UNL     1      22.754 -38.231   6.259  1.00  0.00     0.098 C
HETATM    6  C20 UNL     1      23.995 -38.592   5.490  1.00  0.00     0.068 C
HETATM    7  C21 UNL     1      25.064 -37.591   5.922  1.00  0.00     0.046 C
ENDROOT
BRANCH   1   8
HETATM    8  C6  UNL     1      24.382 -39.674   3.233  1.00  0.00     0.096 C
HETATM    9  C5  UNL     1      25.776 -40.004   3.631  1.00  0.00     0.044 C
HETATM   10  C4  UNL     1      26.064 -41.407   3.055  1.00  0.00     0.039 C
HETATM   11  C3  UNL     1      25.912 -41.446   1.572  1.00  0.00     0.149 C
HETATM   12  C2  UNL     1      25.420 -40.156   1.043  1.00  0.00    -0.029 C
HETATM   13  C1  UNL     1      25.969 -39.589  -0.033  1.00  0.00     0.019 C
HETATM   14  C22 UNL     1      24.277 -39.490   1.746  1.00  0.00     0.183 C
BRANCH  11  15
HETATM   15  O1  UNL     1      27.090 -41.836   0.927  1.00  0.00    -0.391 OA
ATOM     16  H1  UNL     1      27.005 -42.708   0.559  1.00  0.00     0.210 HD
ENDBRANCH  11  15
BRANCH  14  17
HETATM   17  O9  UNL     1      23.108 -40.106   1.233  1.00  0.00    -0.388 OA
ATOM     18  H9  UNL     1      22.443 -39.427   1.231  1.00  0.00     0.210 HD
ENDBRANCH  14  17
BRANCH   8  19
HETATM   19  O2  UNL     1      23.625 -40.840   3.530  1.00  0.00    -0.386 OA
ATOM     20  H2  UNL     1      22.874 -40.803   2.949  1.00  0.00     0.210 HD
ENDBRANCH   8  19
ENDBRANCH   1   8
BRANCH   2  21
HETATM   21  C9  UNL     1      21.845 -36.962   3.416  1.00  0.00     0.184 C
BRANCH  21  22
HETATM   22  C10 UNL     1      22.671 -36.133   2.486  1.00  0.00     0.199 C
BRANCH  22  23
HETATM   23  O3  UNL     1      22.438 -36.691   1.193  1.00  0.00    -0.398 OA
ATOM     24  H3  UNL     1      22.701 -36.011   0.583  1.00  0.00     0.209 HD
ENDBRANCH  22  23
ENDBRANCH  21  22
BRANCH  21  25
HETATM   25  O4  UNL     1      20.494 -37.004   2.942  1.00  0.00    -0.311 OA
BRANCH  25  26
HETATM   26  C11 UNL     1      19.434 -36.397   3.550  1.00  0.00     0.255 C
HETATM   27  C12 UNL     1      18.073 -36.295   2.973  1.00  0.00     0.126 C
HETATM   28  O5  UNL     1      19.619 -35.884   4.688  1.00  0.00    -0.266 OA
ENDBRANCH  25  26
ENDBRANCH  21  25
ENDBRANCH   2  21
BRANCH   6  29
HETATM   29  O8  UNL     1      24.349 -39.871   5.946  1.00  0.00    -0.389 OA
ATOM     30  H8  UNL     1      24.144 -40.007   6.864  1.00  0.00     0.210 HD
ENDBRANCH   6  29
BRANCH   4  31
HETATM   31  O7  UNL     1      20.413 -38.520   6.449  1.00  0.00    -0.361 OA
BRANCH  31  32
HETATM   32  C14 UNL     1      19.889 -39.555   7.211  1.00  0.00     0.171 C
BRANCH  32  33
HETATM   33  C15 UNL     1      18.436 -39.744   6.846  1.00  0.00     0.026 C
BRANCH  33  34
HETATM   34  C16 UNL     1      18.005 -38.957   5.646  1.00  0.00     0.002 C
BRANCH  34  35
HETATM   35  C17 UNL     1      17.371 -39.843   4.592  1.00  0.00    -0.004 C
HETATM   36  C18 UNL     1      17.365 -41.292   5.023  1.00  0.00     0.005 C
ENDBRANCH  34  35
ENDBRANCH  33  34
ENDBRANCH  32  33
ENDBRANCH  31  32
ENDBRANCH   4  31
TORSDOF 15
ENDMDL