MODEL 2
REMARK VINA RESULT: -8.492075611      1.712      2.234
REMARK  14 active torsions:
REMARK  status: ('A' for Active; 'I' for Inactive)
REMARK    1  A    between atoms: C2_2  and  C3_3
REMARK    2  A    between atoms: C3_3  and  C4_4
REMARK    3  A    between atoms: C4_4  and  C5_5
REMARK    4  A    between atoms: C5_5  and  C6_6
REMARK    5  A    between atoms: C6_6  and  O1_7
REMARK    6  A    between atoms: O1_7  and  C7_8
REMARK    7  A    between atoms: C7_8  and  O2_9
REMARK    8  A    between atoms: O2_9  and  C8_10
REMARK    9  A    between atoms: C11_14  and  O4_15
REMARK   10  A    between atoms: C14_19  and  O5_20
REMARK   11  A    between atoms: C15_23  and  O7_24
REMARK   12  A    between atoms: C19_29  and  O8_30
REMARK   13  A    between atoms: C20_32  and  O9_33
REMARK   14  A    between atoms: C21_35  and  O10_36
ROOT
HETATM    1  C8  UNL     1      18.599 -37.094   3.989  1.00  0.00     0.293 C
HETATM    2  O3  UNL     1      17.858 -37.941   4.842  1.00  0.00    -0.353 OA
HETATM    3  C9  UNL     1      18.233 -39.219   4.521  1.00  0.00     0.135 C
HETATM    4  C10 UNL     1      17.228 -40.275   4.771  1.00  0.00     0.073 C
HETATM    5  C11 UNL     1      17.440 -41.040   6.062  1.00  0.00     0.090 C
HETATM    6  C12 UNL     1      18.300 -42.245   5.849  1.00  0.00     0.085 C
HETATM    7  C13 UNL     1      19.585 -42.188   6.567  1.00  0.00     0.015 A
HETATM    8  C14 UNL     1      20.436 -43.189   6.949  1.00  0.00     0.192 A
HETATM    9  O6  UNL     1      21.458 -42.636   7.566  1.00  0.00    -0.264 OA
HETATM   10  C15 UNL     1      21.337 -41.338   7.615  1.00  0.00     0.193 A
HETATM   11  C16 UNL     1      20.176 -41.013   6.999  1.00  0.00     0.019 A
HETATM   12  C17 UNL     1      19.411 -39.757   6.688  1.00  0.00     0.065 C
HETATM   13  C18 UNL     1      19.565 -39.489   5.207  1.00  0.00     0.057 C
HETATM   14  C19 UNL     1      20.551 -38.401   4.935  1.00  0.00     0.159 C
HETATM   15  C20 UNL     1      20.056 -37.327   4.011  1.00  0.00     0.202 C
HETATM   16  C21 UNL     1      17.968 -40.076   7.070  1.00  0.00     0.162 C
ENDROOT
BRANCH   1  17
HETATM   17  O2  UNL     1      18.294 -35.771   4.324  1.00  0.00    -0.335 OA
BRANCH  17  18
HETATM   18  C7  UNL     1      17.144 -35.358   3.633  1.00  0.00     0.341 C
BRANCH  18  19
HETATM   19  O1  UNL     1      17.308 -35.553   2.278  1.00  0.00    -0.367 OA
BRANCH  19  20
HETATM   20  C6  UNL     1      16.149 -35.921   1.670  1.00  0.00     0.170 C
BRANCH  20  21
HETATM   21  C5  UNL     1      15.318 -36.807   2.540  1.00  0.00     0.026 C
BRANCH  21  22
HETATM   22  C4  UNL     1      14.230 -37.441   1.730  1.00  0.00     0.002 C
BRANCH  22  23
HETATM   23  C3  UNL     1      12.982 -36.636   1.785  1.00  0.00    -0.000 C
BRANCH  23  24
HETATM   24  C2  UNL     1      12.786 -36.049   3.150  1.00  0.00    -0.005 C
HETATM   25  C1  UNL     1      11.343 -35.556   3.223  1.00  0.00     0.005 C
ENDBRANCH  23  24
ENDBRANCH  22  23
ENDBRANCH  21  22
ENDBRANCH  20  21
ENDBRANCH  19  20
ENDBRANCH  18  19
ENDBRANCH  17  18
ENDBRANCH   1  17
BRANCH  15  26
HETATM   26  O9  UNL     1      20.694 -36.096   4.297  1.00  0.00    -0.388 OA
ATOM     27  H9  UNL     1      21.603 -36.164   4.025  1.00  0.00     0.210 HD
ENDBRANCH  15  26
BRANCH  14  28
HETATM   28  O8  UNL     1      20.894 -37.790   6.141  1.00  0.00    -0.392 OA
ATOM     29  H8  UNL     1      21.827 -37.900   6.287  1.00  0.00     0.210 HD
ENDBRANCH  14  28
BRANCH   5  30
HETATM   30  O4  UNL     1      16.185 -41.482   6.501  1.00  0.00    -0.387 OA
ATOM     31  H4  UNL     1      15.606 -40.729   6.519  1.00  0.00     0.210 HD
ENDBRANCH   5  30
BRANCH  16  32
HETATM   32  O10 UNL     1      18.005 -40.597   8.362  1.00  0.00    -0.392 OA
ATOM     33  H10 UNL     1      17.792 -39.957   9.031  1.00  0.00     0.210 HD
ENDBRANCH  16  32
BRANCH  10  34
HETATM   34  O7  UNL     1      22.206 -40.399   8.181  1.00  0.00    -0.340 OA
ATOM     35  H7  UNL     1      22.040 -39.788   8.888  1.00  0.00     0.220 HD
ENDBRANCH  10  34
BRANCH   8  36
HETATM   36  O5  UNL     1      20.312 -44.564   6.757  1.00  0.00    -0.340 OA
ATOM     37  H5  UNL     1      20.161 -45.245   7.402  1.00  0.00     0.220 HD
ENDBRANCH   8  36
TORSDOF 14
ENDMDL