MODEL 1
REMARK VINA RESULT: -8.468916181      0.000      0.000
REMARK  15 active torsions:
REMARK  status: ('A' for Active; 'I' for Inactive)
REMARK    1  A    between atoms: O1_2  and  C2_3
REMARK    2  A    between atoms: C2_3  and  C3_4
REMARK    3  A    between atoms: C3_4  and  O2_5
REMARK    4  A    between atoms: O2_5  and  C4_6
REMARK    5  A    between atoms: C4_6  and  C5_7
REMARK    6  A    between atoms: C6_9  and  C7_10
REMARK    7  A    between atoms: C7_10  and  C8_11
REMARK    8  A    between atoms: C8_11  and  C9_12
REMARK    9  A    between atoms: C9_12  and  O4_13
REMARK   10  A    between atoms: C12_17  and  C13_18
REMARK   11  A    between atoms: C15_20  and  O5_21
REMARK   12  A    between atoms: C16_23  and  O6_24
REMARK   13  A    between atoms: C17_27  and  O7_28
REMARK   14  A    between atoms: C18_30  and  O8_31
REMARK   15  A    between atoms: C19_33  and  O9_34
ROOT
HETATM    1  C5  UNL     1      11.254 -35.956   1.119  1.00  0.00     0.177 C
HETATM    2  O3  UNL     1      12.549 -36.001   1.590  1.00  0.00    -0.373 OA
HETATM    3  C6  UNL     1      13.179 -37.213   1.352  1.00  0.00     0.153 C
HETATM    4  C17 UNL     1      13.458 -37.284  -0.136  1.00  0.00     0.178 C
HETATM    5  C18 UNL     1      12.267 -36.825  -0.949  1.00  0.00     0.180 C
HETATM    6  C19 UNL     1      11.057 -36.921  -0.061  1.00  0.00     0.180 C
ENDROOT
BRANCH   3   7
HETATM    7  C7  UNL     1      14.509 -37.318   2.060  1.00  0.00     0.037 C
BRANCH   7   8
HETATM    8  C8  UNL     1      15.501 -36.291   1.583  1.00  0.00     0.041 C
BRANCH   8   9
HETATM    9  C9  UNL     1      16.597 -36.023   2.562  1.00  0.00     0.066 C
HETATM   10  C10 UNL     1      16.676 -34.642   3.138  1.00  0.00     0.039 C
HETATM   11  C11 UNL     1      17.156 -35.284   4.428  1.00  0.00     0.016 C
HETATM   12  C12 UNL     1      16.419 -36.536   3.943  1.00  0.00     0.060 C
BRANCH   9  13
HETATM   13  O4  UNL     1      17.857 -36.403   2.065  1.00  0.00    -0.389 OA
ATOM     14  H4  UNL     1      18.566 -36.116   2.628  1.00  0.00     0.210 HD
ENDBRANCH   9  13
BRANCH  12  15
HETATM   15  C13 UNL     1      17.274 -37.722   4.283  1.00  0.00    -0.005 A
HETATM   16  C14 UNL     1      16.875 -39.032   4.358  1.00  0.00     0.055 A
HETATM   17  C15 UNL     1      17.813 -39.941   4.682  1.00  0.00     0.107 A
HETATM   18  C16 UNL     1      19.082 -39.481   4.909  1.00  0.00     0.141 A
HETATM   19  S1  UNL     1      18.929 -37.802   4.665  1.00  0.00    -0.067 SA
BRANCH  17  20
HETATM   20  O5  UNL     1      17.564 -41.334   4.800  1.00  0.00    -0.357 OA
ATOM     21  H5  UNL     1      17.656 -41.825   5.608  1.00  0.00     0.217 HD
ENDBRANCH  17  20
BRANCH  18  22
HETATM   22  O6  UNL     1      20.226 -40.234   5.260  1.00  0.00    -0.352 OA
ATOM     23  H6  UNL     1      20.834 -40.673   4.677  1.00  0.00     0.218 HD
ENDBRANCH  18  22
ENDBRANCH  12  15
ENDBRANCH   8   9
ENDBRANCH   7   8
ENDBRANCH   3   7
BRANCH   4  24
HETATM   24  O7  UNL     1      13.771 -38.590  -0.495  1.00  0.00    -0.390 OA
ATOM     25  H7  UNL     1      14.553 -38.597  -1.035  1.00  0.00     0.210 HD
ENDBRANCH   4  24
BRANCH   1  26
HETATM   26  C4  UNL     1      10.320 -36.468   2.190  1.00  0.00     0.202 C
BRANCH  26  27
HETATM   27  O2  UNL     1       9.580 -35.526   2.838  1.00  0.00    -0.386 OA
BRANCH  27  28
HETATM   28  C3  UNL     1       9.611 -35.655   4.215  1.00  0.00     0.193 C
BRANCH  28  29
HETATM   29  C2  UNL     1       9.589 -37.107   4.622  1.00  0.00     0.193 C
BRANCH  29  30
HETATM   30  O1  UNL     1       8.477 -37.482   5.338  1.00  0.00    -0.394 OA
HETATM   31  C1  UNL     1       7.336 -37.525   4.549  1.00  0.00     0.201 C
ENDBRANCH  29  30
ENDBRANCH  28  29
ENDBRANCH  27  28
ENDBRANCH  26  27
ENDBRANCH   1  26
BRANCH   5  32
HETATM   32  O8  UNL     1      12.521 -35.549  -1.388  1.00  0.00    -0.390 OA
ATOM     33  H8  UNL     1      11.799 -35.282  -1.945  1.00  0.00     0.210 HD
ENDBRANCH   5  32
BRANCH   6  34
HETATM   34  O9  UNL     1       9.959 -36.464  -0.775  1.00  0.00    -0.390 OA
ATOM     35  H9  UNL     1       9.194 -36.619  -0.233  1.00  0.00     0.210 HD
ENDBRANCH   6  34
TORSDOF 15
ENDMDL