MODEL 2
REMARK VINA RESULT: -8.388670415      3.593      7.127
REMARK  15 active torsions:
REMARK  status: ('A' for Active; 'I' for Inactive)
REMARK    1  A    between atoms: O1_2  and  C2_3
REMARK    2  A    between atoms: C4_5  and  O2_6
REMARK    3  A    between atoms: C4_5  and  O3_8
REMARK    4  A    between atoms: O3_8  and  C6_9
REMARK    5  A    between atoms: C6_9  and  C7_10
REMARK    6  A    between atoms: C7_10  and  C8_11
REMARK    7  A    between atoms: C9_12  and  C10_13
REMARK    8  A    between atoms: C10_13  and  C11_14
REMARK    9  A    between atoms: C11_14  and  C12_15
REMARK   10  A    between atoms: C14_17  and  O4_18
REMARK   11  A    between atoms: C16_21  and  O5_22
REMARK   12  A    between atoms: C17_24  and  O6_25
REMARK   13  A    between atoms: C19_29  and  O8_30
REMARK   14  A    between atoms: C20_32  and  O9_33
REMARK   15  A    between atoms: C21_35  and  O10_36
ROOT
HETATM    1  C6  UNL     1      15.224 -36.847   2.729  1.00  0.00     0.203 C
HETATM    2  O7  UNL     1      15.425 -35.510   2.358  1.00  0.00    -0.349 OA
HETATM    3  C18 UNL     1      16.131 -34.830   3.321  1.00  0.00     0.206 C
HETATM    4  C19 UNL     1      17.581 -35.266   3.178  1.00  0.00     0.173 C
HETATM    5  C20 UNL     1      17.700 -36.751   3.142  1.00  0.00     0.183 C
HETATM    6  C21 UNL     1      16.402 -37.478   3.337  1.00  0.00     0.212 C
ENDROOT
BRANCH   1   7
HETATM    7  O3  UNL     1      14.802 -37.477   1.512  1.00  0.00    -0.287 OA
BRANCH   7   8
HETATM    8  C4  UNL     1      14.519 -36.647   0.441  1.00  0.00     0.212 C
HETATM    9  C2  UNL     1      13.370 -36.760  -0.211  1.00  0.00     0.100 C
HETATM   10  C3  UNL     1      13.034 -35.883  -1.368  1.00  0.00     0.081 C
BRANCH   9  11
HETATM   11  O1  UNL     1      12.480 -37.720   0.210  1.00  0.00    -0.356 OA
HETATM   12  C1  UNL     1      11.079 -37.589   0.114  1.00  0.00     0.209 C
ENDBRANCH   9  11
BRANCH   8  13
HETATM   13  O2  UNL     1      15.401 -35.689   0.017  1.00  0.00    -0.334 OA
HETATM   14  C5  UNL     1      16.643 -35.940  -0.606  1.00  0.00     0.212 C
ENDBRANCH   8  13
ENDBRANCH   7   8
ENDBRANCH   1   7
BRANCH   1  15
HETATM   15  C7  UNL     1      13.990 -36.838   3.601  1.00  0.00     0.098 C
BRANCH  15  16
HETATM   16  C8  UNL     1      12.961 -35.872   3.176  1.00  0.00    -0.025 C
HETATM   17  C9  UNL     1      11.678 -36.133   3.368  1.00  0.00    -0.030 C
BRANCH  17  18
HETATM   18  C10 UNL     1      10.571 -35.229   2.977  1.00  0.00     0.027 C
BRANCH  18  19
HETATM   19  C11 UNL     1       9.274 -35.581   3.672  1.00  0.00     0.011 C
BRANCH  19  20
HETATM   20  C12 UNL     1       9.463 -36.476   4.871  1.00  0.00     0.019 C
HETATM   21  C13 UNL     1       8.999 -35.748   6.091  1.00  0.00     0.039 C
HETATM   22  C14 UNL     1       8.002 -36.566   6.897  1.00  0.00     0.121 C
HETATM   23  C15 UNL     1       6.818 -36.791   5.973  1.00  0.00     0.066 C
HETATM   24  C16 UNL     1       7.256 -37.682   4.862  1.00  0.00     0.149 C
HETATM   25  C17 UNL     1       8.716 -37.752   4.607  1.00  0.00     0.151 C
BRANCH  22  26
HETATM   26  O4  UNL     1       7.666 -35.885   8.043  1.00  0.00    -0.395 OA
ATOM     27  H4  UNL     1       8.049 -36.320   8.796  1.00  0.00     0.210 HD
ENDBRANCH  22  26
BRANCH  24  28
HETATM   28  O5  UNL     1       6.642 -37.184   3.690  1.00  0.00    -0.393 OA
ATOM     29  H5  UNL     1       6.150 -37.908   3.320  1.00  0.00     0.210 HD
ENDBRANCH  24  28
BRANCH  25  30
HETATM   30  O6  UNL     1       8.976 -38.239   3.329  1.00  0.00    -0.393 OA
ATOM     31  H6  UNL     1       8.592 -37.682   2.662  1.00  0.00     0.210 HD
ENDBRANCH  25  30
ENDBRANCH  19  20
ENDBRANCH  18  19
ENDBRANCH  17  18
ENDBRANCH  15  16
ENDBRANCH   1  15
BRANCH   6  32
HETATM   32  O10 UNL     1      16.206 -37.710   4.695  1.00  0.00    -0.387 OA
ATOM     33  H10 UNL     1      16.275 -38.634   4.899  1.00  0.00     0.210 HD
ENDBRANCH   6  32
BRANCH   5  34
HETATM   34  O9  UNL     1      18.556 -37.134   4.195  1.00  0.00    -0.390 OA
ATOM     35  H9  UNL     1      18.704 -38.069   4.117  1.00  0.00     0.210 HD
ENDBRANCH   5  34
BRANCH   4  36
HETATM   36  O8  UNL     1      18.296 -34.675   4.206  1.00  0.00    -0.391 OA
ATOM     37  H8  UNL     1      18.134 -33.739   4.165  1.00  0.00     0.210 HD
ENDBRANCH   4  36
TORSDOF 15
ENDMDL