MODEL 2
REMARK VINA RESULT: -8.647830731      0.961      2.269
REMARK  16 active torsions:
REMARK  status: ('A' for Active; 'I' for Inactive)
REMARK    1  A    between atoms: C2_2  and  C5_5
REMARK    2  A    between atoms: C5_5  and  C6_6
REMARK    3  A    between atoms: C6_6  and  C7_7
REMARK    4  A    between atoms: C9_9  and  O1_10
REMARK    5  A    between atoms: C10_13  and  O3_14
REMARK    6  A    between atoms: O3_14  and  C11_15
REMARK    7  A    between atoms: C11_15  and  C12_16
REMARK    8  A    between atoms: C12_16  and  C14_19
REMARK    9  A    between atoms: C14_19  and  O4_20
REMARK   10  A    between atoms: O4_20  and  C15_21
REMARK   11  A    between atoms: C16_22  and  O5_23
REMARK   12  A    between atoms: C17_25  and  O6_26
REMARK   13  A    between atoms: C18_28  and  O7_29
REMARK   14  A    between atoms: C20_32  and  O8_33
REMARK   15  A    between atoms: C20_32  and  C21_35
REMARK   16  A    between atoms: C21_35  and  O9_36
ROOT
HETATM    1  C12 UNL     1      18.461 -40.217   4.981  1.00  0.00     0.141 C
HETATM    2  C13 UNL     1      18.369 -41.332   5.948  1.00  0.00     0.068 C
HETATM    3  N1  UNL     1      18.316 -42.217   6.708  1.00  0.00    -0.197 NA
ENDROOT
BRANCH   1   4
HETATM    4  C11 UNL     1      17.105 -39.522   5.087  1.00  0.00     0.199 C
BRANCH   4   5
HETATM    5  O3  UNL     1      16.711 -38.910   3.899  1.00  0.00    -0.328 OA
BRANCH   5   6
HETATM    6  C10 UNL     1      16.690 -37.543   3.690  1.00  0.00     0.194 A
HETATM    7  C7  UNL     1      15.739 -36.778   3.048  1.00  0.00     0.005 A
HETATM    8  C8  UNL     1      16.159 -35.470   3.094  1.00  0.00     0.076 A
HETATM    9  C9  UNL     1      17.372 -35.491   3.774  1.00  0.00     0.186 A
HETATM   10  O2  UNL     1      17.617 -36.718   4.088  1.00  0.00    -0.264 OA
BRANCH   7  11
HETATM   11  C6  UNL     1      14.501 -37.299   2.462  1.00  0.00     0.044 C
BRANCH  11  12
HETATM   12  C5  UNL     1      13.739 -36.431   1.544  1.00  0.00     0.013 C
BRANCH  12  13
HETATM   13  C2  UNL     1      13.832 -36.641   0.091  1.00  0.00    -0.051 C
HETATM   14  C1  UNL     1      15.094 -36.310  -0.607  1.00  0.00     0.014 C
HETATM   15  C3  UNL     1      13.558 -38.144  -0.152  1.00  0.00     0.014 C
HETATM   16  C4  UNL     1      12.637 -35.950  -0.614  1.00  0.00     0.014 C
ENDBRANCH  12  13
ENDBRANCH  11  12
ENDBRANCH   7  11
BRANCH   9  17
HETATM   17  O1  UNL     1      18.194 -34.410   4.078  1.00  0.00    -0.341 OA
ATOM     18  H1  UNL     1      18.851 -34.355   4.763  1.00  0.00     0.220 HD
ENDBRANCH   9  17
ENDBRANCH   5   6
ENDBRANCH   4   5
ENDBRANCH   1   4
BRANCH   1  19
HETATM   19  C14 UNL     1      19.568 -39.313   5.450  1.00  0.00     0.189 C
BRANCH  19  20
HETATM   20  O4  UNL     1      20.530 -39.171   4.583  1.00  0.00    -0.379 OA
BRANCH  20  21
HETATM   21  C15 UNL     1      21.433 -38.164   4.515  1.00  0.00     0.189 C
HETATM   22  C16 UNL     1      21.272 -37.472   3.204  1.00  0.00     0.181 C
HETATM   23  C17 UNL     1      22.499 -37.227   2.394  1.00  0.00     0.178 C
HETATM   24  C18 UNL     1      23.801 -37.221   3.067  1.00  0.00     0.152 C
HETATM   25  C19 UNL     1      23.709 -37.337   4.567  1.00  0.00     0.077 C
HETATM   26  C20 UNL     1      22.835 -38.524   4.900  1.00  0.00     0.110 C
BRANCH  22  27
HETATM   27  O5  UNL     1      20.702 -36.215   3.438  1.00  0.00    -0.390 OA
ATOM     28  H5  UNL     1      20.159 -35.991   2.692  1.00  0.00     0.210 HD
ENDBRANCH  22  27
BRANCH  23  29
HETATM   29  O6  UNL     1      22.325 -36.050   1.629  1.00  0.00    -0.390 OA
ATOM     30  H6  UNL     1      22.174 -36.286   0.722  1.00  0.00     0.210 HD
ENDBRANCH  23  29
BRANCH  24  31
HETATM   31  O7  UNL     1      24.444 -36.005   2.812  1.00  0.00    -0.393 OA
ATOM     32  H7  UNL     1      25.380 -36.117   2.932  1.00  0.00     0.210 HD
ENDBRANCH  24  31
BRANCH  26  33
HETATM   33  O8  UNL     1      22.887 -38.617   6.294  1.00  0.00    -0.385 OA
ATOM     34  H8  UNL     1      23.539 -39.271   6.518  1.00  0.00     0.210 HD
ENDBRANCH  26  33
BRANCH  26  35
HETATM   35  C21 UNL     1      23.392 -39.735   4.228  1.00  0.00     0.204 C
BRANCH  35  36
HETATM   36  O9  UNL     1      22.815 -40.923   4.667  1.00  0.00    -0.398 OA
ATOM     37  H9  UNL     1      23.450 -41.607   4.843  1.00  0.00     0.209 HD
ENDBRANCH  35  36
ENDBRANCH  26  35
ENDBRANCH  20  21
ENDBRANCH  19  20
ENDBRANCH   1  19
TORSDOF 16
ENDMDL