MODEL 5
REMARK VINA RESULT: -8.620179533      2.729      9.775
REMARK  15 active torsions:
REMARK  status: ('A' for Active; 'I' for Inactive)
REMARK    1  A    between atoms: C2_2  and  C3_3
REMARK    2  A    between atoms: C3_3  and  C4_4
REMARK    3  A    between atoms: C4_4  and  C5_5
REMARK    4  A    between atoms: C5_5  and  C6_6
REMARK    5  A    between atoms: C6_6  and  C7_7
REMARK    6  A    between atoms: C7_7  and  O1_8
REMARK    7  A    between atoms: O1_8  and  C8_9
REMARK    8  A    between atoms: C10_11  and  O2_12
REMARK    9  A    between atoms: O2_12  and  C11_13
REMARK   10  A    between atoms: C12_15  and  O4_16
REMARK   11  A    between atoms: C13_18  and  O5_19
REMARK   12  A    between atoms: C14_21  and  O6_22
REMARK   13  A    between atoms: C15_24  and  O7_25
REMARK   14  A    between atoms: C16_28  and  O9_29
REMARK   15  A    between atoms: C19_33  and  O10_34
ROOT
HETATM    1  C11 UNL     1      16.214 -37.790   3.537  1.00  0.00     0.281 C
HETATM    2  O3  UNL     1      16.893 -38.989   3.820  1.00  0.00    -0.328 OA
HETATM    3  C12 UNL     1      17.646 -38.879   4.978  1.00  0.00     0.291 C
HETATM    4  C13 UNL     1      18.444 -37.624   5.097  1.00  0.00     0.213 C
HETATM    5  C14 UNL     1      18.549 -36.948   3.773  1.00  0.00     0.150 C
HETATM    6  C15 UNL     1      19.032 -35.497   3.955  1.00  0.00     0.297 C
HETATM    7  O8  UNL     1      17.937 -34.953   4.618  1.00  0.00    -0.328 OA
HETATM    8  C16 UNL     1      16.784 -35.441   4.021  1.00  0.00     0.272 C
HETATM    9  C17 UNL     1      17.157 -36.672   3.248  1.00  0.00     0.139 C
ENDROOT
BRANCH   1  10
HETATM   10  O2  UNL     1      15.347 -38.046   2.476  1.00  0.00    -0.320 OA
BRANCH  10  11
HETATM   11  C10 UNL     1      14.201 -37.388   2.136  1.00  0.00     0.077 A
HETATM   12  C9  UNL     1      13.877 -37.407   0.771  1.00  0.00     0.074 A
HETATM   13  C8  UNL     1      12.734 -36.772   0.302  1.00  0.00     0.080 A
HETATM   14  C20 UNL     1      11.949 -36.137   1.224  1.00  0.00     0.005 A
HETATM   15  C19 UNL     1      12.226 -36.090   2.581  1.00  0.00     0.077 A
HETATM   16  C21 UNL     1      10.716 -35.430   0.781  1.00  0.00     0.054 C
HETATM   17  C18 UNL     1      13.371 -36.732   3.008  1.00  0.00     0.074 A
BRANCH  13  18
HETATM   18  O1  UNL     1      12.396 -36.784  -1.048  1.00  0.00    -0.350 OA
BRANCH  18  19
HETATM   19  C7  UNL     1      12.945 -35.780  -1.871  1.00  0.00     0.175 C
BRANCH  19  20
HETATM   20  C6  UNL     1      11.858 -35.192  -2.793  1.00  0.00     0.027 C
BRANCH  20  21
HETATM   21  C5  UNL     1      12.438 -35.104  -4.140  1.00  0.00     0.002 C
BRANCH  21  22
HETATM   22  C4  UNL     1      11.717 -34.523  -5.268  1.00  0.00     0.000 C
BRANCH  22  23
HETATM   23  C3  UNL     1      10.311 -34.862  -5.542  1.00  0.00    -0.000 C
BRANCH  23  24
HETATM   24  C2  UNL     1      10.020 -35.247  -6.957  1.00  0.00    -0.005 C
HETATM   25  C1  UNL     1      11.102 -34.543  -7.810  1.00  0.00     0.005 C
ENDBRANCH  23  24
ENDBRANCH  22  23
ENDBRANCH  21  22
ENDBRANCH  20  21
ENDBRANCH  19  20
ENDBRANCH  18  19
ENDBRANCH  13  18
BRANCH  15  26
HETATM   26  O10 UNL     1      11.392 -35.427   3.475  1.00  0.00    -0.360 OA
ATOM     27  H10 UNL     1      10.453 -35.387   3.338  1.00  0.00     0.217 HD
ENDBRANCH  15  26
ENDBRANCH  10  11
ENDBRANCH   1  10
BRANCH   3  28
HETATM   28  O4  UNL     1      18.517 -39.968   5.012  1.00  0.00    -0.368 OA
ATOM     29  H4  UNL     1      19.391 -39.628   5.164  1.00  0.00     0.212 HD
ENDBRANCH   3  28
BRANCH   5  30
HETATM   30  O6  UNL     1      19.347 -37.632   2.889  1.00  0.00    -0.381 OA
ATOM     31  H6  UNL     1      19.167 -38.564   2.878  1.00  0.00     0.211 HD
ENDBRANCH   5  30
BRANCH   8  32
HETATM   32  O9  UNL     1      16.198 -34.464   3.214  1.00  0.00    -0.370 OA
ATOM     33  H9  UNL     1      15.631 -33.901   3.728  1.00  0.00     0.212 HD
ENDBRANCH   8  32
BRANCH   4  34
HETATM   34  O5  UNL     1      19.713 -37.937   5.592  1.00  0.00    -0.387 OA
ATOM     35  H5  UNL     1      20.206 -38.388   4.917  1.00  0.00     0.210 HD
ENDBRANCH   4  34
BRANCH   6  36
HETATM   36  O7  UNL     1      20.148 -35.458   4.787  1.00  0.00    -0.368 OA
ATOM     37  H7  UNL     1      20.647 -34.666   4.634  1.00  0.00     0.212 HD
ENDBRANCH   6  36
TORSDOF 15
ENDMDL