MODEL 4
REMARK VINA RESULT: -7.983388951      1.310      1.699
REMARK  14 active torsions:
REMARK  status: ('A' for Active; 'I' for Inactive)
REMARK    1  A    between atoms: C2_2  and  C3_3
REMARK    2  A    between atoms: C3_3  and  C4_4
REMARK    3  A    between atoms: C4_4  and  C5_5
REMARK    4  A    between atoms: C5_5  and  C6_6
REMARK    5  A    between atoms: C7_7  and  C8_8
REMARK    6  A    between atoms: C8_8  and  C9_9
REMARK    7  A    between atoms: C10_11  and  O2_12
REMARK    8  A    between atoms: O2_12  and  C11_13
REMARK    9  A    between atoms: C14_18  and  C15_19
REMARK   10  A    between atoms: C15_19  and  O5_20
REMARK   11  A    between atoms: C17_23  and  O6_24
REMARK   12  A    between atoms: C18_26  and  O7_27
REMARK   13  A    between atoms: C19_29  and  O8_30
REMARK   14  A    between atoms: N1_34  and  O9_36
ROOT
HETATM    1  C9  UNL     1      14.215 -36.969   1.230  1.00  0.00     0.175 C
HETATM    2  O1  UNL     1      14.438 -37.455   2.475  1.00  0.00    -0.347 OA
HETATM    3  C10 UNL     1      15.314 -36.749   3.289  1.00  0.00     0.292 C
HETATM    4  C19 UNL     1      15.512 -35.383   2.748  1.00  0.00     0.178 C
HETATM    5  C20 UNL     1      16.191 -35.405   1.393  1.00  0.00     0.093 C
HETATM    6  C21 UNL     1      15.352 -36.310   0.586  1.00  0.00     0.041 C
HETATM    7  N1  UNL     1      15.617 -36.507  -0.637  1.00  0.00    -0.275 N
ATOM      8  H1  UNL     1      15.020 -37.139  -1.172  1.00  0.00     0.193 HD
ENDROOT
BRANCH   3   9
HETATM    9  O2  UNL     1      16.430 -37.516   3.440  1.00  0.00    -0.326 OA
BRANCH   9  10
HETATM   10  C11 UNL     1      17.021 -37.512   4.681  1.00  0.00     0.294 C
HETATM   11  O3  UNL     1      17.835 -36.397   4.703  1.00  0.00    -0.350 OA
HETATM   12  C12 UNL     1      19.006 -36.446   4.049  1.00  0.00     0.157 C
HETATM   13  C13 UNL     1      20.115 -35.620   4.640  1.00  0.00     0.200 C
HETATM   14  C16 UNL     1      19.643 -37.799   3.866  1.00  0.00     0.079 C
HETATM   15  O4  UNL     1      21.192 -36.504   4.869  1.00  0.00    -0.381 OA
HETATM   16  C14 UNL     1      21.095 -37.455   3.854  1.00  0.00     0.154 C
HETATM   17  C17 UNL     1      19.208 -38.713   4.960  1.00  0.00     0.161 C
HETATM   18  C18 UNL     1      17.700 -38.790   5.056  1.00  0.00     0.202 C
BRANCH  16  19
HETATM   19  C15 UNL     1      22.041 -38.580   4.070  1.00  0.00     0.196 C
BRANCH  19  20
HETATM   20  O5  UNL     1      22.766 -38.927   2.948  1.00  0.00    -0.398 OA
ATOM     21  H5  UNL     1      22.233 -39.108   2.182  1.00  0.00     0.209 HD
ENDBRANCH  19  20
ENDBRANCH  16  19
BRANCH  17  22
HETATM   22  O6  UNL     1      19.776 -39.982   4.871  1.00  0.00    -0.392 OA
ATOM     23  H6  UNL     1      19.704 -40.480   5.676  1.00  0.00     0.210 HD
ENDBRANCH  17  22
BRANCH  18  24
HETATM   24  O7  UNL     1      17.313 -39.856   4.216  1.00  0.00    -0.388 OA
ATOM     25  H7  UNL     1      16.575 -40.337   4.573  1.00  0.00     0.210 HD
ENDBRANCH  18  24
ENDBRANCH   9  10
ENDBRANCH   3   9
BRANCH   4  26
HETATM   26  O8  UNL     1      16.126 -34.502   3.628  1.00  0.00    -0.390 OA
ATOM     27  H8  UNL     1      16.890 -34.064   3.274  1.00  0.00     0.210 HD
ENDBRANCH   4  26
BRANCH   1  28
HETATM   28  C8  UNL     1      13.767 -38.126   0.330  1.00  0.00     0.065 C
BRANCH  28  29
HETATM   29  C7  UNL     1      12.397 -37.903  -0.175  1.00  0.00    -0.028 C
HETATM   30  C6  UNL     1      11.795 -36.733  -0.015  1.00  0.00    -0.031 C
BRANCH  30  31
HETATM   31  C5  UNL     1      10.426 -36.460  -0.501  1.00  0.00     0.027 C
BRANCH  31  32
HETATM   32  C4  UNL     1      10.344 -35.274  -1.420  1.00  0.00     0.004 C
BRANCH  32  33
HETATM   33  C3  UNL     1      11.452 -35.192  -2.425  1.00  0.00    -0.000 C
BRANCH  33  34
HETATM   34  C2  UNL     1      10.932 -34.732  -3.781  1.00  0.00    -0.005 C
HETATM   35  C1  UNL     1      12.040 -34.665  -4.788  1.00  0.00     0.005 C
ENDBRANCH  33  34
ENDBRANCH  32  33
ENDBRANCH  31  32
ENDBRANCH  30  31
ENDBRANCH  28  29
ENDBRANCH   1  28
BRANCH   7  36
HETATM   36  O9  UNL     1      16.689 -35.896  -1.277  1.00  0.00    -0.290 OA
ATOM     37  H9  UNL     1      17.132 -36.290  -2.019  1.00  0.00     0.244 HD
ENDBRANCH   7  36
TORSDOF 14
ENDMDL