MODEL 5
REMARK VINA RESULT: -9.658644530      4.032      9.585
REMARK  13 active torsions:
REMARK  status: ('A' for Active; 'I' for Inactive)
REMARK    1  A    between atoms: N1_1  and  C1_4
REMARK    2  A    between atoms: C2_7  and  N3_8
REMARK    3  A    between atoms: N3_8  and  C3_10
REMARK    4  A    between atoms: C5_14  and  O1_15
REMARK    5  A    between atoms: N7_20  and  C7_21
REMARK    6  A    between atoms: C7_21  and  C8_22
REMARK    7  A    between atoms: C8_22  and  C9_23
REMARK    8  A    between atoms: C9_23  and  C10_24
REMARK    9  A    between atoms: C10_24  and  C11_25
REMARK   10  A    between atoms: C11_25  and  C12_26
REMARK   11  A    between atoms: C12_26  and  C13_27
REMARK   12  A    between atoms: C13_27  and  S1_28
REMARK   13  A    between atoms: S1_28  and  C14_29
ROOT
HETATM    1  C1  UNL     1      17.951 -35.923   3.816  1.00  0.00     0.693 A
HETATM    2  N2  UNL     1      19.323 -35.976   3.907  1.00  0.00    -0.022 N
ATOM      3  H2  UNL     1      19.847 -35.124   3.707  1.00  0.00     0.203 HD
HETATM    4  C2  UNL     1      20.006 -37.063   4.239  1.00  0.00     0.695 A
HETATM    5  N6  UNL     1      19.315 -38.189   4.502  1.00  0.00    -0.187 N
ATOM      6  H6  UNL     1      19.806 -39.046   4.759  1.00  0.00     0.185 HD
HETATM    7  C6  UNL     1      17.986 -38.173   4.425  1.00  0.00     0.218 A
HETATM    8  N7  UNL     1      17.279 -37.044   4.081  1.00  0.00    -0.179 N
ENDROOT
BRANCH   8   9
HETATM    9  C7  UNL     1      15.846 -37.087   4.064  1.00  0.00     0.148 C
BRANCH   9  10
HETATM   10  C8  UNL     1      15.245 -37.738   2.852  1.00  0.00     0.021 C
BRANCH  10  11
HETATM   11  C9  UNL     1      14.236 -36.881   2.158  1.00  0.00     0.002 C
BRANCH  11  12
HETATM   12  C10 UNL     1      14.904 -36.321   0.910  1.00  0.00     0.000 C
BRANCH  12  13
HETATM   13  C11 UNL     1      14.370 -36.980  -0.352  1.00  0.00     0.001 C
BRANCH  13  14
HETATM   14  C12 UNL     1      13.698 -36.033  -1.256  1.00  0.00     0.010 C
BRANCH  14  15
HETATM   15  C13 UNL     1      12.221 -35.932  -1.270  1.00  0.00     0.082 C
BRANCH  15  16
HETATM   16  S1  UNL     1      11.241 -37.033  -0.365  1.00  0.00    -0.095 SA
BRANCH  16  17
HETATM   17  C14 UNL     1      10.565 -36.652   1.193  1.00  0.00     0.136 C
HETATM   18  N8  UNL     1       9.672 -37.503   1.720  1.00  0.00    -0.364 N
HETATM   19  C15 UNL     1       9.236 -37.034   2.978  1.00  0.00     0.106 C
ATOM     20  H8  UNL     1       9.354 -38.365   1.276  1.00  0.00     0.162 HD
HETATM   21  C16 UNL     1       9.032 -38.093   4.017  1.00  0.00     0.027 C
HETATM   22  C20 UNL     1      10.458 -36.214   3.422  1.00  0.00     0.106 C
HETATM   23  C17 UNL     1       9.506 -37.538   5.348  1.00  0.00     0.002 C
HETATM   24  C18 UNL     1       9.183 -36.059   5.478  1.00  0.00     0.002 C
HETATM   25  C19 UNL     1       9.987 -35.250   4.453  1.00  0.00     0.027 C
HETATM   26  N9  UNL     1      10.726 -35.590   2.124  1.00  0.00    -0.364 N
ATOM     27  H9  UNL     1      10.971 -34.619   1.933  1.00  0.00     0.162 HD
ENDBRANCH  16  17
ENDBRANCH  15  16
ENDBRANCH  14  15
ENDBRANCH  13  14
ENDBRANCH  12  13
ENDBRANCH  11  12
ENDBRANCH  10  11
ENDBRANCH   9  10
ENDBRANCH   8   9
BRANCH   1  28
HETATM   28  N1  UNL     1      17.428 -34.809   3.454  1.00  0.00    -0.234 N
ATOM     29  H12 UNL     1      16.616 -34.367   3.886  1.00  0.00     0.174 HD
ATOM     30  H11 UNL     1      17.843 -34.336   2.652  1.00  0.00     0.174 HD
ENDBRANCH   1  28
BRANCH   4  31
HETATM   31  N3  UNL     1      21.296 -37.088   4.317  1.00  0.00    -0.203 N
ATOM     32  H3  UNL     1      21.735 -37.309   5.211  1.00  0.00     0.179 HD
BRANCH  31  33
HETATM   33  C3  UNL     1      22.126 -36.816   3.183  1.00  0.00     0.239 C
HETATM   34  N4  UNL     1      21.616 -37.531   2.049  1.00  0.00    -0.120 NA
HETATM   35  N5  UNL     1      22.487 -38.533   1.701  1.00  0.00    -0.144 NA
HETATM   36  C4  UNL     1      23.444 -38.707   2.762  1.00  0.00     0.165 C
HETATM   37  C5  UNL     1      23.540 -37.330   3.386  1.00  0.00     0.174 C
BRANCH  37  38
HETATM   38  O1  UNL     1      24.486 -36.579   2.726  1.00  0.00    -0.391 OA
ATOM     39  H1  UNL     1      25.240 -37.088   2.452  1.00  0.00     0.210 HD
ENDBRANCH  37  38
ENDBRANCH  31  33
ENDBRANCH   4  31
TORSDOF 13
ENDMDL