MODEL 1
REMARK VINA RESULT: -8.225475165      0.000      0.000
REMARK  13 active torsions:
REMARK  status: ('A' for Active; 'I' for Inactive)
REMARK    1  A    between atoms: N3_8  and  C4_9
REMARK    2  A    between atoms: C6_11  and  C7_12
REMARK    3  A    between atoms: C7_12  and  S2_13
REMARK    4  A    between atoms: S2_13  and  C8_14
REMARK    5  A    between atoms: C8_14  and  C9_15
REMARK    6  A    between atoms: C9_15  and  C10_16
REMARK    7  A    between atoms: C10_16  and  C11_17
REMARK    8  A    between atoms: C11_17  and  S3_18
REMARK    9  A    between atoms: S3_18  and  C12_19
REMARK   10  A    between atoms: C13_21  and  C14_22
REMARK   11  A    between atoms: C14_22  and  O2_23
REMARK   12  A    between atoms: C15_25  and  O3_26
REMARK   13  A    between atoms: C16_28  and  O4_29
ROOT
HETATM    1  C9  UNL     1      16.527 -38.520   3.936  1.00  0.00     0.011 C
ENDROOT
BRANCH   1   2
HETATM    2  C8  UNL     1      16.419 -37.107   4.475  1.00  0.00     0.074 C
BRANCH   2   3
HETATM    3  S2  UNL     1      15.753 -35.953   3.278  1.00  0.00    -0.167 SA
BRANCH   3   4
HETATM    4  C7  UNL     1      13.974 -36.023   3.082  1.00  0.00     0.106 C
BRANCH   4   5
HETATM    5  C6  UNL     1      13.551 -36.298   1.681  1.00  0.00     0.137 C
HETATM    6  C5  UNL     1      13.884 -37.684   1.162  1.00  0.00     0.087 C
HETATM    7  C4  UNL     1      12.648 -37.402   0.377  1.00  0.00     0.234 C
HETATM    8  O5  UNL     1      12.212 -36.598   1.458  1.00  0.00    -0.360 OA
BRANCH   7   9
HETATM    9  N3  UNL     1      12.750 -36.592  -0.795  1.00  0.00    -0.283 N
HETATM   10  C1  UNL     1      13.833 -36.323  -1.530  1.00  0.00     0.138 A
HETATM   11  N1  UNL     1      15.150 -36.758  -1.355  1.00  0.00    -0.081 NA
HETATM   12  C2  UNL     1      13.415 -35.486  -2.565  1.00  0.00     0.136 A
HETATM   13  N2  UNL     1      12.101 -35.280  -2.422  1.00  0.00    -0.340 N
HETATM   14  C3  UNL     1      11.686 -35.944  -1.353  1.00  0.00     0.181 A
ATOM     15  H2  UNL     1      11.517 -34.708  -3.033  1.00  0.00     0.167 HD
HETATM   16  S1  UNL     1      10.139 -35.976  -0.800  1.00  0.00    -0.040 SA
ENDBRANCH   7   9
ENDBRANCH   4   5
ENDBRANCH   3   4
ENDBRANCH   2   3
ENDBRANCH   1   2
BRANCH   1  17
HETATM   17  C10 UNL     1      17.836 -39.080   4.474  1.00  0.00     0.011 C
BRANCH  17  18
HETATM   18  C11 UNL     1      18.854 -37.995   4.681  1.00  0.00     0.076 C
BRANCH  18  19
HETATM   19  S3  UNL     1      20.457 -38.770   5.001  1.00  0.00    -0.135 SA
BRANCH  19  20
HETATM   20  C12 UNL     1      21.817 -37.563   4.942  1.00  0.00     0.214 C
HETATM   21  O1  UNL     1      21.354 -36.295   5.079  1.00  0.00    -0.363 OA
HETATM   22  C13 UNL     1      22.100 -35.465   4.288  1.00  0.00     0.178 C
HETATM   23  C15 UNL     1      23.012 -36.268   3.413  1.00  0.00     0.181 C
HETATM   24  C16 UNL     1      22.532 -37.668   3.626  1.00  0.00     0.188 C
BRANCH  22  25
HETATM   25  C14 UNL     1      22.928 -34.465   5.107  1.00  0.00     0.198 C
BRANCH  25  26
HETATM   26  O2  UNL     1      22.049 -33.677   5.843  1.00  0.00    -0.398 OA
ATOM     27  H2  UNL     1      22.068 -32.798   5.482  1.00  0.00     0.209 HD
ENDBRANCH  25  26
ENDBRANCH  22  25
BRANCH  23  28
HETATM   28  O3  UNL     1      22.867 -35.885   2.080  1.00  0.00    -0.390 OA
ATOM     29  H3  UNL     1      23.650 -36.098   1.587  1.00  0.00     0.210 HD
ENDBRANCH  23  28
BRANCH  24  30
HETATM   30  O4  UNL     1      21.663 -38.133   2.659  1.00  0.00    -0.389 OA
ATOM     31  H4  UNL     1      20.986 -37.486   2.497  1.00  0.00     0.210 HD
ENDBRANCH  24  30
ENDBRANCH  19  20
ENDBRANCH  18  19
ENDBRANCH  17  18
ENDBRANCH   1  17
TORSDOF 13
ENDMDL