MODEL 3
REMARK VINA RESULT: -8.014966590      3.789      8.111
REMARK  6 active torsions:
REMARK  status: ('A' for Active; 'I' for Inactive)
REMARK    1  A    between atoms: C2_2  and  N1_4
REMARK       I    between atoms: N1_4  and  C4_5
REMARK    2  A    between atoms: N1_4  and  C15_26
REMARK       I    between atoms: C4_5  and  N2_7
REMARK    3  A    between atoms: N2_7  and  C5_9
REMARK    4  A    between atoms: C5_9  and  C6_10
REMARK    5  A    between atoms: C9_15  and  O4_16
REMARK    6  A    between atoms: O4_16  and  C10_17
ROOT
HETATM    1  C6  UNL     1      -3.134   0.903  11.673  1.00  0.00     0.036 C
HETATM    2  C7  UNL     1      -1.768   0.627  11.217  1.00  0.00     0.178 C
HETATM    3  O2  UNL     1      -1.543   1.674  10.268  1.00  0.00    -0.360 OA
HETATM    4  C8  UNL     1      -2.045   2.812  10.887  1.00  0.00     0.267 C
HETATM    5  O3  UNL     1      -2.709   3.568   9.972  1.00  0.00    -0.331 OA
HETATM    6  C9  UNL     1      -4.061   3.248  10.021  1.00  0.00     0.273 C
HETATM    7  C13 UNL     1      -4.322   3.100  11.506  1.00  0.00     0.071 C
HETATM    8  C14 UNL     1      -3.031   2.430  11.930  1.00  0.00     0.053 C
ENDROOT
BRANCH   1   9
HETATM    9  C5  UNL     1      -3.568   0.320  12.941  1.00  0.00     0.131 C
BRANCH   9  10
HETATM   10  N2  UNL     1      -4.062   1.143  13.982  1.00  0.00    -0.343 N
HETATM   11  C4  UNL     1      -4.640   0.761  15.180  1.00  0.00     0.319 C
HETATM   12  N1  UNL     1      -5.111   1.750  16.108  1.00  0.00    -0.326 N
HETATM   13  O1  UNL     1      -4.792  -0.440  15.537  1.00  0.00    -0.247 OA
ATOM     14  H2  UNL     1      -3.980   2.148  13.829  1.00  0.00     0.164 HD
BRANCH  12  15
HETATM   15  C2  UNL     1      -5.035   3.168  15.894  1.00  0.00     0.081 C
HETATM   16  C1  UNL     1      -6.104   3.722  14.999  1.00  0.00     0.032 C
HETATM   17  C3  UNL     1      -3.685   3.658  15.441  1.00  0.00     0.032 C
ENDBRANCH  12  15
BRANCH  12  18
HETATM   18  C15 UNL     1      -5.707   1.266  17.350  1.00  0.00     0.081 C
HETATM   19  C16 UNL     1      -7.131   0.820  17.047  1.00  0.00     0.032 C
HETATM   20  C17 UNL     1      -5.743   2.366  18.376  1.00  0.00     0.032 C
ENDBRANCH  12  18
ENDBRANCH   9  10
ENDBRANCH   1   9
BRANCH   6  21
HETATM   21  O4  UNL     1      -4.745   4.350   9.468  1.00  0.00    -0.284 OA
BRANCH  21  22
HETATM   22  C10 UNL     1      -4.148   5.034   8.422  1.00  0.00     0.273 A
HETATM   23  N3  UNL     1      -3.573   6.260   8.534  1.00  0.00    -0.291 N
HETATM   24  C11 UNL     1      -3.089   6.638   7.335  1.00  0.00     0.214 A
ATOM     25  H3  UNL     1      -3.516   6.809   9.391  1.00  0.00     0.172 HD
HETATM   26  F1  UNL     1      -2.441   7.774   6.980  1.00  0.00    -0.184 F
HETATM   27  C12 UNL     1      -3.391   5.596   6.484  1.00  0.00     0.207 A
HETATM   28  O5  UNL     1      -4.014   4.672   7.164  1.00  0.00    -0.281 OA
ENDBRANCH  21  22
ENDBRANCH   6  21
TORSDOF 6
ENDMDL