MODEL 4
REMARK VINA RESULT: -7.063295441      3.085      4.854
REMARK  8 active torsions:
REMARK  status: ('A' for Active; 'I' for Inactive)
REMARK    1  A    between atoms: C2_2  and  N1_3
REMARK    2  A    between atoms: N1_3  and  C3_4
REMARK       I    between atoms: N1_3  and  C9_12
REMARK    3  A    between atoms: C3_4  and  C4_5
REMARK    4  A    between atoms: C4_5  and  O2_7
REMARK    5  A    between atoms: O2_7  and  C5_8
REMARK       I    between atoms: C9_12  and  N3_16
REMARK    6  A    between atoms: N3_16  and  C10_18
REMARK    7  A    between atoms: C15_23  and  O3_24
REMARK    8  A    between atoms: O3_24  and  C16_25
ROOT
HETATM    1  N1  UNL     1      -3.937   3.963  13.514  1.00  0.00    -0.208 N
HETATM    2  C9  UNL     1      -3.838   5.091  12.660  1.00  0.00     0.687 C
HETATM    3  N2  UNL     1      -2.786   5.811  12.677  1.00  0.00    -0.131 N
ATOM      4  H2  UNL     1      -2.709   6.624  12.066  1.00  0.00     0.199 HD
HETATM    5 CL1  UNL     1      -1.491   5.397  13.747  1.00  0.00     0.026 Cl
HETATM    6  N3  UNL     1      -4.882   5.450  11.765  1.00  0.00    -0.218 N
ATOM      7  H3  UNL     1      -5.442   4.680  11.398  1.00  0.00     0.178 HD
ENDROOT
BRANCH   1   8
HETATM    8  C2  UNL     1      -4.520   4.116  14.841  1.00  0.00     0.137 C
HETATM    9  C1  UNL     1      -5.861   4.768  14.840  1.00  0.00     0.027 C
ENDBRANCH   1   8
BRANCH   1  10
HETATM   10  C3  UNL     1      -3.462   2.683  13.036  1.00  0.00     0.252 C
BRANCH  10  11
HETATM   11  C4  UNL     1      -4.481   1.859  12.407  1.00  0.00     0.278 C
HETATM   12  O1  UNL     1      -5.485   2.379  11.881  1.00  0.00    -0.263 OA
BRANCH  11  13
HETATM   13  O2  UNL     1      -4.345   0.488  12.386  1.00  0.00    -0.310 OA
BRANCH  13  14
HETATM   14  C5  UNL     1      -3.748  -0.220  11.318  1.00  0.00     0.060 C
HETATM   15  C6  UNL     1      -2.321   0.264  11.139  1.00  0.00     0.045 C
HETATM   16  C7  UNL     1      -3.675  -1.677  11.707  1.00  0.00     0.045 C
HETATM   17  C8  UNL     1      -4.562  -0.106  10.069  1.00  0.00     0.045 C
ENDBRANCH  13  14
ENDBRANCH  11  13
ENDBRANCH  10  11
ENDBRANCH   1  10
BRANCH   6  18
HETATM   18  C10 UNL     1      -5.239   6.738  11.322  1.00  0.00     0.129 C
HETATM   19  C11 UNL     1      -6.742   6.986  11.314  1.00  0.00     0.028 C
HETATM   20  C12 UNL     1      -6.899   8.512  11.356  1.00  0.00     0.002 C
HETATM   21  C13 UNL     1      -6.166   9.183  10.236  1.00  0.00     0.003 C
HETATM   22  C14 UNL     1      -4.749   8.742  10.058  1.00  0.00     0.035 C
HETATM   23  C15 UNL     1      -4.689   7.199  10.018  1.00  0.00     0.155 C
BRANCH  23  24
HETATM   24  O3  UNL     1      -5.560   6.841   8.964  1.00  0.00    -0.314 OA
BRANCH  24  25
HETATM   25  C16 UNL     1      -5.375   5.725   8.158  1.00  0.00     0.255 C
HETATM   26  C17 UNL     1      -5.420   5.831   6.660  1.00  0.00     0.126 C
HETATM   27  O4  UNL     1      -5.169   4.630   8.735  1.00  0.00    -0.266 OA
ENDBRANCH  24  25
ENDBRANCH  23  24
ENDBRANCH   6  18
TORSDOF 8
ENDMDL