MODEL 5
REMARK VINA RESULT: -8.300791295      2.273      3.562
REMARK  4 active torsions:
REMARK  status: ('A' for Active; 'I' for Inactive)
REMARK    1  A    between atoms: C4_5  and  O1_6
REMARK    2  A    between atoms: O1_6  and  C5_7
REMARK    3  A    between atoms: C5_7  and  C6_8
REMARK    4  A    between atoms: C8_10  and  N1_11
ROOT
HETATM    1  N1  UNL     1      -3.477   5.667   9.798  1.00  0.00    -0.341 N
HETATM    2  C9  UNL     1      -4.007   5.706   8.495  1.00  0.00     0.140 C
HETATM    3  C10 UNL     1      -5.374   6.099   8.277  1.00  0.00     0.118 A
HETATM    4  C11 UNL     1      -5.862   7.381   8.303  1.00  0.00     0.043 A
HETATM    5  C12 UNL     1      -7.237   7.324   8.043  1.00  0.00     0.027 A
HETATM    6  C13 UNL     1      -7.484   5.963   7.873  1.00  0.00     0.142 A
HETATM    7  O2  UNL     1      -6.366   5.290   8.019  1.00  0.00    -0.319 OA
HETATM    8  N2  UNL     1      -3.227   5.357   7.503  1.00  0.00    -0.341 N
ATOM      9  H2  UNL     1      -3.565   5.369   6.541  1.00  0.00     0.167 HD
HETATM   10  C14 UNL     1      -1.884   4.956   7.808  1.00  0.00     0.156 C
HETATM   11  N3  UNL     1      -1.258   5.572   8.917  1.00  0.00    -0.231 NA
HETATM   12  C15 UNL     1      -0.338   6.613   8.562  1.00  0.00     0.331 C
HETATM   13  N4  UNL     1      -1.149   7.810   8.628  1.00  0.00    -0.060 N
ATOM     14  H41 UNL     1      -1.689   8.008   7.785  1.00  0.00     0.278 HD
ATOM     15  H42 UNL     1      -0.624   8.684   8.618  1.00  0.00     0.278 HD
HETATM   16  C16 UNL     1      -1.953   7.584   9.838  1.00  0.00     0.275 C
HETATM   17  C17 UNL     1      -2.073   6.098   9.942  1.00  0.00     0.194 C
ENDROOT
BRANCH   1  18
HETATM   18  C8  UNL     1      -4.256   5.236  10.900  1.00  0.00     0.088 C
HETATM   19  C7  UNL     1      -4.566   6.214  12.003  1.00  0.00     0.032 C
HETATM   20  C6  UNL     1      -4.597   4.973  12.925  1.00  0.00     0.014 C
HETATM   21  C18 UNL     1      -3.494   4.443  11.975  1.00  0.00     0.032 C
BRANCH  20  22
HETATM   22  C5  UNL     1      -4.107   5.241  14.304  1.00  0.00     0.180 C
BRANCH  22  23
HETATM   23  O1  UNL     1      -4.936   4.751  15.265  1.00  0.00    -0.351 OA
BRANCH  23  24
HETATM   24  C4  UNL     1      -5.108   3.563  15.872  1.00  0.00     0.069 A
HETATM   25  C3  UNL     1      -4.300   2.481  15.644  1.00  0.00     0.040 A
HETATM   26  C2  UNL     1      -4.482   1.262  16.273  1.00  0.00     0.045 A
HETATM   27  C1  UNL     1      -5.523   1.145  17.164  1.00  0.00     0.116 A
HETATM   28  F1  UNL     1      -5.702  -0.050  17.781  1.00  0.00    -0.206 F
HETATM   29  C20 UNL     1      -6.372   2.192  17.437  1.00  0.00     0.045 A
HETATM   30  C19 UNL     1      -6.154   3.382  16.791  1.00  0.00     0.040 A
ENDBRANCH  23  24
ENDBRANCH  22  23
ENDBRANCH  20  22
ENDBRANCH   1  18
TORSDOF 4
ENDMDL