MODEL 4
REMARK VINA RESULT: -8.044356374      3.496      4.969
REMARK  7 active torsions:
REMARK  status: ('A' for Active; 'I' for Inactive)
REMARK    1  A    between atoms: C2_2  and  C3_3
REMARK    2  A    between atoms: C2_2  and  C16_21
REMARK    3  A    between atoms: C3_3  and  C4_4
REMARK    4  A    between atoms: C7_8  and  N1_9
REMARK    5  A    between atoms: C16_21  and  O3_22
REMARK    6  A    between atoms: C16_21  and  O4_24
REMARK    7  A    between atoms: O4_24  and  C17_25
ROOT
HETATM    1  C4  UNL     1      -3.139   3.150  12.475  1.00  0.00    -0.014 C
HETATM    2  C5  UNL     1      -2.286   4.184  12.729  1.00  0.00     0.025 C
HETATM    3  C6  UNL     1      -1.378   4.604  11.657  1.00  0.00     0.242 C
HETATM    4  F1  UNL     1      -0.385   5.389  12.206  1.00  0.00    -0.241 F
HETATM    5  C7  UNL     1      -0.833   3.390  10.946  1.00  0.00     0.270 C
HETATM    6  O2  UNL     1      -1.758   2.511  10.571  1.00  0.00    -0.333 OA
HETATM    7  C13 UNL     1      -3.010   2.533  11.177  1.00  0.00     0.175 C
HETATM    8  C14 UNL     1      -3.469   1.099  11.179  1.00  0.00     0.068 C
HETATM    9  C15 UNL     1      -3.851   3.265  10.203  1.00  0.00     0.102 C
HETATM   10  N2  UNL     1      -4.534   3.842   9.444  1.00  0.00    -0.194 NA
ENDROOT
BRANCH   1  11
HETATM   11  C3  UNL     1      -4.021   2.757  13.560  1.00  0.00    -0.007 C
BRANCH  11  12
HETATM   12  C2  UNL     1      -3.938   3.225  14.946  1.00  0.00     0.060 C
HETATM   13  C1  UNL     1      -4.717   4.378  15.441  1.00  0.00     0.019 C
BRANCH  12  14
HETATM   14  C16 UNL     1      -4.256   2.050  15.903  1.00  0.00     0.265 C
BRANCH  14  15
HETATM   15  O3  UNL     1      -2.947   1.516  16.190  1.00  0.00    -0.371 OA
ATOM     16  H3  UNL     1      -2.428   1.839  15.462  1.00  0.00     0.212 HD
ENDBRANCH  14  15
BRANCH  14  17
HETATM   17  O4  UNL     1      -4.842   2.486  17.034  1.00  0.00    -0.351 OA
BRANCH  17  18
HETATM   18  C17 UNL     1      -5.948   1.788  17.484  1.00  0.00     0.053 C
HETATM   19  C18 UNL     1      -5.712   0.280  17.395  1.00  0.00     0.045 C
HETATM   20  C19 UNL     1      -6.139   2.118  18.949  1.00  0.00     0.045 C
HETATM   21  C20 UNL     1      -7.232   2.046  16.776  1.00  0.00     0.045 C
ENDBRANCH  17  18
ENDBRANCH  14  17
ENDBRANCH  12  14
ENDBRANCH  11  12
ENDBRANCH   1  11
BRANCH   5  22
HETATM   22  N1  UNL     1       0.122   3.676   9.931  1.00  0.00    -0.294 N
HETATM   23  C8  UNL     1      -0.246   3.797   8.616  1.00  0.00     0.097 A
HETATM   24  C9  UNL     1       0.598   4.068   7.592  1.00  0.00     0.018 A
HETATM   25  C10 UNL     1       1.931   4.245   7.823  1.00  0.00     0.007 A
HETATM   26  C11 UNL     1       2.353   4.135   9.125  1.00  0.00     0.074 A
HETATM   27  C12 UNL     1       1.436   3.854  10.144  1.00  0.00     0.249 A
HETATM   28  O1  UNL     1       1.945   3.779  11.282  1.00  0.00    -0.268 OA
ENDBRANCH   5  22
TORSDOF 7
ENDMDL