MODEL 4
REMARK VINA RESULT: -7.214505339      2.257      5.593
REMARK  7 active torsions:
REMARK  status: ('A' for Active; 'I' for Inactive)
REMARK    1  A    between atoms: C2_2  and  C3_3
REMARK    2  A    between atoms: C3_3  and  C5_5
REMARK    3  A    between atoms: C7_7  and  N1_8
REMARK    4  A    between atoms: N3_17  and  C15_18
REMARK    5  A    between atoms: C15_18  and  C16_19
REMARK    6  A    between atoms: C16_19  and  N4_20
REMARK    7  A    between atoms: C16_19  and  C17_24
ROOT
HETATM    1  C5  UNL     1      -3.815   4.047  14.266  1.00  0.00     0.089 C
HETATM    2  C6  UNL     1      -3.438   5.476  14.570  1.00  0.00     0.061 C
HETATM    3  C7  UNL     1      -3.070   6.331  13.423  1.00  0.00     0.226 C
HETATM    4  C13 UNL     1      -3.568   5.859  12.100  1.00  0.00     0.055 C
HETATM    5  C14 UNL     1      -4.791   5.043  12.292  1.00  0.00     0.124 C
HETATM    6  N3  UNL     1      -4.585   3.892  13.113  1.00  0.00    -0.386 N
ENDROOT
BRANCH   6   7
HETATM    7  C15 UNL     1      -4.892   2.659  12.555  1.00  0.00     0.099 C
BRANCH   7   8
HETATM    8  C16 UNL     1      -4.521   2.387  11.124  1.00  0.00     0.295 C
BRANCH   8   9
HETATM    9  N4  UNL     1      -4.923   1.040  10.730  1.00  0.00    -0.063 N
ATOM     10  H43 UNL     1      -4.946   0.405  11.528  1.00  0.00     0.275 HD
ATOM     11  H42 UNL     1      -5.909   1.001  10.472  1.00  0.00     0.275 HD
ATOM     12  H41 UNL     1      -4.324   0.685   9.983  1.00  0.00     0.275 HD
ENDBRANCH   8   9
BRANCH   8  13
HETATM   13  C17 UNL     1      -3.014   2.351  11.030  1.00  0.00     0.159 A
HETATM   14  N5  UNL     1      -2.127   1.606  11.676  1.00  0.00    -0.346 N
HETATM   15  C18 UNL     1      -0.902   1.931  11.252  1.00  0.00     0.122 A
ATOM     16  H5  UNL     1      -2.345   0.900  12.380  1.00  0.00     0.167 HD
HETATM   17  C19 UNL     1      -1.029   2.899  10.321  1.00  0.00     0.066 A
HETATM   18  C20 UNL     1       0.044   3.578   9.565  1.00  0.00     0.078 C
HETATM   19  O1  UNL     1      -2.322   3.132  10.210  1.00  0.00    -0.298 OA
ENDBRANCH   8  13
ENDBRANCH   7   8
ENDBRANCH   6   7
BRANCH   1  20
HETATM   20  C3  UNL     1      -4.412   3.498  15.539  1.00  0.00     0.004 C
HETATM   21  C4  UNL     1      -4.032   2.108  15.904  1.00  0.00     0.012 C
BRANCH  20  22
HETATM   22  C2  UNL     1      -5.876   3.692  15.714  1.00  0.00     0.002 C
HETATM   23  C1  UNL     1      -6.315   3.337  17.145  1.00  0.00     0.005 C
ENDBRANCH  20  22
ENDBRANCH   1  20
BRANCH   3  24
HETATM   24  N1  UNL     1      -1.644   6.606  13.385  1.00  0.00     0.096 N
HETATM   25  C8  UNL     1      -1.037   6.021  12.229  1.00  0.00     0.303 C
HETATM   26  C9  UNL     1       0.388   6.471  12.013  1.00  0.00     0.302 C
HETATM   27  N2  UNL     1       0.699   7.706  12.646  1.00  0.00     0.087 N
HETATM   28  C10 UNL     1       1.855   8.372  12.143  1.00  0.00     0.310 C
HETATM   29  C11 UNL     1      -0.454   8.576  12.481  1.00  0.00     0.302 C
HETATM   30  C12 UNL     1      -1.521   8.056  13.411  1.00  0.00     0.303 C
ENDBRANCH   3  24
TORSDOF 7
ENDMDL