MODEL 2
REMARK VINA RESULT: -7.756174981      0.951      1.010
REMARK  5 active torsions:
REMARK  status: ('A' for Active; 'I' for Inactive)
REMARK    1  A    between atoms: O1_1  and  C1_3
REMARK    2  A    between atoms: C1_3  and  C2_4
REMARK    3  A    between atoms: C2_4  and  C3_5
REMARK    4  A    between atoms: C10_13  and  C11_14
REMARK    5  A    between atoms: C14_19  and  N3_20
ROOT
HETATM    1  C11 UNL     1      -5.799   6.628  11.035  1.00  0.00    -0.028 A
HETATM    2  C12 UNL     1      -6.508   6.430  12.206  1.00  0.00     0.059 A
HETATM    3  C13 UNL     1      -5.976   5.370  12.897  1.00  0.00     0.128 A
HETATM    4  N2  UNL     1      -6.228   4.723  14.061  1.00  0.00    -0.176 N
ATOM      5  H2  UNL     1      -7.005   5.052  14.634  1.00  0.00     0.186 HD
HETATM    6  C14 UNL     1      -5.518   3.673  14.507  1.00  0.00     0.682 A
HETATM    7  N4  UNL     1      -4.490   3.271  13.703  1.00  0.00    -0.187 N
ATOM      8  H4  UNL     1      -3.923   2.477  14.001  1.00  0.00     0.185 HD
HETATM    9  C18 UNL     1      -4.192   3.871  12.540  1.00  0.00     0.207 A
HETATM   10  N5  UNL     1      -4.949   4.907  12.173  1.00  0.00    -0.303 N
HETATM   11  C19 UNL     1      -4.829   5.659  11.041  1.00  0.00     0.107 A
ENDROOT
BRANCH   1  12
HETATM   12  C10 UNL     1      -6.100   7.698  10.033  1.00  0.00     0.009 C
HETATM   13  C6  UNL     1      -4.998   8.071   9.155  1.00  0.00     0.005 C
HETATM   14  C5  UNL     1      -5.190   8.069   7.684  1.00  0.00     0.050 C
HETATM   15  C7  UNL     1      -4.525   9.484   9.544  1.00  0.00     0.006 C
HETATM   16  C4  UNL     1      -6.517   7.615   7.178  1.00  0.00     0.064 C
HETATM   17  N1  UNL     1      -7.533   7.996   8.044  1.00  0.00    -0.369 N
HETATM   18  C3  UNL     1      -8.737   8.540   7.709  1.00  0.00     0.088 C
HETATM   19  C20 UNL     1      -7.423   7.428   9.373  1.00  0.00     0.142 C
HETATM   20  C8  UNL     1      -5.777  10.102  10.073  1.00  0.00     0.002 C
HETATM   21  C9  UNL     1      -6.341   8.956  10.893  1.00  0.00     0.016 C
BRANCH  18  22
HETATM   22  C2  UNL     1      -9.016   9.890   7.242  1.00  0.00     0.016 C
BRANCH  22  23
HETATM   23  C1  UNL     1      -8.197  11.048   7.612  1.00  0.00     0.192 C
BRANCH  23  24
HETATM   24  O1  UNL     1      -7.047  11.187   6.898  1.00  0.00    -0.397 OA
ATOM     25  H1  UNL     1      -6.545  11.967   7.098  1.00  0.00     0.209 HD
ENDBRANCH  23  24
ENDBRANCH  22  23
ENDBRANCH  18  22
ENDBRANCH   1  12
BRANCH   6  26
HETATM   26  N3  UNL     1      -5.800   3.004  15.727  1.00  0.00    -0.212 N
HETATM   27  C15 UNL     1      -6.440   3.294  16.977  1.00  0.00     0.180 A
HETATM   28  C16 UNL     1      -6.170   1.898  17.485  1.00  0.00     0.207 A
HETATM   29  F1  UNL     1      -7.292   1.087  17.604  1.00  0.00    -0.246 F
HETATM   30  C17 UNL     1      -5.495   1.646  16.180  1.00  0.00     0.180 A
ENDBRANCH   6  26
TORSDOF 5
ENDMDL