MODEL 1
REMARK VINA RESULT: -8.559508960      0.000      0.000
REMARK  5 active torsions:
REMARK  status: ('A' for Active; 'I' for Inactive)
REMARK    1  A    between atoms: C3_4  and  C4_5
REMARK    2  A    between atoms: C4_5  and  N1_6
REMARK    3  A    between atoms: N1_6  and  C5_9
REMARK    4  A    between atoms: C5_9  and  C6_10
REMARK    5  A    between atoms: C6_10  and  N2_11
ROOT
HETATM    1  O1  UNL     1      -5.473   1.162  18.089  1.00  0.00    -0.260 OA
HETATM    2  C1  UNL     1      -5.054   1.257  16.920  1.00  0.00     0.290 A
HETATM    3  C2  UNL     1      -4.680   2.465  16.402  1.00  0.00     0.092 A
HETATM    4  C3  UNL     1      -4.204   2.610  15.099  1.00  0.00    -0.011 A
HETATM    5  C11 UNL     1      -4.115   1.460  14.313  1.00  0.00     0.041 A
HETATM    6  C12 UNL     1      -3.724   1.149  13.026  1.00  0.00     0.007 A
HETATM    7  C13 UNL     1      -3.916  -0.243  12.923  1.00  0.00     0.065 A
HETATM    8  O3  UNL     1      -4.377  -0.652  14.073  1.00  0.00    -0.291 OA
HETATM    9  C14 UNL     1      -4.519   0.267  14.922  1.00  0.00     0.205 A
HETATM   10  O4  UNL     1      -4.960   0.206  16.166  1.00  0.00    -0.250 OA
HETATM   11  C15 UNL     1      -3.731  -1.244  11.898  1.00  0.00     0.077 C
HETATM   12  C16 UNL     1      -2.551  -1.042  10.910  1.00  0.00     0.086 C
HETATM   13  C17 UNL     1      -2.364   0.351  10.983  1.00  0.00    -0.181 C
HETATM   14  C18 UNL     1      -2.196   1.714  11.050  1.00  0.00     0.105 C
HETATM   15  C19 UNL     1      -3.258   2.161  12.124  1.00  0.00     0.129 C
HETATM   16 CL1  UNL     1      -4.696   2.561  11.076  1.00  0.00    -0.119 Cl
ENDROOT
BRANCH   4  17
HETATM   17  C4  UNL     1      -3.810   3.895  14.559  1.00  0.00     0.272 C
BRANCH  17  18
HETATM   18  N1  UNL     1      -4.990   4.792  14.650  1.00  0.00    -0.070 N
ATOM     19  H12 UNL     1      -5.781   4.369  15.136  1.00  0.00     0.277 HD
ATOM     20  H11 UNL     1      -4.851   5.576  15.289  1.00  0.00     0.277 HD
BRANCH  18  21
HETATM   21  C5  UNL     1      -5.309   5.209  13.289  1.00  0.00     0.262 C
BRANCH  21  22
HETATM   22  C6  UNL     1      -4.141   5.788  12.581  1.00  0.00     0.300 C
BRANCH  22  23
HETATM   23  N2  UNL     1      -4.630   6.770  11.644  1.00  0.00     0.094 N
HETATM   24  C7  UNL     1      -6.047   6.847  11.528  1.00  0.00     0.298 C
HETATM   25  C8  UNL     1      -6.446   6.968  10.059  1.00  0.00     0.198 C
HETATM   26  O2  UNL     1      -5.982   5.824   9.432  1.00  0.00    -0.388 OA
HETATM   27  C9  UNL     1      -4.613   5.825   9.390  1.00  0.00     0.198 C
HETATM   28  C10 UNL     1      -3.942   6.736  10.378  1.00  0.00     0.298 C
ENDBRANCH  22  23
ENDBRANCH  21  22
ENDBRANCH  18  21
ENDBRANCH  17  18
ENDBRANCH   4  17
TORSDOF 5
ENDMDL