MODEL 5
REMARK VINA RESULT: -6.446313447      3.085      7.329
REMARK  7 active torsions:
REMARK  status: ('A' for Active; 'I' for Inactive)
REMARK    1  A    between atoms: C3_3  and  N1_4
REMARK    2  A    between atoms: C7_8  and  C8_9
REMARK    3  A    between atoms: C8_9  and  O1_10
REMARK    4  A    between atoms: C10_15  and  O2_16
REMARK    5  A    between atoms: O2_16  and  C11_17
REMARK    6  A    between atoms: C11_17  and  C12_18
REMARK    7  A    between atoms: C15_22  and  N3_23
ROOT
HETATM    1  C1  UNL     1      -6.519   6.798  12.056  1.00  0.00     0.054 C
HETATM    2  C2  UNL     1      -5.384   6.244  11.277  1.00  0.00     0.011 A
HETATM    3  C3  UNL     1      -5.117   6.810  10.036  1.00  0.00     0.112 A
HETATM    4  N2  UNL     1      -4.088   6.308   9.337  1.00  0.00    -0.349 N
ATOM      5  H2  UNL     1      -3.880   6.713   8.424  1.00  0.00     0.167 HD
HETATM    6  C9  UNL     1      -3.320   5.304   9.773  1.00  0.00     0.128 A
HETATM    7  C10 UNL     1      -3.568   4.727  11.000  1.00  0.00     0.111 A
HETATM    8  C15 UNL     1      -4.648   5.221  11.786  1.00  0.00     0.075 A
ENDROOT
BRANCH   3   9
HETATM    9  N1  UNL     1      -5.882   7.872   9.503  1.00  0.00    -0.360 N
HETATM   10  C4  UNL     1      -6.037   9.172  10.098  1.00  0.00     0.125 C
HETATM   11  C5  UNL     1      -6.086  10.085   8.892  1.00  0.00     0.022 C
HETATM   12  C6  UNL     1      -7.027   9.283   7.984  1.00  0.00     0.029 C
HETATM   13  C7  UNL     1      -6.636   7.863   8.284  1.00  0.00     0.109 C
BRANCH  13  14
HETATM   14  C8  UNL     1      -7.821   6.939   8.347  1.00  0.00     0.189 C
BRANCH  14  15
HETATM   15  O1  UNL     1      -7.508   5.664   7.944  1.00  0.00    -0.399 OA
ATOM     16  H1  UNL     1      -7.878   5.456   7.094  1.00  0.00     0.209 HD
ENDBRANCH  14  15
ENDBRANCH  13  14
ENDBRANCH   3   9
BRANCH   8  17
HETATM   17  N3  UNL     1      -4.935   4.660  13.043  1.00  0.00    -0.374 N
HETATM   18  C16 UNL     1      -5.920   3.580  13.220  1.00  0.00     0.149 C
HETATM   19  C17 UNL     1      -5.643   2.953  14.557  1.00  0.00     0.187 C
HETATM   20  O3  UNL     1      -5.972   3.885  15.547  1.00  0.00    -0.388 OA
HETATM   21  C18 UNL     1      -5.406   5.113  15.329  1.00  0.00     0.187 C
HETATM   22  C19 UNL     1      -4.298   5.083  14.286  1.00  0.00     0.149 C
ENDBRANCH   8  17
BRANCH   7  23
HETATM   23  O2  UNL     1      -2.878   3.754  11.503  1.00  0.00    -0.344 OA
BRANCH  23  24
HETATM   24  C11 UNL     1      -2.315   2.585  11.522  1.00  0.00     0.218 C
BRANCH  24  25
HETATM   25  C12 UNL     1      -3.121   1.311  11.638  1.00  0.00     0.118 C
HETATM   26  C13 UNL     1      -4.399   1.268  10.882  1.00  0.00     0.053 C
HETATM   27  C14 UNL     1      -2.224   0.205  11.075  1.00  0.00     0.053 C
HETATM   28  F1  UNL     1      -3.347   1.102  12.989  1.00  0.00    -0.241 F
ENDBRANCH  24  25
ENDBRANCH  23  24
ENDBRANCH   7  23
TORSDOF 7
ENDMDL