MODEL 1
REMARK VINA RESULT: -6.960734250      0.000      0.000
REMARK  6 active torsions:
REMARK  status: ('A' for Active; 'I' for Inactive)
REMARK    1  A    between atoms: O1_2  and  C2_3
REMARK    2  A    between atoms: C4_6  and  C5_7
REMARK    3  A    between atoms: C5_7  and  O3_9
REMARK    4  A    between atoms: O3_9  and  C6_10
REMARK    5  A    between atoms: C6_10  and  C7_11
REMARK       I    between atoms: C7_11  and  N1_13
REMARK    6  A    between atoms: N1_13  and  C8_15
ROOT
HETATM    1  O3  UNL     1      -4.742   0.512  12.758  1.00  0.00    -0.308 OA
ENDROOT
BRANCH   1   2
HETATM    2  C5  UNL     1      -4.213   0.679  11.512  1.00  0.00     0.302 C
HETATM    3  O2  UNL     1      -4.688   0.123  10.525  1.00  0.00    -0.259 OA
BRANCH   2   4
HETATM    4  C4  UNL     1      -3.035   1.552  11.337  1.00  0.00     0.100 A
HETATM    5  S1  UNL     1      -1.437   1.101  10.955  1.00  0.00    -0.092 SA
HETATM    6  C3  UNL     1      -0.708   2.635  10.936  1.00  0.00     0.088 A
HETATM    7  C2  UNL     1      -1.743   3.472  11.232  1.00  0.00     0.093 A
HETATM    8  C13 UNL     1      -2.958   2.913  11.443  1.00  0.00     0.068 A
HETATM    9 BR1  UNL     1      -4.569   3.937  11.881  1.00  0.00    -0.046 Br
BRANCH   7  10
HETATM   10  O1  UNL     1      -1.544   4.873  11.315  1.00  0.00    -0.354 OA
HETATM   11  C1  UNL     1      -0.865   5.466  12.372  1.00  0.00     0.210 C
ENDBRANCH   7  10
ENDBRANCH   2   4
ENDBRANCH   1   2
BRANCH   1  12
HETATM   12  C6  UNL     1      -4.052  -0.056  13.848  1.00  0.00     0.281 C
BRANCH  12  13
HETATM   13  C7  UNL     1      -4.088   0.759  15.080  1.00  0.00     0.242 C
HETATM   14  O4  UNL     1      -3.663   0.268  16.148  1.00  0.00    -0.271 OA
HETATM   15  N1  UNL     1      -4.589   2.061  15.056  1.00  0.00    -0.355 N
ATOM     16  H1  UNL     1      -4.926   2.424  14.164  1.00  0.00     0.162 HD
BRANCH  15  17
HETATM   17  C8  UNL     1      -4.664   2.936  16.209  1.00  0.00     0.084 C
HETATM   18  C9  UNL     1      -4.722   4.351  15.675  1.00  0.00     0.025 C
HETATM   19  C10 UNL     1      -6.131   4.834  15.958  1.00  0.00     0.002 C
HETATM   20  C11 UNL     1      -6.591   4.007  17.141  1.00  0.00     0.002 C
HETATM   21  C12 UNL     1      -5.865   2.695  17.053  1.00  0.00     0.025 C
ENDBRANCH  15  17
ENDBRANCH  12  13
ENDBRANCH   1  12
TORSDOF 6
ENDMDL