MODEL 5
REMARK VINA RESULT: -7.614508257      2.338      3.734
REMARK  6 active torsions:
REMARK  status: ('A' for Active; 'I' for Inactive)
REMARK    1  A    between atoms: C2_2  and  C3_3
REMARK    2  A    between atoms: C4_8  and  N3_9
REMARK    3  A    between atoms: N3_9  and  C5_11
REMARK    4  A    between atoms: C8_14  and  C9_15
REMARK    5  A    between atoms: C9_15  and  N4_16
REMARK    6  A    between atoms: N5_23  and  C16_24
ROOT
HETATM    1  C3  UNL     1      -4.199   2.882  14.836  1.00  0.00     0.138 A
HETATM    2  N1  UNL     1      -4.310   4.077  15.443  1.00  0.00    -0.273 N
ATOM      3  H1  UNL     1      -4.545   4.221  16.425  1.00  0.00     0.189 HD
HETATM    4  N2  UNL     1      -4.065   5.052  14.552  1.00  0.00    -0.130 N
ATOM      5  H2  UNL     1      -4.078   6.056  14.731  1.00  0.00     0.205 HD
HETATM    6  C4  UNL     1      -3.797   4.453  13.379  1.00  0.00     0.715 A
HETATM    7  N5  UNL     1      -3.879   3.127  13.552  1.00  0.00     0.036 N
ENDROOT
BRANCH   6   8
HETATM    8  N3  UNL     1      -3.509   5.070  12.276  1.00  0.00    -0.219 N
ATOM      9  H3  UNL     1      -2.534   5.165  11.991  1.00  0.00     0.178 HD
BRANCH   8  10
HETATM   10  C5  UNL     1      -4.558   5.627  11.444  1.00  0.00     0.099 C
HETATM   11  C6  UNL     1      -4.339   7.120  11.395  1.00  0.00     0.026 C
HETATM   12  C7  UNL     1      -5.211   7.825  10.412  1.00  0.00     0.008 C
HETATM   13  C8  UNL     1      -5.272   7.138   9.067  1.00  0.00     0.014 C
HETATM   14  C14 UNL     1      -4.297   6.011   9.007  1.00  0.00     0.008 C
HETATM   15  C15 UNL     1      -4.518   4.981  10.089  1.00  0.00     0.026 C
BRANCH  13  16
HETATM   16  C9  UNL     1      -6.703   6.684   8.870  1.00  0.00     0.277 C
BRANCH  16  17
HETATM   17  N4  UNL     1      -7.302   7.195   7.676  1.00  0.00     0.088 N
HETATM   18  C10 UNL     1      -8.467   7.966   8.055  1.00  0.00     0.272 C
HETATM   19  C11 UNL     1      -7.989   9.401   7.995  1.00  0.00     0.032 C
HETATM   20  C12 UNL     1      -7.165   9.356   6.701  1.00  0.00     0.032 C
HETATM   21  C13 UNL     1      -6.451   8.026   6.886  1.00  0.00     0.272 C
ENDBRANCH  16  17
ENDBRANCH  13  16
ENDBRANCH   8  10
ENDBRANCH   6   8
BRANCH   7  22
HETATM   22  C16 UNL     1      -3.671   2.110  12.570  1.00  0.00     0.704 A
HETATM   23  N6  UNL     1      -4.700   1.535  11.957  1.00  0.00    -0.198 N
HETATM   24  C17 UNL     1      -4.568   0.573  11.025  1.00  0.00     0.149 A
ATOM     25  H6  UNL     1      -5.642   1.839  12.207  1.00  0.00     0.183 HD
HETATM   26  C18 UNL     1      -3.312   0.140  10.663  1.00  0.00     0.148 A
HETATM   27  F1  UNL     1      -3.154  -0.824   9.730  1.00  0.00    -0.203 F
HETATM   28  C19 UNL     1      -2.243   0.744  11.307  1.00  0.00     0.149 A
HETATM   29  N7  UNL     1      -2.422   1.703  12.234  1.00  0.00    -0.198 N
ATOM     30  H7  UNL     1      -1.613   2.126  12.687  1.00  0.00     0.183 HD
ENDBRANCH   7  22
BRANCH   1  31
HETATM   31  C2  UNL     1      -4.387   1.539  15.439  1.00  0.00     0.075 C
HETATM   32  C1  UNL     1      -5.069   1.593  16.766  1.00  0.00     0.013 C
ENDBRANCH   1  31
TORSDOF 6
ENDMDL