MODEL 4
REMARK VINA RESULT: -7.512746112      0.898      1.806
REMARK  6 active torsions:
REMARK  status: ('A' for Active; 'I' for Inactive)
REMARK    1  A    between atoms: C2_2  and  O1_3
REMARK    2  A    between atoms: O1_3  and  C3_4
REMARK    3  A    between atoms: C3_4  and  C4_6
REMARK    4  A    between atoms: N1_8  and  C6_9
REMARK    5  A    between atoms: C6_9  and  C7_10
REMARK       I    between atoms: C7_10  and  N2_12
REMARK    6  A    between atoms: N2_12  and  C8_14
ROOT
HETATM    1  C7  UNL     1      -3.648   5.033  12.028  1.00  0.00     0.238 C
HETATM    2  O3  UNL     1      -4.542   4.279  11.605  1.00  0.00    -0.272 OA
HETATM    3  N2  UNL     1      -3.539   6.381  11.691  1.00  0.00    -0.350 N
ATOM      4  H2  UNL     1      -2.776   6.932  12.083  1.00  0.00     0.163 HD
ENDROOT
BRANCH   1   5
HETATM    5  C6  UNL     1      -2.650   4.394  12.958  1.00  0.00     0.252 C
BRANCH   5   6
HETATM    6  N1  UNL     1      -3.165   3.116  13.386  1.00  0.00    -0.278 N
HETATM    7  C5  UNL     1      -3.622   2.795  14.613  1.00  0.00     0.149 A
HETATM    8  C4  UNL     1      -4.018   1.474  14.594  1.00  0.00     0.141 A
HETATM    9  N4  UNL     1      -3.781   1.046  13.336  1.00  0.00    -0.279 N
HETATM   10  N3  UNL     1      -3.274   2.035  12.635  1.00  0.00    -0.240 N
ATOM     11  H4  UNL     1      -3.965   0.106  12.986  1.00  0.00     0.189 HD
ATOM     12  H3  UNL     1      -3.004   1.976  11.653  1.00  0.00     0.208 HD
BRANCH   8  13
HETATM   13  C3  UNL     1      -4.579   0.674  15.677  1.00  0.00     0.312 C
HETATM   14  O2  UNL     1      -4.817  -0.547  15.494  1.00  0.00    -0.258 OA
BRANCH  13  15
HETATM   15  O1  UNL     1      -4.847   1.242  16.892  1.00  0.00    -0.317 OA
BRANCH  15  16
HETATM   16  C2  UNL     1      -6.145   1.589  17.339  1.00  0.00     0.175 C
HETATM   17  C1  UNL     1      -6.279   3.092  17.228  1.00  0.00     0.034 C
ENDBRANCH  15  16
ENDBRANCH  13  15
ENDBRANCH   8  13
ENDBRANCH   5   6
ENDBRANCH   1   5
BRANCH   3  18
HETATM   18  C8  UNL     1      -4.485   7.016  10.798  1.00  0.00     0.034 C
HETATM   19  C9  UNL     1      -5.875   7.017  11.468  1.00  0.00     0.035 C
HETATM   20  C10 UNL     1      -6.805   7.758  10.564  1.00  0.00    -0.012 C
HETATM   21  C11 UNL     1      -6.944   6.973   9.276  1.00  0.00     0.009 C
HETATM   22  C15 UNL     1      -6.362   9.141  10.211  1.00  0.00     0.009 C
HETATM   23  C12 UNL     1      -5.594   6.886   8.621  1.00  0.00    -0.012 C
HETATM   24  C13 UNL     1      -5.033   8.279   8.326  1.00  0.00     0.009 C
HETATM   25  C17 UNL     1      -4.589   6.223   9.543  1.00  0.00     0.035 C
HETATM   26  C14 UNL     1      -4.985   9.097   9.577  1.00  0.00    -0.012 C
HETATM   27  C16 UNL     1      -4.071   8.451  10.604  1.00  0.00     0.035 C
ENDBRANCH   3  18
TORSDOF 6
ENDMDL