MODEL 4
REMARK VINA RESULT: -7.355026716      2.181      5.647
REMARK  5 active torsions:
REMARK  status: ('A' for Active; 'I' for Inactive)
REMARK    1  A    between atoms: O1_2  and  C2_3
REMARK    2  A    between atoms: C7_9  and  O3_10
REMARK    3  A    between atoms: O3_10  and  C8_11
REMARK    4  A    between atoms: C12_18  and  O4_19
REMARK    5  A    between atoms: O4_19  and  C13_20
ROOT
HETATM    1  C8  UNL     1      -4.240   1.223  13.273  1.00  0.00     0.179 A
HETATM    2  N1  UNL     1      -4.245  -0.083  12.832  1.00  0.00    -0.311 N
ATOM      3  H1  UNL     1      -4.819  -0.768  13.325  1.00  0.00     0.170 HD
HETATM    4  C9  UNL     1      -3.532  -0.475  11.792  1.00  0.00     0.190 A
HETATM    5  F1  UNL     1      -3.560  -1.778  11.380  1.00  0.00    -0.186 F
HETATM    6  C10 UNL     1      -2.756   0.467  11.133  1.00  0.00     0.064 A
HETATM    7  C11 UNL     1      -2.729   1.783  11.549  1.00  0.00     0.046 A
HETATM    8  C12 UNL     1      -3.478   2.183  12.637  1.00  0.00     0.120 A
ENDROOT
BRANCH   1   9
HETATM    9  O3  UNL     1      -5.024   1.441  14.343  1.00  0.00    -0.325 OA
BRANCH   9  10
HETATM   10  C7  UNL     1      -4.920   1.544  15.681  1.00  0.00     0.168 C
HETATM   11  C2  UNL     1      -5.155   2.941  16.245  1.00  0.00     0.179 C
HETATM   12  C3  UNL     1      -6.055   2.652  17.426  1.00  0.00     0.153 C
HETATM   13  C4  UNL     1      -7.030   1.696  16.705  1.00  0.00     0.044 C
HETATM   14  O2  UNL     1      -5.457   1.820  18.363  1.00  0.00    -0.383 OA
HETATM   15  C5  UNL     1      -5.912   0.680  16.418  1.00  0.00     0.044 C
HETATM   16  C6  UNL     1      -5.398   0.541  17.831  1.00  0.00     0.175 C
BRANCH  11  17
HETATM   17  O1  UNL     1      -5.956   3.693  15.357  1.00  0.00    -0.386 OA
HETATM   18  C1  UNL     1      -5.733   5.032  15.562  1.00  0.00     0.202 C
ENDBRANCH  11  17
ENDBRANCH   9  10
ENDBRANCH   1   9
BRANCH   8  19
HETATM   19  O4  UNL     1      -3.459   3.473  13.056  1.00  0.00    -0.341 OA
BRANCH  19  20
HETATM   20  C13 UNL     1      -2.833   4.592  12.576  1.00  0.00     0.132 C
HETATM   21  C14 UNL     1      -1.476   4.859  13.210  1.00  0.00     0.060 C
HETATM   22  C15 UNL     1      -0.768   5.869  12.336  1.00  0.00     0.235 C
HETATM   23  N2  UNL     1      -1.648   6.510  11.404  1.00  0.00    -0.075 N
HETATM   24  C16 UNL     1      -2.865   6.965  12.000  1.00  0.00     0.235 C
ATOM     25  H22 UNL     1      -1.173   7.272  10.921  1.00  0.00     0.277 HD
ATOM     26  H21 UNL     1      -1.840   5.901  10.609  1.00  0.00     0.277 HD
HETATM   27  C17 UNL     1      -3.624   5.873  12.716  1.00  0.00     0.060 C
ENDBRANCH  19  20
ENDBRANCH   8  19
TORSDOF 5
ENDMDL