MODEL 5
REMARK VINA RESULT: -5.642232417      4.480      6.987
REMARK  6 active torsions:
REMARK  status: ('A' for Active; 'I' for Inactive)
REMARK    1  A    between atoms: O1_2  and  C2_3
REMARK    2  A    between atoms: C2_3  and  C3_4
REMARK    3  A    between atoms: C3_4  and  O2_5
REMARK    4  A    between atoms: C3_4  and  C4_7
REMARK    5  A    between atoms: C4_7  and  N1_8
REMARK    6  A    between atoms: N2_11  and  C7_12
ROOT
HETATM    1  N1  UNL     1      -2.159   4.482  10.948  1.00  0.00    -0.407 N
HETATM    2  C5  UNL     1      -2.044   5.390  12.028  1.00  0.00     0.136 C
HETATM    3  C6  UNL     1      -3.382   5.620  12.742  1.00  0.00     0.143 C
HETATM    4  N2  UNL     1      -4.044   4.374  12.956  1.00  0.00    -0.372 N
HETATM    5  C11 UNL     1      -4.043   3.392  11.888  1.00  0.00     0.143 C
HETATM    6  C12 UNL     1      -3.517   4.137  10.652  1.00  0.00     0.136 C
ENDROOT
BRANCH   1   7
HETATM    7  C4  UNL     1      -1.300   4.656   9.831  1.00  0.00     0.150 C
BRANCH   7   8
HETATM    8  C3  UNL     1      -0.262   3.552   9.810  1.00  0.00     0.159 C
BRANCH   8   9
HETATM    9  C2  UNL     1      -0.485   2.444  10.791  1.00  0.00     0.200 C
BRANCH   9  10
HETATM   10  O1  UNL     1      -1.054   1.336  10.375  1.00  0.00    -0.393 OA
HETATM   11  C1  UNL     1      -1.816   0.501  11.036  1.00  0.00     0.201 C
ENDBRANCH   9  10
ENDBRANCH   8   9
BRANCH   8  12
HETATM   12  O2  UNL     1       0.967   4.161  10.299  1.00  0.00    -0.392 OA
ATOM     13  H2  UNL     1       1.564   3.422  10.327  1.00  0.00     0.210 HD
ENDBRANCH   8  12
ENDBRANCH   7   8
ENDBRANCH   1   7
BRANCH   4  14
HETATM   14  C7  UNL     1      -4.706   4.067  14.186  1.00  0.00     0.073 A
HETATM   15  C8  UNL     1      -5.599   4.816  14.906  1.00  0.00     0.039 A
HETATM   16  C9  UNL     1      -6.073   4.286  16.039  1.00  0.00     0.029 A
HETATM   17  C10 UNL     1      -5.629   3.042  16.392  1.00  0.00     0.053 A
HETATM   18 BR1  UNL     1      -6.108   2.010  17.942  1.00  0.00    -0.043 Br
HETATM   19  S1  UNL     1      -4.556   2.649  15.117  1.00  0.00    -0.065 SA
ENDBRANCH   4  14
TORSDOF 6
ENDMDL