MODEL 3
REMARK VINA RESULT: -5.835512731      1.760      2.432
REMARK  5 active torsions:
REMARK  status: ('A' for Active; 'I' for Inactive)
REMARK    1  A    between atoms: C2_2  and  C3_3
REMARK    2  A    between atoms: C3_3  and  N1_4
REMARK    3  A    between atoms: C8_17  and  S1_18
REMARK    4  A    between atoms: N5_20  and  C10_21
REMARK    5  A    between atoms: C10_21  and  O1_22
ROOT
HETATM    1  N1  UNL     1      -3.989   2.167  15.324  1.00  0.00    -0.350 N
ATOM      2  H1  UNL     1      -3.313   1.428  15.133  1.00  0.00     0.166 HD
HETATM    3  C4  UNL     1      -3.989   3.008  14.411  1.00  0.00     0.141 A
HETATM    4  N2  UNL     1      -3.132   2.830  13.347  1.00  0.00    -0.323 N
ATOM      5  H2  UNL     1      -2.518   2.015  13.333  1.00  0.00     0.169 HD
HETATM    6  C5  UNL     1      -3.084   3.702  12.328  1.00  0.00     0.158 A
HETATM    7  C6  UNL     1      -3.901   4.812  12.320  1.00  0.00     0.153 A
HETATM    8  N3  UNL     1      -4.730   5.003  13.330  1.00  0.00    -0.330 N
ATOM      9  H3  UNL     1      -5.340   5.822  13.336  1.00  0.00     0.168 HD
HETATM   10  C7  UNL     1      -4.778   4.118  14.361  1.00  0.00     0.126 A
HETATM   11 BR1  UNL     1      -6.009   4.501  15.753  1.00  0.00    -0.027 Br
HETATM   12  N4  UNL     1      -3.651   5.507  11.199  1.00  0.00    -0.320 N
ATOM     13  H4  UNL     1      -4.110   6.376  10.926  1.00  0.00     0.169 HD
HETATM   14  C8  UNL     1      -2.701   4.870  10.497  1.00  0.00     0.151 A
HETATM   15  N5  UNL     1      -2.361   3.779  11.184  1.00  0.00    -0.288 N
ENDROOT
BRANCH   1  16
HETATM   16  C3  UNL     1      -4.641   1.937  16.532  1.00  0.00     0.089 C
BRANCH  16  17
HETATM   17  C2  UNL     1      -5.575   0.749  16.468  1.00  0.00     0.007 C
HETATM   18  C1  UNL     1      -6.805   0.872  16.910  1.00  0.00     0.012 C
ENDBRANCH  16  17
ENDBRANCH   1  16
BRANCH  15  19
HETATM   19  C10 UNL     1      -1.356   2.776  10.801  1.00  0.00     0.301 C
BRANCH  19  20
HETATM   20  O1  UNL     1      -0.273   2.863  11.685  1.00  0.00    -0.376 OA
HETATM   21  C11 UNL     1       0.701   3.665  11.143  1.00  0.00     0.203 C
ENDBRANCH  19  20
ENDBRANCH  15  19
BRANCH  14  22
HETATM   22  S1  UNL     1      -2.013   5.380   8.932  1.00  0.00    -0.098 SA
HETATM   23  C9  UNL     1      -3.215   5.163   7.603  1.00  0.00     0.099 C
ENDBRANCH  14  22
TORSDOF 5
ENDMDL