MODEL 3
REMARK VINA RESULT: -7.006349587      1.169      1.703
REMARK  6 active torsions:
REMARK  status: ('A' for Active; 'I' for Inactive)
REMARK    1  A    between atoms: C2_2  and  N1_3
REMARK    2  A    between atoms: N2_6  and  C5_7
REMARK    3  A    between atoms: C5_7  and  C6_8
REMARK    4  A    between atoms: C6_8  and  O1_9
REMARK    5  A    between atoms: C6_8  and  C7_11
REMARK    6  A    between atoms: C12_16  and  N3_17
ROOT
HETATM    1  C7  UNL     1      -4.301   2.648  13.302  1.00  0.00     0.011 A
HETATM    2  C8  UNL     1      -4.261   1.430  13.920  1.00  0.00     0.050 A
HETATM    3  C9  UNL     1      -4.743   1.193  15.208  1.00  0.00     0.078 A
HETATM    4  C10 UNL     1      -5.293   2.285  15.874  1.00  0.00     0.013 A
HETATM    5  C11 UNL     1      -5.336   3.521  15.272  1.00  0.00     0.049 A
HETATM    6  C12 UNL     1      -4.853   3.749  13.991  1.00  0.00     0.112 A
HETATM    7  C13 UNL     1      -5.736   1.878  17.234  1.00  0.00     0.230 C
HETATM    8  F1  UNL     1      -7.081   2.246  17.387  1.00  0.00    -0.242 F
HETATM    9  C14 UNL     1      -5.648   0.377  17.124  1.00  0.00     0.218 C
HETATM   10  O4  UNL     1      -4.815   0.101  16.039  1.00  0.00    -0.347 OA
ENDROOT
BRANCH   1  11
HETATM   11  C6  UNL     1      -3.912   2.886  11.929  1.00  0.00     0.192 C
BRANCH  11  12
HETATM   12  C5  UNL     1      -2.628   2.203  11.509  1.00  0.00     0.099 C
BRANCH  12  13
HETATM   13  N2  UNL     1      -1.711   3.138  11.014  1.00  0.00    -0.368 N
HETATM   14  C4  UNL     1      -2.364   4.156  10.195  1.00  0.00     0.157 C
HETATM   15  C3  UNL     1      -2.467   5.489  10.762  1.00  0.00     0.293 C
HETATM   16  N1  UNL     1      -1.375   5.973  11.560  1.00  0.00     0.094 N
HETATM   17  C16 UNL     1      -0.737   4.952  12.341  1.00  0.00     0.317 C
HETATM   18  C15 UNL     1      -0.584   3.603  11.671  1.00  0.00     0.093 C
BRANCH  16  19
HETATM   19  C2  UNL     1      -0.435   6.742  10.745  1.00  0.00     0.268 C
HETATM   20  C1  UNL     1       0.746   7.140  11.604  1.00  0.00     0.037 C
ENDBRANCH  16  19
ENDBRANCH  12  13
ENDBRANCH  11  12
BRANCH  11  21
HETATM   21  O1  UNL     1      -4.897   2.515  11.001  1.00  0.00    -0.386 OA
ATOM     22  H1  UNL     1      -4.445   2.270  10.201  1.00  0.00     0.210 HD
ENDBRANCH  11  21
ENDBRANCH   1  11
BRANCH   6  23
HETATM   23  N3  UNL     1      -4.826   5.071  13.489  1.00  0.00    -0.115 N
HETATM   24  O2  UNL     1      -5.605   5.611  12.762  1.00  0.00    -0.532 OA
HETATM   25  O3  UNL     1      -3.742   5.848  13.947  1.00  0.00    -0.532 OA
ENDBRANCH   6  23
TORSDOF 6
ENDMDL