MODEL 4
REMARK VINA RESULT: -6.600372126      1.627      4.595
REMARK  5 active torsions:
REMARK  status: ('A' for Active; 'I' for Inactive)
REMARK    1  A    between atoms: C2_2  and  O1_3
REMARK    2  A    between atoms: O1_3  and  C3_4
REMARK    3  A    between atoms: C6_11  and  N3_12
REMARK    4  A    between atoms: C12_19  and  C13_20
REMARK    5  A    between atoms: C13_20  and  N4_21
ROOT
HETATM    1  C3  UNL     1      -2.342   5.006  11.798  1.00  0.00     0.159 A
HETATM    2  N1  UNL     1      -1.883   6.098  12.387  1.00  0.00    -0.326 N
ATOM      3  H1  UNL     1      -1.093   6.592  11.969  1.00  0.00     0.169 HD
HETATM    4  C4  UNL     1      -2.427   6.577  13.519  1.00  0.00     0.080 A
HETATM    5  C5  UNL     1      -1.885   7.816  14.159  1.00  0.00     0.089 C
HETATM    6  N2  UNL     1      -3.442   5.915  14.027  1.00  0.00    -0.332 N
ATOM      7  H2  UNL     1      -3.862   6.272  14.886  1.00  0.00     0.168 HD
HETATM    8  C6  UNL     1      -3.981   4.765  13.474  1.00  0.00     0.120 A
HETATM    9  C12 UNL     1      -3.438   4.284  12.336  1.00  0.00     0.074 A
ENDROOT
BRANCH   9  10
HETATM   10  C13 UNL     1      -3.794   3.100  11.601  1.00  0.00     0.105 C
BRANCH  10  11
HETATM   11  N4  UNL     1      -3.335   1.820  11.851  1.00  0.00    -0.386 N
HETATM   12  C14 UNL     1      -4.330   0.766  11.953  1.00  0.00     0.149 C
HETATM   13  C15 UNL     1      -4.343  -0.109  10.731  1.00  0.00     0.252 C
HETATM   14  N5  UNL     1      -3.058  -0.646  10.392  1.00  0.00    -0.072 N
HETATM   15  C16 UNL     1      -1.964  -0.065  11.128  1.00  0.00     0.252 C
ATOM     16  H52 UNL     1      -3.058  -1.661  10.492  1.00  0.00     0.277 HD
ATOM     17  H51 UNL     1      -2.893  -0.571   9.388  1.00  0.00     0.277 HD
HETATM   18  C17 UNL     1      -2.140   1.416  11.180  1.00  0.00     0.149 C
ENDBRANCH  10  11
ENDBRANCH   9  10
BRANCH   1  19
HETATM   19  O1  UNL     1      -1.722   4.586  10.639  1.00  0.00    -0.335 OA
BRANCH  19  20
HETATM   20  C2  UNL     1      -0.412   4.870  10.279  1.00  0.00     0.173 C
HETATM   21  C1  UNL     1       0.602   3.891  10.791  1.00  0.00     0.034 C
ENDBRANCH  19  20
ENDBRANCH   1  19
BRANCH   8  22
HETATM   22  N3  UNL     1      -5.013   4.238  14.270  1.00  0.00    -0.366 N
HETATM   23  C7  UNL     1      -5.481   2.884  14.120  1.00  0.00     0.127 C
HETATM   24  C8  UNL     1      -5.166   2.067  15.364  1.00  0.00     0.057 C
HETATM   25  C9  UNL     1      -5.227   2.930  16.579  1.00  0.00     0.173 C
HETATM   26  F1  UNL     1      -5.562   2.224  17.700  1.00  0.00    -0.249 F
HETATM   27  C10 UNL     1      -6.176   4.098  16.359  1.00  0.00     0.057 C
HETATM   28  C11 UNL     1      -5.594   5.048  15.318  1.00  0.00     0.127 C
ENDBRANCH   8  22
TORSDOF 5
ENDMDL