MODEL 2
REMARK VINA RESULT: -6.825774147      1.003      3.702
REMARK  9 active torsions:
REMARK  status: ('A' for Active; 'I' for Inactive)
REMARK    1  A    between atoms: C2_2  and  O1_3
REMARK    2  A    between atoms: O1_3  and  C3_4
REMARK    3  A    between atoms: C3_4  and  C4_6
REMARK    4  A    between atoms: C4_6  and  C5_7
REMARK    5  A    between atoms: C4_6  and  N1_12
REMARK    6  A    between atoms: C5_7  and  O3_8
REMARK    7  A    between atoms: O3_8  and  C6_9
REMARK    8  A    between atoms: N1_12  and  C8_14
REMARK    9  A    between atoms: C8_14  and  C10_19
ROOT
HETATM    1  C8  UNL     1      -2.732   3.558  12.450  1.00  0.00     0.092 C
HETATM    2  N2  UNL     1      -1.825   2.859  12.012  1.00  0.00    -0.283 N
ATOM      3  H2  UNL     1      -1.606   2.095  12.651  1.00  0.00     0.179 HD
HETATM    4  C9  UNL     1      -1.030   2.820  10.906  1.00  0.00     0.183 C
HETATM    5  N3  UNL     1      -0.352   2.760   9.974  1.00  0.00    -0.172 NA
ENDROOT
BRANCH   1   6
HETATM    6  N1  UNL     1      -3.293   3.175  13.741  1.00  0.00    -0.363 N
ATOM      7  H1  UNL     1      -2.986   3.692  14.565  1.00  0.00     0.161 HD
BRANCH   6   8
HETATM    8  C4  UNL     1      -4.235   2.135  13.926  1.00  0.00     0.207 C
BRANCH   8   9
HETATM    9  C3  UNL     1      -4.416   1.265  12.743  1.00  0.00     0.283 C
HETATM   10  O2  UNL     1      -5.369   1.507  11.966  1.00  0.00    -0.263 OA
BRANCH   9  11
HETATM   11  O1  UNL     1      -3.598   0.192  12.437  1.00  0.00    -0.320 OA
BRANCH  11  12
HETATM   12  C2  UNL     1      -3.753  -0.473  11.194  1.00  0.00     0.174 C
HETATM   13  C1  UNL     1      -2.944  -1.725  11.107  1.00  0.00     0.034 C
ENDBRANCH  11  12
ENDBRANCH   9  11
ENDBRANCH   8   9
BRANCH   8  14
HETATM   14  C5  UNL     1      -4.016   1.302  15.179  1.00  0.00     0.214 C
BRANCH  14  15
HETATM   15  O3  UNL     1      -5.203   0.622  15.499  1.00  0.00    -0.319 OA
BRANCH  15  16
HETATM   16  C6  UNL     1      -5.682   0.581  16.796  1.00  0.00     0.254 C
HETATM   17  C7  UNL     1      -5.970   1.772  17.612  1.00  0.00     0.126 C
HETATM   18  O4  UNL     1      -5.877  -0.561  17.294  1.00  0.00    -0.266 OA
ENDBRANCH  15  16
ENDBRANCH  14  15
ENDBRANCH   8  14
ENDBRANCH   6   8
ENDBRANCH   1   6
BRANCH   1  19
HETATM   19  C10 UNL     1      -3.331   4.716  11.826  1.00  0.00     0.066 C
HETATM   20  C11 UNL     1      -4.520   5.262  12.649  1.00  0.00     0.041 C
HETATM   21  C12 UNL     1      -4.735   6.546  11.894  1.00  0.00    -0.006 C
HETATM   22  C13 UNL     1      -3.585   6.969  11.394  1.00  0.00     0.012 C
HETATM   23 CL1  UNL     1      -3.218   8.384  10.437  1.00  0.00    -0.089 Cl
HETATM   24  C14 UNL     1      -2.500   5.981  11.803  1.00  0.00     0.037 C
HETATM   25  C15 UNL     1      -2.114   6.409  13.202  1.00  0.00     0.016 C
ENDBRANCH   1  19
TORSDOF 9
ENDMDL