MODEL 1
REMARK VINA RESULT: -7.488488081      0.000      0.000
REMARK  5 active torsions:
REMARK  status: ('A' for Active; 'I' for Inactive)
REMARK    1  A    between atoms: C2_2  and  C4_4
REMARK    2  A    between atoms: C4_4  and  O1_5
REMARK    3  A    between atoms: O1_5  and  C5_6
REMARK    4  A    between atoms: C7_8  and  N1_9
REMARK    5  A    between atoms: C12_17  and  N3_18
ROOT
HETATM    1  C5  UNL     1      -5.413   3.579  14.557  1.00  0.00     0.114 A
HETATM    2  C6  UNL     1      -4.913   2.481  13.889  1.00  0.00     0.088 A
HETATM    3  C7  UNL     1      -3.942   2.580  12.920  1.00  0.00     0.107 A
HETATM    4  N2  UNL     1      -3.461   3.828  12.621  1.00  0.00    -0.326 N
ATOM      5  H2  UNL     1      -2.740   3.918  11.905  1.00  0.00     0.169 HD
HETATM    6  C12 UNL     1      -3.903   4.928  13.231  1.00  0.00     0.147 A
HETATM    7  C17 UNL     1      -4.867   4.820  14.190  1.00  0.00     0.193 A
HETATM    8  F1  UNL     1      -5.316   5.908  14.809  1.00  0.00    -0.199 F
ENDROOT
BRANCH   6   9
HETATM    9  N3  UNL     1      -3.370   6.187  12.878  1.00  0.00    -0.362 N
HETATM   10  C13 UNL     1      -2.338   6.781  13.666  1.00  0.00     0.143 C
HETATM   11  C14 UNL     1      -1.270   7.313  12.742  1.00  0.00     0.133 C
HETATM   12  N4  UNL     1      -1.772   8.093  11.665  1.00  0.00    -0.418 N
HETATM   13  C15 UNL     1      -2.828   7.534  10.903  1.00  0.00     0.133 C
ATOM     14  H4  UNL     1      -1.389   9.013  11.449  1.00  0.00     0.153 HD
HETATM   15  C16 UNL     1      -3.895   6.843  11.713  1.00  0.00     0.143 C
ENDBRANCH   6   9
BRANCH   3  16
HETATM   16  N1  UNL     1      -3.415   1.474  12.207  1.00  0.00    -0.363 N
HETATM   17  C8  UNL     1      -2.213   1.609  11.385  1.00  0.00     0.150 C
HETATM   18  C9  UNL     1      -1.883   0.223  10.864  1.00  0.00     0.187 C
HETATM   19  O2  UNL     1      -2.955  -0.273  10.127  1.00  0.00    -0.388 OA
HETATM   20  C10 UNL     1      -4.108  -0.397  10.858  1.00  0.00     0.187 C
HETATM   21  C11 UNL     1      -4.040   0.184  12.256  1.00  0.00     0.150 C
ENDBRANCH   3  16
BRANCH   1  22
HETATM   22  O1  UNL     1      -6.363   3.531  15.514  1.00  0.00    -0.347 OA
BRANCH  22  23
HETATM   23  C4  UNL     1      -6.397   3.471  16.869  1.00  0.00     0.179 C
BRANCH  23  24
HETATM   24  C2  UNL     1      -6.014   2.131  17.448  1.00  0.00     0.002 C
HETATM   25  C1  UNL     1      -6.059   2.153  18.964  1.00  0.00     0.011 C
HETATM   26  C3  UNL     1      -7.010   1.076  16.944  1.00  0.00     0.011 C
ENDBRANCH  23  24
ENDBRANCH  22  23
ENDBRANCH   1  22
TORSDOF 5
ENDMDL