MODEL 2
REMARK VINA RESULT: -7.479939226      2.077      5.358
REMARK  6 active torsions:
REMARK  status: ('A' for Active; 'I' for Inactive)
REMARK    1  A    between atoms: C4_6  and  N2_7
REMARK    2  A    between atoms: C8_11  and  C9_12
REMARK    3  A    between atoms: C9_12  and  O1_13
REMARK    4  A    between atoms: C11_18  and  C12_19
REMARK    5  A    between atoms: C12_19  and  C13_20
REMARK    6  A    between atoms: C13_20  and  N4_21
ROOT
HETATM    1  C1  UNL     1       0.082   3.331  10.315  1.00  0.00     0.071 C
HETATM    2  C2  UNL     1      -0.949   3.561  11.374  1.00  0.00     0.044 A
HETATM    3  N1  UNL     1      -1.991   2.734  11.558  1.00  0.00    -0.353 N
ATOM      4  H1  UNL     1      -2.076   1.918  10.952  1.00  0.00     0.166 HD
HETATM    5  C3  UNL     1      -2.924   2.932  12.501  1.00  0.00     0.104 A
HETATM    6  C4  UNL     1      -3.998   2.134  12.737  1.00  0.00     0.134 A
HETATM    7  N3  UNL     1      -4.878   2.453  13.740  1.00  0.00    -0.330 N
ATOM      8  H3  UNL     1      -5.681   1.847  13.908  1.00  0.00     0.168 HD
HETATM    9  C11 UNL     1      -4.713   3.528  14.495  1.00  0.00     0.084 A
HETATM   10  N5  UNL     1      -3.649   4.310  14.253  1.00  0.00    -0.344 N
ATOM     11  H5  UNL     1      -3.517   5.138  14.832  1.00  0.00     0.167 HD
HETATM   12  C16 UNL     1      -2.752   4.061  13.294  1.00  0.00     0.067 A
HETATM   13  C17 UNL     1      -1.693   4.930  13.132  1.00  0.00     0.076 A
HETATM   14  C18 UNL     1      -0.756   4.693  12.153  1.00  0.00     0.140 A
HETATM   15  F1  UNL     1       0.297   5.530  11.966  1.00  0.00    -0.204 F
ENDROOT
BRANCH   6  16
HETATM   16  N2  UNL     1      -4.207   0.975  11.945  1.00  0.00    -0.365 N
HETATM   17  C5  UNL     1      -5.055   1.049  10.811  1.00  0.00     0.124 C
HETATM   18  C6  UNL     1      -4.780  -0.004   9.765  1.00  0.00     0.020 C
HETATM   19  C7  UNL     1      -3.507  -0.749  10.040  1.00  0.00     0.010 C
HETATM   20  C8  UNL     1      -3.642  -1.358  11.429  1.00  0.00     0.027 C
HETATM   21  C10 UNL     1      -3.505  -0.214  12.400  1.00  0.00     0.131 C
BRANCH  20  22
HETATM   22  C9  UNL     1      -2.581  -2.403  11.643  1.00  0.00     0.170 C
BRANCH  22  23
HETATM   23  O1  UNL     1      -2.991  -3.639  11.156  1.00  0.00    -0.400 OA
ATOM     24  H1  UNL     1      -3.415  -4.151  11.836  1.00  0.00     0.209 HD
ENDBRANCH  22  23
ENDBRANCH  20  22
ENDBRANCH   6  16
BRANCH   9  25
HETATM   25  C12 UNL     1      -5.622   3.941  15.599  1.00  0.00     0.096 C
BRANCH  25  26
HETATM   26  C13 UNL     1      -6.410   2.774  16.133  1.00  0.00     0.123 C
BRANCH  26  27
HETATM   27  N4  UNL     1      -5.749   2.007  17.123  1.00  0.00    -0.420 N
HETATM   28  C14 UNL     1      -5.739   0.597  16.958  1.00  0.00     0.142 C
HETATM   29  C15 UNL     1      -6.025   2.377  18.468  1.00  0.00     0.142 C
ENDBRANCH  26  27
ENDBRANCH  25  26
ENDBRANCH   9  25
TORSDOF 6
ENDMDL