MODEL 4
REMARK VINA RESULT: -7.665422423      1.327      1.953
REMARK  6 active torsions:
REMARK  status: ('A' for Active; 'I' for Inactive)
REMARK    1  A    between atoms: N2_8  and  C6_9
REMARK    2  A    between atoms: C8_11  and  N3_12
REMARK    3  A    between atoms: C15_21  and  C16_22
REMARK    4  A    between atoms: C16_22  and  C17_23
REMARK    5  A    between atoms: C17_23  and  C18_24
REMARK    6  A    between atoms: C18_24  and  O1_25
ROOT
HETATM    1  N1  UNL     1       0.347   5.177  11.622  1.00  0.00    -0.195 NA
HETATM    2  C1  UNL     1      -0.515   5.501  12.303  1.00  0.00     0.085 C
HETATM    3  C2  UNL     1      -1.614   5.931  13.179  1.00  0.00     0.196 C
HETATM    4  C3  UNL     1      -1.835   7.404  13.062  1.00  0.00     0.079 C
HETATM    5  C4  UNL     1      -2.873   7.481  11.956  1.00  0.00     0.191 C
HETATM    6  F1  UNL     1      -2.265   7.411  10.719  1.00  0.00    -0.248 F
HETATM    7  C5  UNL     1      -3.735   6.240  12.200  1.00  0.00     0.163 C
HETATM    8  N2  UNL     1      -2.846   5.313  12.829  1.00  0.00    -0.347 N
ENDROOT
BRANCH   8   9
HETATM    9  C6  UNL     1      -3.183   3.929  13.057  1.00  0.00     0.109 A
HETATM   10  C7  UNL     1      -3.868   3.578  14.201  1.00  0.00     0.096 A
HETATM   11  C8  UNL     1      -4.197   2.240  14.440  1.00  0.00     0.108 A
HETATM   12  N4  UNL     1      -3.818   1.367  13.520  1.00  0.00    -0.332 N
HETATM   13  C15 UNL     1      -3.148   1.668  12.390  1.00  0.00     0.084 A
ATOM     14  H4  UNL     1      -4.052   0.387  13.680  1.00  0.00     0.168 HD
HETATM   15  N5  UNL     1      -2.848   2.960  12.191  1.00  0.00    -0.332 N
ATOM     16  H5  UNL     1      -2.342   3.217  11.345  1.00  0.00     0.168 HD
BRANCH  11  17
HETATM   17  N3  UNL     1      -4.896   1.838  15.598  1.00  0.00    -0.362 N
HETATM   18  C9  UNL     1      -5.034   0.485  16.095  1.00  0.00     0.129 C
HETATM   19  C10 UNL     1      -5.865   0.658  17.350  1.00  0.00     0.006 C
HETATM   20  C11 UNL     1      -7.245   1.058  16.939  1.00  0.00     0.008 C
HETATM   21  C14 UNL     1      -5.316   2.017  17.823  1.00  0.00     0.031 C
HETATM   22  C12 UNL     1      -7.084   2.474  16.366  1.00  0.00     0.026 C
HETATM   23  C13 UNL     1      -5.603   2.730  16.487  1.00  0.00     0.086 C
ENDBRANCH  11  17
BRANCH  13  24
HETATM   24  C16 UNL     1      -2.804   0.575  11.476  1.00  0.00     0.078 C
BRANCH  24  25
HETATM   25  C17 UNL     1      -3.941  -0.357  11.213  1.00  0.00     0.033 C
BRANCH  25  26
HETATM   26  C18 UNL     1      -4.873   0.332  10.206  1.00  0.00     0.164 C
BRANCH  26  27
HETATM   27  O1  UNL     1      -5.541   1.391  10.851  1.00  0.00    -0.401 OA
ATOM     28  H1  UNL     1      -6.419   1.464  10.496  1.00  0.00     0.209 HD
ENDBRANCH  26  27
ENDBRANCH  25  26
ENDBRANCH  24  25
ENDBRANCH  13  24
ENDBRANCH   8   9
TORSDOF 6
ENDMDL