MODEL 2
REMARK VINA RESULT: -7.664189383      2.366      4.782
REMARK  6 active torsions:
REMARK  status: ('A' for Active; 'I' for Inactive)
REMARK    1  A    between atoms: O1_1  and  N1_3
REMARK    2  A    between atoms: C1_5  and  C2_6
REMARK    3  A    between atoms: C1_5  and  C10_16
REMARK    4  A    between atoms: C2_6  and  N2_7
REMARK    5  A    between atoms: C10_16  and  C11_17
REMARK    6  A    between atoms: C10_16  and  C17_24
ROOT
HETATM    1  N1  UNL     1      11.857  -5.796  11.301  1.00  0.00    -0.271 N
ATOM      2  H1  UNL     1      12.765  -5.341  11.208  1.00  0.00     0.194 HD
HETATM    3  C1  UNL     1      11.254  -6.112  10.235  1.00  0.00     0.067 C
ENDROOT
BRANCH   3   4
HETATM    4  C2  UNL     1       9.945  -6.767  10.245  1.00  0.00     0.332 C
BRANCH   4   5
HETATM    5  N2  UNL     1       9.944  -8.201  10.115  1.00  0.00     0.100 N
HETATM    6  C3  UNL     1       9.710  -8.815  11.362  1.00  0.00     0.303 C
HETATM    7  C4  UNL     1       9.516 -10.297  11.369  1.00  0.00     0.302 C
HETATM    8  N3  UNL     1       9.390 -10.932  10.107  1.00  0.00     0.090 N
HETATM    9  C5  UNL     1      10.458 -10.734   9.181  1.00  0.00     0.274 C
HETATM   10  C9  UNL     1       8.083 -10.770   9.514  1.00  0.00     0.274 C
HETATM   11  C6  UNL     1      10.047  -9.645   8.216  1.00  0.00     0.066 C
HETATM   12  C7  UNL     1       9.196  -8.660   8.993  1.00  0.00     0.227 C
HETATM   13  C8  UNL     1       7.884  -9.299   9.285  1.00  0.00     0.066 C
ENDBRANCH   4   5
ENDBRANCH   3   4
BRANCH   3  14
HETATM   14  C10 UNL     1      11.924  -5.877   8.947  1.00  0.00    -0.017 C
BRANCH  14  15
HETATM   15  C11 UNL     1      11.705  -4.540   8.365  1.00  0.00    -0.027 A
HETATM   16  C12 UNL     1      11.956  -4.268   7.014  1.00  0.00     0.015 A
HETATM   17  C13 UNL     1      11.729  -3.010   6.512  1.00  0.00     0.043 A
HETATM   18  C14 UNL     1      11.257  -1.990   7.296  1.00  0.00     0.116 A
HETATM   19  F1  UNL     1      11.057  -0.769   6.731  1.00  0.00    -0.206 F
HETATM   20  C15 UNL     1      10.997  -2.218   8.630  1.00  0.00     0.043 A
HETATM   21  C16 UNL     1      11.232  -3.489   9.113  1.00  0.00     0.015 A
ENDBRANCH  14  15
BRANCH  14  22
HETATM   22  C17 UNL     1      13.329  -6.370   8.879  1.00  0.00     0.025 C
HETATM   23  C18 UNL     1      13.320  -7.885   9.027  1.00  0.00     0.036 C
HETATM   24  C19 UNL     1      14.759  -8.285   9.358  1.00  0.00     0.168 C
HETATM   25  O2  UNL     1      15.622  -7.690   8.447  1.00  0.00    -0.391 OA
HETATM   26  C20 UNL     1      14.958  -7.254   7.310  1.00  0.00     0.168 C
HETATM   27  C21 UNL     1      14.114  -6.017   7.668  1.00  0.00     0.036 C
ENDBRANCH  14  22
ENDBRANCH   3  14
BRANCH   1  28
HETATM   28  O1  UNL     1      11.393  -6.015  12.561  1.00  0.00    -0.290 OA
ATOM     29  H1  UNL     1      11.817  -5.726  13.360  1.00  0.00     0.244 HD
ENDBRANCH   1  28
TORSDOF 6
ENDMDL