MODEL 5
REMARK VINA RESULT: -6.765485516      2.116      2.787
REMARK  7 active torsions:
REMARK  status: ('A' for Active; 'I' for Inactive)
REMARK    1  A    between atoms: C2_2  and  O1_3
REMARK    2  A    between atoms: O1_3  and  C3_4
REMARK    3  A    between atoms: C3_4  and  C4_6
REMARK    4  A    between atoms: C5_8  and  N1_9
REMARK    5  A    between atoms: N1_9  and  C6_11
REMARK    6  A    between atoms: C6_11  and  C7_12
REMARK    7  A    between atoms: C7_12  and  N2_13
ROOT
HETATM    1  N1  UNL     1      11.008  -6.364  10.562  1.00  0.00    -0.368 N
ATOM      2  H1  UNL     1      10.006  -6.195  10.651  1.00  0.00     0.161 HD
ENDROOT
BRANCH   1   3
HETATM    3  C5  UNL     1      11.647  -5.861   9.532  1.00  0.00     0.145 A
HETATM    4  S1  UNL     1      11.267  -4.498   8.579  1.00  0.00    -0.046 SA
HETATM    5  C4  UNL     1      12.597  -4.570   7.508  1.00  0.00     0.105 A
HETATM    6  C16 UNL     1      13.269  -5.670   7.964  1.00  0.00     0.030 A
HETATM    7  N3  UNL     1      12.777  -6.309   8.984  1.00  0.00    -0.339 N
HETATM    8  C17 UNL     1      14.546  -6.088   7.260  1.00  0.00     0.070 C
ATOM      9  H3  UNL     1      13.245  -7.135   9.357  1.00  0.00     0.168 HD
BRANCH   5  10
HETATM   10  C3  UNL     1      12.903  -3.664   6.389  1.00  0.00     0.302 C
HETATM   11  O2  UNL     1      12.601  -4.012   5.227  1.00  0.00    -0.259 OA
BRANCH  10  12
HETATM   12  O1  UNL     1      13.512  -2.465   6.684  1.00  0.00    -0.317 OA
BRANCH  12  13
HETATM   13  C2  UNL     1      12.842  -1.487   7.465  1.00  0.00     0.174 C
HETATM   14  C1  UNL     1      11.531  -1.199   6.742  1.00  0.00     0.034 C
ENDBRANCH  12  13
ENDBRANCH  10  12
ENDBRANCH   5  10
ENDBRANCH   1   3
BRANCH   1  15
HETATM   15  C6  UNL     1      11.665  -7.136  11.558  1.00  0.00     0.163 C
BRANCH  15  16
HETATM   16  C7  UNL     1      11.142  -8.510  11.776  1.00  0.00     0.178 C
HETATM   17  C11 UNL     1       9.620  -8.426  11.654  1.00  0.00     0.046 C
HETATM   18  C12 UNL     1       8.986  -9.779  11.692  1.00  0.00     0.040 C
HETATM   19  C13 UNL     1       9.571 -10.777  10.746  1.00  0.00     0.170 C
HETATM   20  F1  UNL     1       9.221 -10.464   9.461  1.00  0.00    -0.249 F
HETATM   21  C14 UNL     1      11.076 -10.801  10.873  1.00  0.00     0.040 C
HETATM   22  C15 UNL     1      11.567  -9.373  10.607  1.00  0.00     0.046 C
BRANCH  16  23
HETATM   23  N2  UNL     1      11.490  -9.166  12.980  1.00  0.00     0.124 N
HETATM   24  C8  UNL     1      11.002  -8.640  14.206  1.00  0.00     0.302 C
HETATM   25  C9  UNL     1      12.226  -8.287  14.980  1.00  0.00     0.200 C
HETATM   26  O3  UNL     1      13.327  -8.592  14.226  1.00  0.00    -0.361 OA
HETATM   27  C10 UNL     1      12.915  -9.349  13.133  1.00  0.00     0.441 C
ENDBRANCH  16  23
ENDBRANCH  15  16
ENDBRANCH   1  15
TORSDOF 7
ENDMDL