MODEL 3
REMARK VINA RESULT: -7.725028955      3.861      7.101
REMARK  5 active torsions:
REMARK  status: ('A' for Active; 'I' for Inactive)
REMARK    1  A    between atoms: C2_3  and  C3_4
REMARK       I    between atoms: C3_4  and  N2_6
REMARK    2  A    between atoms: N2_6  and  C4_8
REMARK    3  A    between atoms: C4_8  and  C5_9
REMARK    4  A    between atoms: N3_11  and  C7_12
REMARK    5  A    between atoms: C10_16  and  C11_17
ROOT
HETATM    1  N1  UNL     1      13.657  -2.197   5.811  1.00  0.00    -0.197 NA
HETATM    2  C1  UNL     1      12.646  -1.917   6.333  1.00  0.00     0.068 C
HETATM    3  C2  UNL     1      11.397  -1.568   6.997  1.00  0.00     0.226 C
ENDROOT
BRANCH   3   4
HETATM    4  C3  UNL     1      11.226  -2.324   8.266  1.00  0.00     0.230 C
HETATM    5  O1  UNL     1      10.368  -1.926   9.081  1.00  0.00    -0.273 OA
HETATM    6  N2  UNL     1      11.998  -3.468   8.577  1.00  0.00    -0.358 N
ATOM      7  H2  UNL     1      12.694  -3.779   7.900  1.00  0.00     0.162 HD
BRANCH   6   8
HETATM    8  C4  UNL     1      11.853  -4.215   9.795  1.00  0.00     0.156 C
BRANCH   8   9
HETATM    9  C5  UNL     1      12.420  -5.599   9.658  1.00  0.00     0.170 C
HETATM   10  C6  UNL     1      11.692  -6.481   8.695  1.00  0.00     0.169 C
HETATM   11  N3  UNL     1      11.323  -7.644   9.463  1.00  0.00    -0.284 N
HETATM   12  C17 UNL     1      11.428  -7.308  10.827  1.00  0.00     0.368 C
HETATM   13  O2  UNL     1      10.847  -7.851  11.829  1.00  0.00    -0.238 OA
HETATM   14  O3  UNL     1      12.298  -6.247  10.920  1.00  0.00    -0.295 OA
BRANCH  11  15
HETATM   15  C7  UNL     1      10.914  -8.925   8.978  1.00  0.00     0.089 A
HETATM   16  S1  UNL     1       9.311  -9.443   8.576  1.00  0.00    -0.073 SA
HETATM   17  C8  UNL     1       9.650 -11.032   8.094  1.00  0.00     0.025 A
HETATM   18  C9  UNL     1      11.005 -11.125   8.256  1.00  0.00    -0.032 A
HETATM   19  C16 UNL     1       8.791 -12.133   7.603  1.00  0.00     0.210 C
HETATM   20  C10 UNL     1      11.654 -10.047   8.710  1.00  0.00    -0.004 A
HETATM   21  C13 UNL     1      11.530 -12.500   7.871  1.00  0.00     0.040 C
HETATM   22  C14 UNL     1      10.650 -13.466   8.657  1.00  0.00     0.008 C
HETATM   23  C15 UNL     1       9.313 -13.492   7.978  1.00  0.00     0.043 C
HETATM   24  F1  UNL     1       8.730 -12.026   6.215  1.00  0.00    -0.244 F
BRANCH  20  25
HETATM   25  C11 UNL     1      13.153 -10.009   8.930  1.00  0.00     0.165 C
HETATM   26  C12 UNL     1      13.801  -9.455   7.749  1.00  0.00     0.063 C
HETATM   27  N4  UNL     1      14.308  -9.043   6.823  1.00  0.00    -0.197 NA
ENDBRANCH  20  25
ENDBRANCH  11  15
ENDBRANCH   8   9
ENDBRANCH   6   8
ENDBRANCH   3   4
TORSDOF 5
ENDMDL