MODEL 1
REMARK VINA RESULT: -7.135625021      0.000      0.000
REMARK  4 active torsions:
REMARK  status: ('A' for Active; 'I' for Inactive)
REMARK    1  A    between atoms: C2_2  and  C3_3
REMARK    2  A    between atoms: C3_3  and  N1_4
REMARK    3  A    between atoms: N2_7  and  C6_8
REMARK    4  A    between atoms: N5_20  and  C12_21
ROOT
HETATM    1  C6  UNL     1      12.634  -7.608   8.646  1.00  0.00     0.073 A
HETATM    2  C7  UNL     1      13.949  -8.034   8.624  1.00  0.00     0.129 A
HETATM    3 CL1  UNL     1      15.315  -6.954   8.844  1.00  0.00    -0.076 Cl
HETATM    4  C8  UNL     1      14.175  -9.389   8.488  1.00  0.00     0.271 A
HETATM    5  O1  UNL     1      15.379  -9.773   8.466  1.00  0.00    -0.266 OA
HETATM    6  N3  UNL     1      13.175 -10.292   8.381  1.00  0.00    -0.306 N
ATOM      7  H3  UNL     1      13.401 -11.281   8.284  1.00  0.00     0.170 HD
HETATM    8  C9  UNL     1      11.887  -9.907   8.400  1.00  0.00     0.139 A
HETATM    9  C10 UNL     1      11.593  -8.560   8.532  1.00  0.00     0.055 A
HETATM   10  C11 UNL     1      10.230  -8.461   8.499  1.00  0.00     0.125 A
HETATM   11  N4  UNL     1       9.755  -9.736   8.352  1.00  0.00    -0.307 N
ATOM     12  H4  UNL     1       8.766  -9.979   8.297  1.00  0.00     0.186 HD
HETATM   13  N5  UNL     1      10.738 -10.612   8.292  1.00  0.00    -0.271 N
ENDROOT
BRANCH   1  14
HETATM   14  N2  UNL     1      12.346  -6.237   8.681  1.00  0.00    -0.375 N
HETATM   15  C5  UNL     1      12.505  -5.364   7.545  1.00  0.00     0.153 C
HETATM   16  C4  UNL     1      11.341  -4.364   7.377  1.00  0.00     0.292 C
HETATM   17  N1  UNL     1      10.999  -3.615   8.508  1.00  0.00     0.095 N
HETATM   18  C18 UNL     1      10.746  -4.571   9.572  1.00  0.00     0.292 C
HETATM   19  C17 UNL     1      11.986  -5.418   9.807  1.00  0.00     0.153 C
BRANCH  17  20
HETATM   20  C3  UNL     1      11.842  -2.527   8.872  1.00  0.00     0.299 C
BRANCH  20  21
HETATM   21  C2  UNL     1      12.063  -1.607   7.724  1.00  0.00    -0.007 C
HETATM   22  C1  UNL     1      13.277  -1.253   7.317  1.00  0.00     0.008 C
ENDBRANCH  20  21
ENDBRANCH  17  20
ENDBRANCH   1  14
BRANCH  13  23
HETATM   23  C12 UNL     1      10.621 -12.074   8.137  1.00  0.00     0.114 C
HETATM   24  C13 UNL     1       9.375 -12.477   7.408  1.00  0.00     0.053 C
HETATM   25  C14 UNL     1       9.503 -13.962   7.087  1.00  0.00     0.169 C
HETATM   26  O2  UNL     1      10.375 -14.580   7.962  1.00  0.00    -0.391 OA
HETATM   27  C15 UNL     1      10.148 -14.166   9.291  1.00  0.00     0.169 C
HETATM   28  C16 UNL     1      10.870 -12.818   9.400  1.00  0.00     0.053 C
ENDBRANCH  13  23
TORSDOF 4
ENDMDL