MODEL 2
REMARK VINA RESULT: -7.550874250      0.950      1.044
REMARK  5 active torsions:
REMARK  status: ('A' for Active; 'I' for Inactive)
REMARK    1  A    between atoms: O1_2  and  C2_3
REMARK       I    between atoms: N2_8  and  C6_9
REMARK       I    between atoms: C6_9  and  N3_11
REMARK    2  A    between atoms: N3_11  and  C7_13
REMARK    3  A    between atoms: C10_18  and  O3_19
REMARK    4  A    between atoms: O3_19  and  C11_20
REMARK    5  A    between atoms: C11_20  and  C12_21
ROOT
HETATM    1  C2  UNL     1      11.358 -11.591  14.050  1.00  0.00     0.151 C
HETATM    2  C3  UNL     1      11.082 -10.746  15.199  1.00  0.00     0.098 C
HETATM    3  N1  UNL     1      10.865 -10.087  16.118  1.00  0.00    -0.194 NA
HETATM    4  C4  UNL     1      12.845 -11.493  13.762  1.00  0.00     0.074 C
HETATM    5  C5  UNL     1      13.190 -10.344  12.839  1.00  0.00     0.131 C
HETATM    6  N2  UNL     1      12.493 -10.544  11.599  1.00  0.00    -0.334 N
HETATM    7  C6  UNL     1      12.944  -9.882  10.420  1.00  0.00     0.322 C
HETATM    8  O2  UNL     1      12.289 -10.126   9.387  1.00  0.00    -0.247 OA
HETATM    9  N3  UNL     1      14.038  -9.034  10.463  1.00  0.00    -0.307 N
ATOM     10  H3  UNL     1      14.505  -8.907  11.361  1.00  0.00     0.170 HD
HETATM   11  C17 UNL     1      11.324 -11.431  11.608  1.00  0.00     0.131 C
HETATM   12  C18 UNL     1      10.556 -11.054  12.863  1.00  0.00     0.074 C
ENDROOT
BRANCH   1  13
HETATM   13  O1  UNL     1      11.068 -12.902  14.216  1.00  0.00    -0.370 OA
HETATM   14  C1  UNL     1      12.061 -13.793  14.438  1.00  0.00     0.204 C
ENDBRANCH   1  13
BRANCH   9  15
HETATM   15  C7  UNL     1      14.552  -8.335   9.350  1.00  0.00     0.054 A
HETATM   16  C8  UNL     1      15.724  -8.836   8.732  1.00  0.00     0.117 A
HETATM   17  N4  UNL     1      16.223  -8.180   7.704  1.00  0.00    -0.370 N
HETATM   18  C9  UNL     1      15.658  -7.042   7.211  1.00  0.00     0.124 A
ATOM     19  H4  UNL     1      17.067  -8.538   7.257  1.00  0.00     0.164 HD
HETATM   20  C10 UNL     1      14.527  -6.537   7.789  1.00  0.00     0.086 A
HETATM   21  C16 UNL     1      13.961  -7.202   8.887  1.00  0.00     0.069 A
BRANCH  20  22
HETATM   22  O3  UNL     1      13.894  -5.366   7.326  1.00  0.00    -0.349 OA
BRANCH  22  23
HETATM   23  C11 UNL     1      12.634  -5.011   7.890  1.00  0.00     0.182 C
BRANCH  23  24
HETATM   24  C12 UNL     1      12.160  -3.745   7.212  1.00  0.00     0.036 C
HETATM   25  C13 UNL     1      12.095  -2.620   8.193  1.00  0.00     0.035 C
HETATM   26  C14 UNL     1      12.715  -1.490   7.382  1.00  0.00     0.168 C
HETATM   27  O4  UNL     1      13.609  -2.114   6.527  1.00  0.00    -0.391 OA
HETATM   28  C15 UNL     1      13.104  -3.329   6.150  1.00  0.00     0.174 C
ENDBRANCH  23  24
ENDBRANCH  22  23
ENDBRANCH  20  22
ENDBRANCH   9  15
TORSDOF 5
ENDMDL