MODEL 3
REMARK VINA RESULT: -7.874933094      1.165      1.287
REMARK  5 active torsions:
REMARK  status: ('A' for Active; 'I' for Inactive)
REMARK    1  A    between atoms: C3_3  and  C4_4
REMARK    2  A    between atoms: C6_6  and  C7_7
REMARK    3  A    between atoms: C7_7  and  N1_8
REMARK    4  A    between atoms: C11_14  and  N3_15
REMARK    5  A    between atoms: C14_18  and  O1_19
ROOT
HETATM    1  C1  UNL     1      11.437  -1.574   7.094  1.00  0.00     0.012 C
HETATM    2  C2  UNL     1      11.070  -2.193   8.062  1.00  0.00    -0.111 C
HETATM    3  C3  UNL     1      10.607  -2.976   9.235  1.00  0.00     0.152 C
ENDROOT
BRANCH   3   4
HETATM    4  C4  UNL     1      11.502  -4.147   9.418  1.00  0.00     0.046 A
HETATM    5  C5  UNL     1      11.835  -5.099   8.462  1.00  0.00     0.068 A
HETATM    6  C6  UNL     1      12.695  -6.016   9.062  1.00  0.00     0.116 A
HETATM    7  O2  UNL     1      12.844  -5.615  10.283  1.00  0.00    -0.236 OA
HETATM    8  N5  UNL     1      12.162  -4.530  10.524  1.00  0.00    -0.264 N
ATOM      9  H5  UNL     1      12.134  -4.043  11.420  1.00  0.00     0.194 HD
BRANCH   6  10
HETATM   10  C7  UNL     1      13.292  -7.192   8.399  1.00  0.00     0.129 C
BRANCH  10  11
HETATM   11  N1  UNL     1      13.117  -8.430   9.037  1.00  0.00    -0.361 N
HETATM   12  C8  UNL     1      12.140  -9.327   8.564  1.00  0.00     0.070 C
HETATM   13  C9  UNL     1      12.638 -10.747   8.347  1.00  0.00     0.104 C
HETATM   14  C10 UNL     1      13.123 -11.213   9.679  1.00  0.00     0.056 A
HETATM   15  N2  UNL     1      13.005 -12.289  10.450  1.00  0.00    -0.193 N
HETATM   16  C18 UNL     1      13.905 -10.294  10.359  1.00  0.00     0.068 A
HETATM   17  C11 UNL     1      13.684 -12.111  11.631  1.00  0.00     0.681 A
ATOM     18  H2  UNL     1      12.483 -13.129  10.200  1.00  0.00     0.184 HD
HETATM   19  N4  UNL     1      14.216 -10.871  11.520  1.00  0.00    -0.192 N
ATOM     20  H4  UNL     1      14.789 -10.430  12.240  1.00  0.00     0.184 HD
HETATM   21  C19 UNL     1      14.229  -8.976   9.751  1.00  0.00     0.187 C
BRANCH  17  22
HETATM   22  N3  UNL     1      13.784 -13.054  12.681  1.00  0.00    -0.215 N
HETATM   23  C12 UNL     1      13.103 -12.834  13.945  1.00  0.00     0.144 C
HETATM   24  C13 UNL     1      14.153 -12.730  15.047  1.00  0.00     0.055 C
HETATM   25  C14 UNL     1      15.088 -13.931  15.026  1.00  0.00     0.158 C
HETATM   26  C16 UNL     1      15.674 -14.109  13.672  1.00  0.00     0.217 C
HETATM   27  F1  UNL     1      16.541 -15.161  13.644  1.00  0.00    -0.245 F
HETATM   28  C17 UNL     1      14.623 -14.246  12.571  1.00  0.00     0.181 C
BRANCH  25  29
HETATM   29  O1  UNL     1      16.137 -13.584  15.892  1.00  0.00    -0.388 OA
HETATM   30  C15 UNL     1      16.137 -14.329  17.052  1.00  0.00     0.202 C
ENDBRANCH  25  29
ENDBRANCH  17  22
ENDBRANCH  10  11
ENDBRANCH   6  10
ENDBRANCH   3   4
TORSDOF 5
ENDMDL