MODEL 3
REMARK VINA RESULT: -7.349958907      2.971      6.570
REMARK  7 active torsions:
REMARK  status: ('A' for Active; 'I' for Inactive)
REMARK    1  A    between atoms: O1_2  and  C2_3
REMARK    2  A    between atoms: C5_7  and  N1_8
REMARK    3  A    between atoms: N2_10  and  C6_12
REMARK    4  A    between atoms: C6_12  and  C7_13
REMARK    5  A    between atoms: C7_13  and  O2_14
REMARK    6  A    between atoms: C7_13  and  N3_16
REMARK    7  A    between atoms: C16_27  and  N5_28
ROOT
HETATM    1  C2  UNL     1      12.016  -2.665   7.419  1.00  0.00     0.134 A
HETATM    2  C3  UNL     1      13.003  -2.909   6.490  1.00  0.00     0.154 A
HETATM    3  F1  UNL     1      13.419  -1.961   5.606  1.00  0.00    -0.203 F
HETATM    4  C4  UNL     1      13.572  -4.164   6.478  1.00  0.00     0.076 A
HETATM    5  C5  UNL     1      13.174  -5.158   7.366  1.00  0.00     0.059 A
HETATM    6  C12 UNL     1      12.180  -4.918   8.304  1.00  0.00     0.002 A
HETATM    7  C13 UNL     1      11.625  -3.663   8.301  1.00  0.00     0.077 A
HETATM    8  N4  UNL     1      10.588  -3.215   9.188  1.00  0.00    -0.367 N
ATOM      9  H4  UNL     1      10.047  -2.408   8.875  1.00  0.00     0.165 HD
HETATM   10  C14 UNL     1      10.259  -3.708  10.333  1.00  0.00     0.063 C
HETATM   11  C15 UNL     1      10.906  -4.886  10.997  1.00  0.00     0.069 C
HETATM   12  C16 UNL     1      10.850  -6.080  10.078  1.00  0.00     0.087 C
HETATM   13  C19 UNL     1      11.971  -6.148   9.101  1.00  0.00     0.068 C
ENDROOT
BRANCH   5  14
HETATM   14  N1  UNL     1      13.791  -6.452   7.320  1.00  0.00    -0.304 N
HETATM   15  N2  UNL     1      15.053  -6.497   7.292  1.00  0.00    -0.332 N
ATOM     16  H2  UNL     1      15.561  -5.612   7.304  1.00  0.00     0.180 HD
ATOM     17  H1  UNL     1      13.231  -7.305   7.311  1.00  0.00     0.186 HD
BRANCH  15  18
HETATM   18  C6  UNL     1      15.818  -7.702   7.245  1.00  0.00     0.203 C
BRANCH  18  19
HETATM   19  C7  UNL     1      15.678  -8.493   8.510  1.00  0.00     0.375 C
BRANCH  19  20
HETATM   20  O2  UNL     1      16.865  -8.666   9.183  1.00  0.00    -0.366 OA
ATOM     21  H2  UNL     1      16.762  -8.713  10.127  1.00  0.00     0.212 HD
ENDBRANCH  19  20
BRANCH  19  22
HETATM   22  N3  UNL     1      14.927  -9.713   8.304  1.00  0.00     0.118 N
HETATM   23  C8  UNL     1      13.984  -9.576   7.237  1.00  0.00     0.276 C
HETATM   24  C9  UNL     1      12.621  -9.939   7.784  1.00  0.00     0.032 C
HETATM   25  C10 UNL     1      12.824  -9.642   9.265  1.00  0.00     0.032 C
HETATM   26  C11 UNL     1      14.233 -10.173   9.468  1.00  0.00     0.276 C
ENDBRANCH  19  22
ENDBRANCH  18  19
ENDBRANCH  15  18
ENDBRANCH   5  14
BRANCH   1  27
HETATM   27  O1  UNL     1      11.418  -1.414   7.464  1.00  0.00    -0.351 OA
HETATM   28  C1  UNL     1      10.713  -0.941   6.307  1.00  0.00     0.210 C
ENDBRANCH   1  27
BRANCH  12  29
HETATM   29  N5  UNL     1      10.781  -7.325  10.773  1.00  0.00    -0.416 N
HETATM   30  C17 UNL     1      11.220  -7.290  12.128  1.00  0.00     0.143 C
HETATM   31  C18 UNL     1       9.614  -8.105  10.519  1.00  0.00     0.143 C
ENDBRANCH  12  29
TORSDOF 7
ENDMDL