MODEL 2
REMARK VINA RESULT: -7.705926040      0.478      1.092
REMARK  5 active torsions:
REMARK  status: ('A' for Active; 'I' for Inactive)
REMARK    1  A    between atoms: C2_5  and  O2_6
REMARK    2  A    between atoms: O2_6  and  C3_7
REMARK    3  A    between atoms: C3_7  and  C4_8
REMARK    4  A    between atoms: C9_14  and  N2_15
REMARK    5  A    between atoms: C12_18  and  C13_19
ROOT
HETATM    1  O1  UNL     1      11.503  -5.944  13.494  1.00  0.00    -0.265 OA
HETATM    2  C1  UNL     1      11.324  -6.006  12.240  1.00  0.00     0.288 A
HETATM    3  N1  UNL     1      11.445  -4.916  11.503  1.00  0.00    -0.301 N
ATOM      4  H1  UNL     1      11.683  -4.044  11.976  1.00  0.00     0.171 HD
HETATM    5  C2  UNL     1      11.267  -4.883  10.119  1.00  0.00     0.147 A
HETATM    6  C8  UNL     1      10.942  -6.122   9.552  1.00  0.00     0.088 A
HETATM    7  C9  UNL     1      10.807  -7.281  10.279  1.00  0.00     0.079 A
HETATM    8  C18 UNL     1      11.005  -7.197  11.640  1.00  0.00     0.210 A
HETATM    9  F1  UNL     1      10.886  -8.307  12.413  1.00  0.00    -0.198 F
ENDROOT
BRANCH   7  10
HETATM   10  N2  UNL     1      10.475  -8.530   9.657  1.00  0.00    -0.378 N
HETATM   11  C10 UNL     1       9.085  -8.724   9.278  1.00  0.00     0.123 C
HETATM   12  C11 UNL     1       8.934 -10.224   9.011  1.00  0.00     0.031 C
HETATM   13  C12 UNL     1       9.784 -10.510   7.797  1.00  0.00     0.046 C
HETATM   14  C16 UNL     1      11.223 -10.297   8.115  1.00  0.00     0.031 C
HETATM   15  C17 UNL     1      11.448  -9.559   9.408  1.00  0.00     0.123 C
BRANCH  13  16
HETATM   16  C13 UNL     1       9.537 -11.951   7.418  1.00  0.00     0.054 A
HETATM   17  N3  UNL     1       8.508 -12.464   6.764  1.00  0.00    -0.363 N
HETATM   18  C14 UNL     1       8.464 -13.735   6.524  1.00  0.00     0.095 A
ATOM     19  H3  UNL     1       7.750 -11.858   6.449  1.00  0.00     0.165 HD
HETATM   20  C15 UNL     1       9.515 -14.501   6.973  1.00  0.00     0.068 A
HETATM   21  S1  UNL     1      10.504 -13.324   7.717  1.00  0.00    -0.087 SA
ENDBRANCH  13  16
ENDBRANCH   7  10
BRANCH   5  22
HETATM   22  O2  UNL     1      11.412  -3.749   9.471  1.00  0.00    -0.335 OA
BRANCH  22  23
HETATM   23  C3  UNL     1      10.943  -2.688   8.892  1.00  0.00     0.184 C
BRANCH  23  24
HETATM   24  C4  UNL     1      11.375  -2.227   7.540  1.00  0.00     0.036 C
HETATM   25  C5  UNL     1      12.628  -1.458   7.420  1.00  0.00     0.035 C
HETATM   26  C6  UNL     1      13.139  -1.864   6.030  1.00  0.00     0.168 C
HETATM   27  O3  UNL     1      12.584  -3.081   5.733  1.00  0.00    -0.391 OA
HETATM   28  C7  UNL     1      11.658  -3.458   6.663  1.00  0.00     0.174 C
ENDBRANCH  23  24
ENDBRANCH  22  23
ENDBRANCH   5  22
TORSDOF 5
ENDMDL