MODEL 3
REMARK VINA RESULT: -8.082886875      0.224      1.168
REMARK  6 active torsions:
REMARK  status: ('A' for Active; 'I' for Inactive)
REMARK    1  A    between atoms: O1_1  and  C1_3
REMARK    2  A    between atoms: C1_3  and  C2_4
REMARK    3  A    between atoms: C1_3  and  C13_18
REMARK    4  A    between atoms: C2_4  and  N1_5
REMARK    5  A    between atoms: N2_8  and  C5_9
REMARK    6  A    between atoms: C16_21  and  N3_22
ROOT
HETATM    1  C1  UNL     1      13.314 -10.608   9.948  1.00  0.00     0.189 C
ENDROOT
BRANCH   1   2
HETATM    2  O1  UNL     1      13.783 -11.148  11.116  1.00  0.00    -0.386 OA
ATOM      3  H1  UNL     1      14.475 -11.795  11.039  1.00  0.00     0.210 HD
ENDBRANCH   1   2
BRANCH   1   4
HETATM    4  C2  UNL     1      14.321  -9.981   9.050  1.00  0.00     0.099 C
BRANCH   4   5
HETATM    5  N1  UNL     1      14.227  -8.582   8.960  1.00  0.00    -0.368 N
HETATM    6  C3  UNL     1      13.320  -7.954   9.861  1.00  0.00     0.147 C
HETATM    7  C4  UNL     1      12.404  -6.930   9.257  1.00  0.00     0.143 C
HETATM    8  N2  UNL     1      13.073  -6.042   8.357  1.00  0.00    -0.374 N
HETATM    9  C11 UNL     1      14.323  -6.424   7.796  1.00  0.00     0.167 C
HETATM   10  C12 UNL     1      14.540  -7.916   7.779  1.00  0.00     0.083 C
BRANCH   8  11
HETATM   11  C5  UNL     1      12.498  -4.802   8.028  1.00  0.00     0.030 A
HETATM   12  C6  UNL     1      12.806  -4.217   6.818  1.00  0.00     0.032 A
HETATM   13  C7  UNL     1      12.251  -3.002   6.477  1.00  0.00     0.044 A
HETATM   14  C8  UNL     1      11.374  -2.335   7.331  1.00  0.00     0.116 A
HETATM   15  F1  UNL     1      10.843  -1.145   6.973  1.00  0.00    -0.206 F
HETATM   16  C9  UNL     1      11.066  -2.920   8.540  1.00  0.00     0.044 A
HETATM   17  C10 UNL     1      11.632  -4.154   8.881  1.00  0.00     0.032 A
ENDBRANCH   8  11
ENDBRANCH   4   5
ENDBRANCH   1   4
BRANCH   1  18
HETATM   18  C13 UNL     1      12.535 -11.660   9.198  1.00  0.00    -0.025 A
HETATM   19  C14 UNL     1      11.770 -11.317   8.101  1.00  0.00     0.012 A
HETATM   20  C15 UNL     1      11.037 -12.252   7.393  1.00  0.00     0.031 A
HETATM   21  C16 UNL     1      11.044 -13.582   7.763  1.00  0.00     0.041 A
HETATM   22  C19 UNL     1      11.807 -13.925   8.856  1.00  0.00     0.031 A
HETATM   23  C20 UNL     1      12.551 -12.979   9.575  1.00  0.00     0.012 A
BRANCH  21  24
HETATM   24  N3  UNL     1      10.296 -14.564   7.051  1.00  0.00    -0.302 N
HETATM   25  C17 UNL     1      10.799 -15.720   6.584  1.00  0.00     0.206 A
HETATM   26  N4  UNL     1       9.779 -16.355   5.980  1.00  0.00    -0.295 N
HETATM   27  N5  UNL     1       8.680 -15.634   6.060  1.00  0.00    -0.295 N
ATOM     28  H4  UNL     1       9.847 -17.266   5.526  1.00  0.00     0.187 HD
HETATM   29  C18 UNL     1       8.991 -14.520   6.723  1.00  0.00     0.206 A
ATOM     30  H5  UNL     1       7.765 -15.882   5.685  1.00  0.00     0.187 HD
ENDBRANCH  21  24
ENDBRANCH   1  18
TORSDOF 6
ENDMDL