MODEL 5
REMARK VINA RESULT: -6.286375744      4.152      7.184
REMARK  6 active torsions:
REMARK  status: ('A' for Active; 'I' for Inactive)
REMARK    1  A    between atoms: O1_1  and  C1_3
REMARK    2  A    between atoms: C1_3  and  C2_4
REMARK    3  A    between atoms: N1_12  and  C8_13
REMARK    4  A    between atoms: C8_13  and  C9_14
REMARK    5  A    between atoms: C9_14  and  C10_15
REMARK    6  A    between atoms: C10_15  and  N2_16
ROOT
HETATM    1  C1  UNL     1      14.338  -7.251   8.780  1.00  0.00     0.094 C
HETATM    2  C6  UNL     1      13.421  -8.191   9.596  1.00  0.00     0.073 C
HETATM    3  C7  UNL     1      12.329  -8.496   8.618  1.00  0.00     0.276 C
HETATM    4  N1  UNL     1      12.805  -9.467   7.682  1.00  0.00     0.088 N
HETATM    5  C13 UNL     1      14.160  -9.303   7.298  1.00  0.00     0.276 C
HETATM    6  C14 UNL     1      14.815  -7.977   7.580  1.00  0.00     0.073 C
ENDROOT
BRANCH   4   7
HETATM    7  C8  UNL     1      12.507 -10.766   8.252  1.00  0.00     0.274 C
BRANCH   7   8
HETATM    8  C9  UNL     1      11.044 -11.042   8.412  1.00  0.00     0.050 C
BRANCH   8   9
HETATM    9  C10 UNL     1      10.582 -11.954   7.256  1.00  0.00     0.132 C
BRANCH   9  10
HETATM   10  N2  UNL     1       9.160 -12.070   7.289  1.00  0.00    -0.337 N
HETATM   11  C11 UNL     1       8.321 -12.601   6.436  1.00  0.00     0.200 A
HETATM   12  N3  UNL     1       7.053 -12.505   6.879  1.00  0.00    -0.295 N
HETATM   13  N4  UNL     1       7.162 -11.876   8.068  1.00  0.00    -0.295 N
ATOM     14  H3  UNL     1       6.203 -12.834   6.420  1.00  0.00     0.187 HD
HETATM   15  C12 UNL     1       8.433 -11.594   8.353  1.00  0.00     0.200 A
ATOM     16  H4  UNL     1       6.373 -11.645   8.671  1.00  0.00     0.187 HD
ENDBRANCH   9  10
ENDBRANCH   8   9
ENDBRANCH   7   8
ENDBRANCH   4   7
BRANCH   1  17
HETATM   17  O1  UNL     1      15.319  -6.822   9.641  1.00  0.00    -0.384 OA
ATOM     18  H1  UNL     1      14.883  -6.296  10.302  1.00  0.00     0.211 HD
ENDBRANCH   1  17
BRANCH   1  19
HETATM   19  C2  UNL     1      13.481  -6.055   8.487  1.00  0.00     0.018 A
HETATM   20  C3  UNL     1      13.247  -5.357   7.360  1.00  0.00     0.019 A
HETATM   21  C4  UNL     1      12.380  -4.324   7.425  1.00  0.00     0.028 A
HETATM   22  C5  UNL     1      11.809  -4.069   8.637  1.00  0.00     0.052 A
HETATM   23 BR1  UNL     1      10.563  -2.678   9.114  1.00  0.00    -0.043 Br
HETATM   24  S1  UNL     1      12.496  -5.268   9.630  1.00  0.00    -0.084 SA
ENDBRANCH   1  19
TORSDOF 6
ENDMDL