MODEL 1
REMARK VINA RESULT: -7.444394910      0.000      0.000
REMARK  5 active torsions:
REMARK  status: ('A' for Active; 'I' for Inactive)
REMARK    1  A    between atoms: N2_5  and  C3_6
REMARK    2  A    between atoms: C3_6  and  C5_8
REMARK       I    between atoms: C5_8  and  N3_10
REMARK    3  A    between atoms: N3_10  and  C6_12
REMARK    4  A    between atoms: C6_12  and  C7_13
REMARK    5  A    between atoms: C11_20  and  N5_21
ROOT
HETATM    1  C1  UNL     1      -9.934   3.291  16.288  1.00  0.00     0.074 C
HETATM    2  C2  UNL     1      -9.195   2.234  16.990  1.00  0.00     0.069 A
HETATM    3  N1  UNL     1      -9.387   1.969  18.315  1.00  0.00    -0.284 N
ATOM      4  H1  UNL     1     -10.042   2.467  18.918  1.00  0.00     0.188 HD
HETATM    5  N2  UNL     1      -8.619   0.993  18.702  1.00  0.00    -0.219 N
HETATM    6  N4  UNL     1      -7.921   0.613  17.644  1.00  0.00    -0.266 N
ATOM      7  H4  UNL     1      -7.230  -0.137  17.644  1.00  0.00     0.190 HD
HETATM    8  C11 UNL     1      -8.248   1.354  16.567  1.00  0.00     0.144 A
ENDROOT
BRANCH   5   9
HETATM    9  C3  UNL     1      -8.517   0.409  20.024  1.00  0.00     0.214 C
HETATM   10  C4  UNL     1      -7.251   0.891  20.693  1.00  0.00     0.046 C
BRANCH   9  11
HETATM   11  C5  UNL     1      -8.426  -1.081  19.958  1.00  0.00     0.243 C
HETATM   12  O1  UNL     1      -9.513  -1.713  19.933  1.00  0.00    -0.271 OA
HETATM   13  N3  UNL     1      -7.191  -1.759  19.925  1.00  0.00    -0.357 N
ATOM     14  H3  UNL     1      -6.319  -1.232  19.947  1.00  0.00     0.162 HD
BRANCH  13  15
HETATM   15  C6  UNL     1      -7.162  -3.184  19.861  1.00  0.00     0.154 C
BRANCH  15  16
HETATM   16  C7  UNL     1      -7.283  -3.736  18.479  1.00  0.00     0.139 C
HETATM   17  C8  UNL     1      -6.371  -4.912  18.320  1.00  0.00     0.035 C
HETATM   18  C9  UNL     1      -5.434  -4.511  17.227  1.00  0.00     0.029 C
HETATM   19  C10 UNL     1      -5.863  -3.133  16.859  1.00  0.00     0.168 C
HETATM   20  O2  UNL     1      -7.042  -2.841  17.481  1.00  0.00    -0.384 OA
ENDBRANCH  15  16
ENDBRANCH  13  15
ENDBRANCH   9  11
ENDBRANCH   5   9
BRANCH   8  21
HETATM   21  N5  UNL     1      -7.742   1.277  15.244  1.00  0.00    -0.347 N
HETATM   22  C12 UNL     1      -7.823   0.017  14.534  1.00  0.00     0.126 C
HETATM   23  C13 UNL     1      -8.427   0.362  13.167  1.00  0.00     0.020 C
HETATM   24  C14 UNL     1      -7.462   1.204  12.375  1.00  0.00     0.005 C
HETATM   25  C15 UNL     1      -6.429   1.764  13.331  1.00  0.00     0.041 C
HETATM   26  C16 UNL     1      -7.136   2.379  14.527  1.00  0.00     0.183 C
HETATM   27 CL1  UNL     1      -5.942   3.253  15.486  1.00  0.00    -0.102 Cl
ENDBRANCH   8  21
TORSDOF 5
ENDMDL