MODEL 1
REMARK VINA RESULT: -5.809600521      0.000      0.000
REMARK  6 active torsions:
REMARK  status: ('A' for Active; 'I' for Inactive)
REMARK    1  A    between atoms: C2_2  and  N1_3
REMARK    2  A    between atoms: N1_3  and  C3_5
REMARK    3  A    between atoms: C4_8  and  N3_9
REMARK    4  A    between atoms: N4_12  and  C7_13
REMARK    5  A    between atoms: C7_13  and  C8_14
REMARK    6  A    between atoms: C8_14  and  O1_15
ROOT
HETATM    1  C3  UNL     1     -10.896   3.196  17.127  1.00  0.00     0.147 A
HETATM    2  N2  UNL     1     -10.104   2.170  16.822  1.00  0.00    -0.322 N
ATOM      3  H2  UNL     1     -10.515   1.240  16.907  1.00  0.00     0.169 HD
HETATM    4  C4  UNL     1      -8.822   2.223  16.414  1.00  0.00     0.129 A
HETATM    5  C12 UNL     1      -8.100   3.360  16.240  1.00  0.00     0.106 A
HETATM    6 CL1  UNL     1      -6.417   3.350  15.653  1.00  0.00    -0.078 Cl
HETATM    7  C13 UNL     1      -8.575   4.663  16.459  1.00  0.00     0.100 A
HETATM    8  S1  UNL     1      -7.651   5.989  16.230  1.00  0.00    -0.070 SA
HETATM    9  S2  UNL     1     -10.190   4.737  16.979  1.00  0.00    -0.041 SA
ENDROOT
BRANCH   4  10
HETATM   10  N3  UNL     1      -8.233   0.948  16.138  1.00  0.00    -0.362 N
HETATM   11  C5  UNL     1      -7.310   0.233  16.976  1.00  0.00     0.154 C
HETATM   12  C6  UNL     1      -7.479  -1.273  16.639  1.00  0.00     0.292 C
HETATM   13  N4  UNL     1      -7.024  -1.564  15.300  1.00  0.00     0.093 N
HETATM   14  C10 UNL     1      -7.229  -0.453  14.453  1.00  0.00     0.292 C
HETATM   15  C11 UNL     1      -8.542   0.269  14.857  1.00  0.00     0.154 C
BRANCH  13  16
HETATM   16  C7  UNL     1      -5.801  -2.250  15.319  1.00  0.00     0.298 C
BRANCH  16  17
HETATM   17  C8  UNL     1      -5.745  -3.555  16.040  1.00  0.00     0.197 C
BRANCH  17  18
HETATM   18  O1  UNL     1      -6.181  -4.664  15.367  1.00  0.00    -0.394 OA
HETATM   19  C9  UNL     1      -6.776  -5.621  16.176  1.00  0.00     0.201 C
ENDBRANCH  17  18
ENDBRANCH  16  17
ENDBRANCH  13  16
ENDBRANCH   4  10
BRANCH   1  20
HETATM   20  N1  UNL     1     -12.128   3.058  17.509  1.00  0.00    -0.371 N
ATOM     21  H1  UNL     1     -12.757   3.862  17.501  1.00  0.00     0.161 HD
BRANCH  20  22
HETATM   22  C2  UNL     1     -12.612   1.770  17.946  1.00  0.00     0.117 C
HETATM   23  C1  UNL     1     -13.002   1.715  19.385  1.00  0.00     0.026 C
ENDBRANCH  20  22
ENDBRANCH   1  20
TORSDOF 6
ENDMDL