MODEL 1
REMARK VINA RESULT: -6.263094068      0.000      0.000
REMARK  6 active torsions:
REMARK  status: ('A' for Active; 'I' for Inactive)
REMARK    1  A    between atoms: O1_2  and  C2_3
REMARK    2  A    between atoms: C2_3  and  C3_4
REMARK    3  A    between atoms: C3_4  and  N1_5
REMARK    4  A    between atoms: C9_12  and  O3_13
REMARK    5  A    between atoms: N2_16  and  C11_17
REMARK    6  A    between atoms: C11_17  and  C12_18
ROOT
HETATM    1  C3  UNL     1      -7.765   2.035  17.918  1.00  0.00     0.265 C
HETATM    2  C9  UNL     1      -6.508   1.775  18.688  1.00  0.00     0.192 C
HETATM    3  C10 UNL     1      -6.290   0.307  18.261  1.00  0.00     0.311 C
HETATM    4  N2  UNL     1      -7.641  -0.261  18.406  1.00  0.00     0.132 N
HETATM    5  C16 UNL     1      -8.560   0.834  18.492  1.00  0.00     0.448 C
HETATM    6  F1  UNL     1      -8.685   1.116  19.860  1.00  0.00    -0.213 F
ENDROOT
BRANCH   1   7
HETATM    7  C2  UNL     1      -8.552   3.229  18.240  1.00  0.00     0.216 C
BRANCH   7   8
HETATM    8  O1  UNL     1      -7.886   4.116  19.057  1.00  0.00    -0.393 OA
HETATM    9  C1  UNL     1      -7.753   5.377  18.516  1.00  0.00     0.201 C
ENDBRANCH   7   8
ENDBRANCH   1   7
BRANCH   1  10
HETATM   10  N1  UNL     1      -7.562   1.762  16.528  1.00  0.00     0.110 N
HETATM   11  C4  UNL     1      -8.669   1.083  15.896  1.00  0.00     0.276 C
HETATM   12  C5  UNL     1      -8.281   0.802  14.460  1.00  0.00     0.056 C
HETATM   13  C6  UNL     1      -8.896   1.777  13.511  1.00  0.00     0.169 C
HETATM   14  O2  UNL     1      -8.030   2.897  13.511  1.00  0.00    -0.389 OA
HETATM   15  C7  UNL     1      -8.168   3.438  14.797  1.00  0.00     0.198 C
HETATM   16  C8  UNL     1      -7.143   2.919  15.773  1.00  0.00     0.300 C
ENDBRANCH   1  10
BRANCH   2  17
HETATM   17  O3  UNL     1      -5.395   2.470  18.352  1.00  0.00    -0.391 OA
ATOM     18  H3  UNL     1      -4.598   1.985  18.170  1.00  0.00     0.210 HD
ENDBRANCH   2  17
BRANCH   4  19
HETATM   19  C11 UNL     1      -7.581  -1.030  19.639  1.00  0.00     0.322 C
BRANCH  19  20
HETATM   20  C12 UNL     1      -7.247  -2.470  19.386  1.00  0.00     0.011 A
HETATM   21  C13 UNL     1      -7.184  -3.516  20.267  1.00  0.00     0.017 A
HETATM   22  C14 UNL     1      -6.849  -4.724  19.759  1.00  0.00     0.008 A
HETATM   23  C15 UNL     1      -6.604  -4.790  18.415  1.00  0.00     0.050 A
HETATM   24  S1  UNL     1      -6.845  -3.185  17.899  1.00  0.00    -0.105 SA
ENDBRANCH  19  20
ENDBRANCH   4  19
TORSDOF 6
ENDMDL