MODEL 3
REMARK VINA RESULT: -6.043283218      4.196      5.956
REMARK  5 active torsions:
REMARK  status: ('A' for Active; 'I' for Inactive)
REMARK    1  A    between atoms: N1_2  and  C3_4
REMARK    2  A    between atoms: C3_4  and  C4_5
REMARK    3  A    between atoms: C4_5  and  C7_8
REMARK    4  A    between atoms: C7_8  and  N2_9
REMARK    5  A    between atoms: N2_9  and  C8_11
ROOT
HETATM    1  C8  UNL     1      -8.392   2.921  19.009  1.00  0.00     0.078 C
HETATM    2  C9  UNL     1      -9.695   2.300  18.623  1.00  0.00     0.029 C
HETATM    3  C10 UNL     1      -9.514   1.541  17.342  1.00  0.00     0.067 C
HETATM    4  C11 UNL     1      -8.378   1.900  16.504  1.00  0.00     0.173 C
HETATM    5  O1  UNL     1      -7.441   0.848  16.472  1.00  0.00    -0.351 OA
HETATM    6  C12 UNL     1      -7.984  -0.116  15.629  1.00  0.00     0.231 C
HETATM    7  C13 UNL     1      -8.525   0.713  14.529  1.00  0.00     0.074 A
HETATM    8  C14 UNL     1      -8.884   0.762  13.200  1.00  0.00     0.137 A
HETATM    9  N3  UNL     1      -9.325   2.014  12.992  1.00  0.00    -0.295 N
ATOM     10  H3  UNL     1      -9.669   2.383  12.106  1.00  0.00     0.187 HD
HETATM   11  N4  UNL     1      -9.241   2.681  14.110  1.00  0.00    -0.238 N
ATOM     12  H4  UNL     1      -9.512   3.657  14.223  1.00  0.00     0.208 HD
HETATM   13  N5  UNL     1      -8.755   1.917  15.080  1.00  0.00    -0.242 N
HETATM   14  C15 UNL     1      -7.638   3.158  16.750  1.00  0.00     0.141 C
HETATM   15 CL1  UNL     1      -5.898   2.811  17.065  1.00  0.00    -0.120 Cl
HETATM   16  C16 UNL     1      -8.094   3.959  17.952  1.00  0.00     0.050 C
ENDROOT
BRANCH   1  17
HETATM   17  N2  UNL     1      -8.270   3.456  20.291  1.00  0.00    -0.416 N
ATOM     18  H2  UNL     1      -8.243   4.468  20.416  1.00  0.00     0.153 HD
BRANCH  17  19
HETATM   19  C7  UNL     1      -8.184   2.628  21.393  1.00  0.00     0.124 C
BRANCH  19  20
HETATM   20  C4  UNL     1      -6.747   2.540  21.922  1.00  0.00    -0.006 C
HETATM   21  C5  UNL     1      -5.787   3.317  21.076  1.00  0.00     0.018 C
HETATM   22  C6  UNL     1      -6.360   1.059  21.747  1.00  0.00     0.018 C
BRANCH  20  23
HETATM   23  C3  UNL     1      -6.723   2.918  23.370  1.00  0.00     0.281 C
BRANCH  23  24
HETATM   24  N1  UNL     1      -6.027   2.039  24.265  1.00  0.00     0.080 N
HETATM   25  C1  UNL     1      -6.721   2.041  25.590  1.00  0.00     0.309 C
HETATM   26  C2  UNL     1      -4.720   2.637  24.612  1.00  0.00     0.309 C
ENDBRANCH  23  24
ENDBRANCH  20  23
ENDBRANCH  19  20
ENDBRANCH  17  19
ENDBRANCH   1  17
TORSDOF 5
ENDMDL