MODEL 4
REMARK VINA RESULT: -7.259430438      1.932      4.516
REMARK  6 active torsions:
REMARK  status: ('A' for Active; 'I' for Inactive)
REMARK    1  A    between atoms: C4_6  and  C5_7
REMARK    2  A    between atoms: C5_7  and  N2_8
REMARK    3  A    between atoms: C6_9  and  N3_10
REMARK    4  A    between atoms: N3_10  and  C7_12
REMARK    5  A    between atoms: C7_12  and  C8_13
REMARK    6  A    between atoms: C8_13  and  N4_14
ROOT
HETATM    1  N2  UNL     1      -7.893   0.096  18.656  1.00  0.00    -0.160 N
HETATM    2  C6  UNL     1      -7.701   0.711  17.435  1.00  0.00     0.686 A
HETATM    3  N5  UNL     1      -7.201  -0.202  16.583  1.00  0.00    -0.184 N
ATOM      4  H5  UNL     1      -6.961  -0.029  15.607  1.00  0.00     0.184 HD
HETATM    5  C11 UNL     1      -7.068  -1.390  17.226  1.00  0.00     0.133 A
HETATM    6  C12 UNL     1      -6.614  -2.622  16.806  1.00  0.00     0.155 A
HETATM    7  F1  UNL     1      -6.180  -2.853  15.545  1.00  0.00    -0.203 F
HETATM    8  C13 UNL     1      -6.617  -3.639  17.735  1.00  0.00     0.001 A
HETATM    9  C14 UNL     1      -6.144  -4.987  17.352  1.00  0.00     0.054 C
HETATM   10  C15 UNL     1      -7.056  -3.405  19.011  1.00  0.00     0.016 A
HETATM   11  C16 UNL     1      -7.059  -4.515  20.016  1.00  0.00     0.069 C
HETATM   12  N6  UNL     1      -7.490  -2.190  19.375  1.00  0.00    -0.343 N
ATOM     13  H6  UNL     1      -7.812  -2.044  20.331  1.00  0.00     0.167 HD
HETATM   14  C17 UNL     1      -7.510  -1.154  18.507  1.00  0.00     0.155 A
ENDROOT
BRANCH   1  15
HETATM   15  C5  UNL     1      -8.420   0.741  19.829  1.00  0.00     0.216 C
BRANCH  15  16
HETATM   16  C4  UNL     1      -9.893   0.910  19.686  1.00  0.00     0.089 A
HETATM   17  C3  UNL     1     -10.911   0.478  20.475  1.00  0.00     0.124 A
HETATM   18  N1  UNL     1     -12.060   0.904  19.888  1.00  0.00    -0.348 N
HETATM   19  C2  UNL     1     -11.741   1.580  18.768  1.00  0.00     0.119 A
ATOM     20  H1  UNL     1     -13.004   0.740  20.236  1.00  0.00     0.167 HD
HETATM   21  C1  UNL     1     -12.709   2.226  17.810  1.00  0.00     0.098 C
HETATM   22  O1  UNL     1     -10.439   1.567  18.674  1.00  0.00    -0.299 OA
ENDBRANCH  15  16
ENDBRANCH   1  15
BRANCH   2  23
HETATM   23  N3  UNL     1      -7.975   1.922  17.252  1.00  0.00    -0.203 N
ATOM     24  H3  UNL     1      -8.423   2.298  18.088  1.00  0.00     0.183 HD
BRANCH  23  25
HETATM   25  C7  UNL     1      -7.877   2.919  16.298  1.00  0.00     0.108 C
BRANCH  25  26
HETATM   26  C8  UNL     1      -8.853   2.778  15.180  1.00  0.00     0.316 C
BRANCH  26  27
HETATM   27  N4  UNL     1      -8.260   2.258  13.966  1.00  0.00     0.084 N
HETATM   28  C9  UNL     1      -6.819   2.252  14.015  1.00  0.00     0.309 C
HETATM   29  C10 UNL     1      -8.827   1.034  13.514  1.00  0.00     0.309 C
ENDBRANCH  26  27
ENDBRANCH  25  26
ENDBRANCH  23  25
ENDBRANCH   2  23
TORSDOF 6
ENDMDL