MODEL 5
REMARK VINA RESULT: -6.878256961      3.200      6.988
REMARK  5 active torsions:
REMARK  status: ('A' for Active; 'I' for Inactive)
REMARK    1  A    between atoms: N1_2  and  C3_4
REMARK    2  A    between atoms: C3_4  and  C4_5
REMARK    3  A    between atoms: C4_5  and  C5_6
REMARK    4  A    between atoms: C5_6  and  N2_7
REMARK    5  A    between atoms: N2_7  and  C6_9
ROOT
HETATM    1  C6  UNL     1      -7.369  -0.503  17.894  1.00  0.00     0.122 A
HETATM    2  C7  UNL     1      -7.245   0.846  17.471  1.00  0.00     0.066 A
HETATM    3  C8  UNL     1      -6.933   1.819  18.399  1.00  0.00     0.162 A
HETATM    4  N3  UNL     1      -6.763   1.475  19.688  1.00  0.00    -0.288 N
ATOM      5  H3  UNL     1      -6.535   2.199  20.369  1.00  0.00     0.172 HD
HETATM    6  C9  UNL     1      -6.884   0.220  20.094  1.00  0.00     0.329 A
HETATM    7  O1  UNL     1      -6.726  -0.108  21.314  1.00  0.00    -0.246 OA
HETATM    8  N4  UNL     1      -7.188  -0.785  19.203  1.00  0.00    -0.289 N
HETATM    9  C10 UNL     1      -7.297  -2.105  19.719  1.00  0.00     0.163 C
HETATM   10  O2  UNL     1      -6.788   3.139  18.034  1.00  0.00    -0.320 OA
HETATM   11  C11 UNL     1      -7.199   3.608  16.803  1.00  0.00     0.086 C
HETATM   12  C12 UNL     1      -8.460   4.471  16.935  1.00  0.00     0.051 C
HETATM   13  C13 UNL     1      -6.087   4.467  16.219  1.00  0.00     0.051 C
HETATM   14  C14 UNL     1      -7.531   2.557  15.831  1.00  0.00    -0.036 C
HETATM   15  C15 UNL     1      -7.568   1.250  16.095  1.00  0.00    -0.032 C
HETATM   16  C16 UNL     1      -8.021   0.538  14.890  1.00  0.00     0.077 C
HETATM   17  C17 UNL     1      -8.821   1.650  14.159  1.00  0.00     0.178 C
HETATM   18  F1  UNL     1      -9.040   1.340  12.860  1.00  0.00    -0.249 F
HETATM   19  C18 UNL     1      -7.877   2.801  14.385  1.00  0.00     0.075 C
ENDROOT
BRANCH   1  20
HETATM   20  N2  UNL     1      -7.473  -1.484  16.927  1.00  0.00    -0.375 N
ATOM     21  H2  UNL     1      -8.412  -1.864  16.805  1.00  0.00     0.161 HD
BRANCH  20  22
HETATM   22  C5  UNL     1      -6.488  -2.051  16.071  1.00  0.00     0.123 C
BRANCH  22  23
HETATM   23  C4  UNL     1      -5.561  -3.006  16.875  1.00  0.00     0.050 C
BRANCH  23  24
HETATM   24  C3  UNL     1      -5.281  -4.160  15.938  1.00  0.00     0.273 C
BRANCH  24  25
HETATM   25  N1  UNL     1      -5.701  -5.371  16.639  1.00  0.00     0.080 N
HETATM   26  C1  UNL     1      -7.058  -5.719  16.210  1.00  0.00     0.309 C
HETATM   27  C2  UNL     1      -5.711  -5.058  18.073  1.00  0.00     0.309 C
ENDBRANCH  24  25
ENDBRANCH  23  24
ENDBRANCH  22  23
ENDBRANCH  20  22
ENDBRANCH   1  20
TORSDOF 5
ENDMDL