MODEL 5
REMARK VINA RESULT: -7.109657823      1.544      2.116
REMARK  6 active torsions:
REMARK  status: ('A' for Active; 'I' for Inactive)
REMARK    1  A    between atoms: O1_1  and  C1_3
REMARK    2  A    between atoms: C1_3  and  C2_4
REMARK    3  A    between atoms: C2_4  and  C3_5
REMARK    4  A    between atoms: C3_5  and  N1_6
REMARK    5  A    between atoms: C6_10  and  C7_11
REMARK    6  A    between atoms: C11_16  and  C12_17
ROOT
HETATM    1  N1  UNL     1      -8.355   1.805  18.041  1.00  0.00    -0.366 N
HETATM    2  C4  UNL     1      -7.129   1.965  17.449  1.00  0.00     0.089 C
HETATM    3  C5  UNL     1      -6.001   1.820  18.452  1.00  0.00     0.213 C
HETATM    4  O2  UNL     1      -6.119   0.918  19.416  1.00  0.00    -0.373 OA
HETATM    5  C6  UNL     1      -7.313   0.292  19.682  1.00  0.00     0.189 C
HETATM    6  C15 UNL     1      -8.523   0.866  19.082  1.00  0.00     0.165 C
ENDROOT
BRANCH   5   7
HETATM    7  C7  UNL     1      -7.128  -1.183  19.348  1.00  0.00     0.040 A
HETATM    8  C8  UNL     1      -7.326  -2.088  20.378  1.00  0.00     0.031 A
HETATM    9  C9  UNL     1      -7.223  -3.419  20.102  1.00  0.00     0.046 A
HETATM   10  C10 UNL     1      -6.935  -3.804  18.844  1.00  0.00     0.139 A
HETATM   11  F1  UNL     1      -6.845  -5.129  18.557  1.00  0.00    -0.204 F
HETATM   12  C11 UNL     1      -6.723  -2.893  17.767  1.00  0.00     0.052 A
HETATM   13  N2  UNL     1      -6.831  -1.602  18.101  1.00  0.00    -0.358 N
ATOM     14  H2  UNL     1      -6.682  -0.899  17.377  1.00  0.00     0.165 HD
BRANCH  12  15
HETATM   15  C12 UNL     1      -6.533  -3.524  16.468  1.00  0.00     0.039 A
HETATM   16  C13 UNL     1      -5.549  -4.511  15.966  1.00  0.00     0.011 A
HETATM   17  C14 UNL     1      -5.204  -3.072  15.789  1.00  0.00     0.011 A
ENDBRANCH  12  15
ENDBRANCH   5   7
BRANCH   1  18
HETATM   18  C3  UNL     1      -9.478   1.790  17.200  1.00  0.00     0.103 C
BRANCH  18  19
HETATM   19  C2  UNL     1     -10.652   2.630  17.515  1.00  0.00     0.114 C
HETATM   20  C16 UNL     1     -10.701   3.333  18.810  1.00  0.00     0.048 C
HETATM   21  C17 UNL     1     -12.050   2.974  19.402  1.00  0.00     0.030 C
HETATM   22  C18 UNL     1     -12.510   1.875  18.479  1.00  0.00     0.169 C
HETATM   23  O3  UNL     1     -11.902   2.059  17.247  1.00  0.00    -0.372 OA
BRANCH  19  24
HETATM   24  C1  UNL     1     -10.591   3.771  16.439  1.00  0.00     0.207 C
BRANCH  24  25
HETATM   25  O1  UNL     1      -9.873   3.302  15.339  1.00  0.00    -0.398 OA
ATOM     26  H1  UNL     1      -9.693   4.036  14.763  1.00  0.00     0.209 HD
ENDBRANCH  24  25
ENDBRANCH  19  24
ENDBRANCH  18  19
ENDBRANCH   1  18
TORSDOF 6
ENDMDL