MODEL 2
REMARK VINA RESULT: -6.878880618      0.924      1.022
REMARK  5 active torsions:
REMARK  status: ('A' for Active; 'I' for Inactive)
REMARK    1  A    between atoms: O1_2  and  C2_3
REMARK    2  A    between atoms: C6_9  and  C7_10
REMARK       I    between atoms: C7_10  and  N2_12
REMARK    3  A    between atoms: N2_12  and  C8_14
REMARK    4  A    between atoms: C13_20  and  O4_21
REMARK    5  A    between atoms: C15_23  and  O5_24
ROOT
HETATM    1  C2  UNL     1      -6.868   2.407  20.889  1.00  0.00     0.128 A
HETATM    2  C3  UNL     1      -6.529   1.228  21.487  1.00  0.00     0.120 A
HETATM    3  C4  UNL     1      -5.951   1.222  22.811  1.00  0.00     0.105 C
HETATM    4  N1  UNL     1      -5.480   1.205  23.879  1.00  0.00    -0.191 NA
HETATM    5  C5  UNL     1      -6.735   0.006  20.824  1.00  0.00     0.158 A
HETATM    6  F1  UNL     1      -6.379  -1.123  21.503  1.00  0.00    -0.203 F
HETATM    7  C6  UNL     1      -7.278  -0.056  19.570  1.00  0.00     0.108 A
HETATM    8  C13 UNL     1      -7.619   1.150  18.971  1.00  0.00     0.123 A
HETATM    9  C15 UNL     1      -7.414   2.360  19.631  1.00  0.00     0.138 A
ENDROOT
BRANCH   1  10
HETATM   10  O1  UNL     1      -6.667   3.604  21.540  1.00  0.00    -0.351 OA
HETATM   11  C1  UNL     1      -5.557   4.446  21.368  1.00  0.00     0.210 C
ENDBRANCH   1  10
BRANCH   9  12
HETATM   12  O5  UNL     1      -7.755   3.553  19.036  1.00  0.00    -0.351 OA
HETATM   13  C16 UNL     1      -9.059   4.067  19.211  1.00  0.00     0.210 C
ENDBRANCH   9  12
BRANCH   7  14
HETATM   14  C7  UNL     1      -7.489  -1.308  18.880  1.00  0.00     0.258 C
HETATM   15  O2  UNL     1      -8.644  -1.857  19.034  1.00  0.00    -0.267 OA
HETATM   16  N2  UNL     1      -6.602  -2.016  18.052  1.00  0.00    -0.350 N
ATOM     17  H2  UNL     1      -5.668  -1.644  17.877  1.00  0.00     0.163 HD
BRANCH  16  18
HETATM   18  C8  UNL     1      -7.011  -3.302  17.430  1.00  0.00     0.108 C
HETATM   19  C9  UNL     1      -6.593  -4.371  18.403  1.00  0.00     0.029 C
HETATM   20  C10 UNL     1      -5.611  -5.308  17.742  1.00  0.00     0.028 C
HETATM   21  C11 UNL     1      -6.165  -5.677  16.395  1.00  0.00     0.167 C
HETATM   22  O3  UNL     1      -6.291  -4.617  15.537  1.00  0.00    -0.389 OA
HETATM   23  C12 UNL     1      -6.290  -3.380  16.123  1.00  0.00     0.192 C
ENDBRANCH  16  18
ENDBRANCH   7  14
BRANCH   8  24
HETATM   24  O4  UNL     1      -8.163   1.157  17.710  1.00  0.00    -0.352 OA
HETATM   25  C14 UNL     1      -7.376   1.404  16.548  1.00  0.00     0.210 C
ENDBRANCH   8  24
TORSDOF 5
ENDMDL