MODEL 5
REMARK VINA RESULT: -7.286123073      2.434      3.161
REMARK  5 active torsions:
REMARK  status: ('A' for Active; 'I' for Inactive)
REMARK    1  A    between atoms: C2_2  and  C4_4
REMARK    2  A    between atoms: C2_2  and  N2_7
REMARK       I    between atoms: N2_7  and  C6_9
REMARK    3  A    between atoms: C6_9  and  C7_11
REMARK    4  A    between atoms: C8_15  and  C9_16
REMARK       I    between atoms: N4_20  and  C13_21
REMARK    5  A    between atoms: C13_21  and  C14_23
ROOT
HETATM    1  C4  UNL     1      -5.361  -5.249  17.598  1.00  0.00     0.154 C
HETATM    2  C5  UNL     1      -5.237  -5.215  16.181  1.00  0.00     0.061 C
HETATM    3  N1  UNL     1      -5.098  -5.201  15.036  1.00  0.00    -0.197 NA
ENDROOT
BRANCH   1   4
HETATM    4  C2  UNL     1      -6.447  -4.466  18.256  1.00  0.00     0.038 C
HETATM    5  C1  UNL     1      -7.710  -4.908  17.422  1.00  0.00     0.039 C
HETATM    6  C3  UNL     1      -6.712  -4.928  19.650  1.00  0.00     0.039 C
BRANCH   4   7
HETATM    7  N2  UNL     1      -6.393  -3.050  18.127  1.00  0.00    -0.345 N
HETATM    8  C6  UNL     1      -7.321  -2.109  18.565  1.00  0.00     0.288 C
HETATM    9  O1  UNL     1      -8.369  -2.419  19.141  1.00  0.00    -0.264 OA
ATOM     10  H2  UNL     1      -5.569  -2.677  17.653  1.00  0.00     0.163 HD
BRANCH   8  11
HETATM   11  C7  UNL     1      -7.072  -0.690  18.350  1.00  0.00     0.196 A
HETATM   12  N3  UNL     1      -6.303   0.156  19.087  1.00  0.00    -0.238 N
HETATM   13  O2  UNL     1      -6.337   1.350  18.567  1.00  0.00    -0.220 OA
ATOM     14  H3  UNL     1      -5.778  -0.106  19.921  1.00  0.00     0.196 HD
HETATM   15  C8  UNL     1      -7.100   1.356  17.501  1.00  0.00     0.171 A
HETATM   16  N5  UNL     1      -7.559   0.100  17.359  1.00  0.00    -0.317 N
ATOM     17  H5  UNL     1      -8.183  -0.214  16.616  1.00  0.00     0.169 HD
BRANCH  15  18
HETATM   18  C9  UNL     1      -7.397   2.542  16.618  1.00  0.00     0.164 C
HETATM   19  C10 UNL     1      -7.151   2.186  15.165  1.00  0.00     0.035 C
HETATM   20  C11 UNL     1      -7.988   3.224  14.454  1.00  0.00     0.022 C
HETATM   21  C12 UNL     1      -9.186   3.361  15.338  1.00  0.00     0.127 C
HETATM   22  N4  UNL     1      -8.797   2.907  16.658  1.00  0.00    -0.337 N
HETATM   23  C13 UNL     1      -9.632   2.833  17.780  1.00  0.00     0.259 C
HETATM   24  O3  UNL     1      -9.174   2.420  18.876  1.00  0.00    -0.270 OA
BRANCH  23  25
HETATM   25  C14 UNL     1     -11.064   3.224  17.751  1.00  0.00     0.176 C
HETATM   26  C15 UNL     1     -11.432   4.119  18.902  1.00  0.00     0.062 C
HETATM   27  C16 UNL     1     -11.970   2.008  17.712  1.00  0.00     0.062 C
HETATM   28  F1  UNL     1     -11.349   3.938  16.578  1.00  0.00    -0.233 F
ENDBRANCH  23  25
ENDBRANCH  15  18
ENDBRANCH   8  11
ENDBRANCH   4   7
ENDBRANCH   1   4
TORSDOF 5
ENDMDL