MODEL 5
REMARK VINA RESULT: -6.228622588      3.790      4.921
REMARK  5 active torsions:
REMARK  status: ('A' for Active; 'I' for Inactive)
REMARK    1  A    between atoms: O1_2  and  C2_3
REMARK    2  A    between atoms: C2_3  and  C3_4
REMARK    3  A    between atoms: C3_4  and  C4_5
REMARK    4  A    between atoms: N1_9  and  C8_10
REMARK    5  A    between atoms: C10_16  and  N4_17
ROOT
HETATM    1  C8  UNL     1      -7.989   0.401  19.914  1.00  0.00     0.147 A
HETATM    2  N2  UNL     1      -9.321   0.604  19.679  1.00  0.00    -0.336 N
ATOM      3  H2  UNL     1      -9.843  -0.041  19.087  1.00  0.00     0.168 HD
HETATM    4  C9  UNL     1      -9.935   1.661  20.236  1.00  0.00     0.183 A
HETATM    5  N3  UNL     1      -9.254   2.523  21.020  1.00  0.00    -0.336 N
ATOM      6  H3  UNL     1      -9.751   3.315  21.426  1.00  0.00     0.168 HD
HETATM    7  C10 UNL     1      -7.950   2.376  21.286  1.00  0.00     0.147 A
HETATM    8  C16 UNL     1      -7.292   1.279  20.715  1.00  0.00     0.203 A
HETATM    9  F1  UNL     1      -5.968   1.077  20.946  1.00  0.00    -0.198 F
ENDROOT
BRANCH   1  10
HETATM   10  N1  UNL     1      -7.318  -0.721  19.332  1.00  0.00    -0.364 N
HETATM   11  C7  UNL     1      -6.956  -1.908  20.066  1.00  0.00     0.124 C
HETATM   12  C6  UNL     1      -7.467  -3.113  19.352  1.00  0.00     0.020 C
HETATM   13  C5  UNL     1      -7.976  -2.846  17.956  1.00  0.00     0.008 C
HETATM   14  C4  UNL     1      -6.997  -1.945  17.211  1.00  0.00     0.006 C
HETATM   15  C17 UNL     1      -6.981  -0.639  17.929  1.00  0.00     0.129 C
BRANCH  14  16
HETATM   16  C3  UNL     1      -5.699  -2.671  17.144  1.00  0.00     0.032 C
BRANCH  16  17
HETATM   17  C2  UNL     1      -5.272  -3.087  15.772  1.00  0.00     0.167 C
BRANCH  17  18
HETATM   18  O1  UNL     1      -4.924  -4.408  15.663  1.00  0.00    -0.396 OA
HETATM   19  C1  UNL     1      -5.876  -5.314  16.052  1.00  0.00     0.201 C
ENDBRANCH  17  18
ENDBRANCH  16  17
ENDBRANCH  14  16
ENDBRANCH   1  10
BRANCH   7  20
HETATM   20  N4  UNL     1      -7.206   3.254  22.101  1.00  0.00    -0.361 N
HETATM   21  C11 UNL     1      -6.592   4.423  21.482  1.00  0.00     0.143 C
HETATM   22  C12 UNL     1      -5.103   4.307  21.793  1.00  0.00     0.134 C
HETATM   23  N5  UNL     1      -4.869   4.291  23.206  1.00  0.00    -0.414 N
HETATM   24  C13 UNL     1      -5.556   3.270  23.920  1.00  0.00     0.090 C
ATOM     25  H5  UNL     1      -4.254   4.961  23.667  1.00  0.00     0.153 HD
HETATM   26  C14 UNL     1      -4.803   1.936  23.870  1.00  0.00     0.033 C
HETATM   27  C15 UNL     1      -6.995   3.093  23.513  1.00  0.00     0.149 C
ENDBRANCH   7  20
TORSDOF 5
ENDMDL