MODEL 5
REMARK VINA RESULT: -9.138599775      1.326      2.885
REMARK  18 active torsions:
REMARK  status: ('A' for Active; 'I' for Inactive)
REMARK    1  A    between atoms: N1_1  and  C1_4
REMARK    2  A    between atoms: C2_7  and  O1_8
REMARK    3  A    between atoms: C3_10  and  C4_11
REMARK    4  A    between atoms: C4_11  and  O2_12
REMARK    5  A    between atoms: C4_11  and  C5_14
REMARK    6  A    between atoms: C5_14  and  N3_15
REMARK    7  A    between atoms: C7_17  and  C8_18
REMARK    8  A    between atoms: N6_22  and  C9_23
REMARK    9  A    between atoms: C9_23  and  C10_24
REMARK   10  A    between atoms: C11_25  and  O3_26
REMARK   11  A    between atoms: C12_28  and  O4_29
REMARK   12  A    between atoms: C13_31  and  O5_32
REMARK   13  A    between atoms: C14_34  and  C15_35
REMARK   14  A    between atoms: C15_35  and  C16_36
REMARK   15  A    between atoms: C16_36  and  O6_37
REMARK   16  A    between atoms: C16_36  and  N7_39
REMARK   17  A    between atoms: N7_39  and  O7_41
REMARK   18  A    between atoms: C17_43  and  O8_44
ROOT
HETATM    1  C8  UNL     1      18.038  47.739  -9.729  1.00  0.00     0.164 A
HETATM    2  N4  UNL     1      18.214  48.828 -10.490  1.00  0.00    -0.265 N
ATOM      3  H4  UNL     1      18.917  48.942 -11.220  1.00  0.00     0.186 HD
HETATM    4  N5  UNL     1      17.307  49.739 -10.122  1.00  0.00    -0.002 NA
HETATM    5  N6  UNL     1      16.561  49.239  -9.142  1.00  0.00    -0.212 N
HETATM    6  N8  UNL     1      17.024  48.030  -8.926  1.00  0.00    -0.267 N
ATOM      7  H8  UNL     1      16.649  47.391  -8.225  1.00  0.00     0.190 HD
ENDROOT
BRANCH   1   8
HETATM    8  C7  UNL     1      18.823  46.521  -9.808  1.00  0.00     0.113 A
HETATM    9  C6  UNL     1      19.437  45.949 -10.901  1.00  0.00     0.146 A
HETATM   10  N3  UNL     1      20.073  44.799 -10.528  1.00  0.00    -0.281 N
HETATM   11  N10 UNL     1      19.844  44.685  -9.242  1.00  0.00    -0.240 N
HETATM   12  N9  UNL     1      19.112  45.675  -8.774  1.00  0.00    -0.281 N
ATOM     13  H10 UNL     1      20.194  43.917  -8.669  1.00  0.00     0.208 HD
ATOM     14  H9  UNL     1      18.813  45.791  -7.806  1.00  0.00     0.188 HD
BRANCH  10  15
HETATM   15  C5  UNL     1      20.839  43.931 -11.443  1.00  0.00     0.215 C
BRANCH  15  16
HETATM   16  C4  UNL     1      22.256  43.968 -11.143  1.00  0.00     0.083 C
BRANCH  16  17
HETATM   17  C3  UNL     1      23.306  44.390 -12.021  1.00  0.00     0.114 A
HETATM   18  C2  UNL     1      23.239  45.540 -12.756  1.00  0.00     0.173 A
HETATM   19  N2  UNL     1      24.285  45.878 -13.562  1.00  0.00    -0.170 N
HETATM   20  C1  UNL     1      25.390  45.132 -13.674  1.00  0.00     0.680 A
ATOM     21  H2  UNL     1      24.223  46.739 -14.105  1.00  0.00     0.186 HD
HETATM   22  N11 UNL     1      25.449  44.000 -12.948  1.00  0.00    -0.155 N
HETATM   23  C18 UNL     1      24.469  43.600 -12.136  1.00  0.00     0.276 A
ATOM     24  H11 UNL     1      26.284  43.419 -13.022  1.00  0.00     0.187 HD
HETATM   25  O9  UNL     1      24.564  42.538 -11.477  1.00  0.00    -0.267 OA
BRANCH  18  26
HETATM   26  O1  UNL     1      22.174  46.410 -12.753  1.00  0.00    -0.345 OA
ATOM     27  H1  UNL     1      21.434  46.165 -13.295  1.00  0.00     0.219 HD
ENDBRANCH  18  26
BRANCH  20  28
HETATM   28  N1  UNL     1      26.380  45.449 -14.436  1.00  0.00    -0.234 N
ATOM     29  H12 UNL     1      26.217  46.042 -15.249  1.00  0.00     0.174 HD
ATOM     30  H11 UNL     1      27.335  45.134 -14.268  1.00  0.00     0.174 HD
ENDBRANCH  20  28
ENDBRANCH  16  17
BRANCH  16  31
HETATM   31  O2  UNL     1      22.629  43.579  -9.951  1.00  0.00    -0.362 OA
ATOM     32  H2  UNL     1      22.970  44.258  -9.381  1.00  0.00     0.217 HD
ENDBRANCH  16  31
ENDBRANCH  15  16
ENDBRANCH  10  15
ENDBRANCH   1   8
BRANCH   5  33
HETATM   33  C9  UNL     1      15.483  49.934  -8.474  1.00  0.00     0.211 C
BRANCH  33  34
HETATM   34  C10 UNL     1      16.041  50.588  -7.262  1.00  0.00     0.033 A
HETATM   35  C11 UNL     1      16.621  51.836  -7.289  1.00  0.00     0.112 A
HETATM   36  C12 UNL     1      17.189  52.404  -6.147  1.00  0.00     0.133 A
HETATM   37  C13 UNL     1      17.171  51.713  -4.968  1.00  0.00     0.111 A
HETATM   38  C14 UNL     1      16.597  50.461  -4.905  1.00  0.00     0.019 A
HETATM   39  C17 UNL     1      16.032  49.904  -6.064  1.00  0.00     0.086 A
BRANCH  35  40
HETATM   40  O3  UNL     1      16.657  52.579  -8.452  1.00  0.00    -0.357 OA
ATOM     41  H3  UNL     1      17.280  53.288  -8.561  1.00  0.00     0.217 HD
ENDBRANCH  35  40
BRANCH  36  42
HETATM   42  O4  UNL     1      17.764  53.654  -6.203  1.00  0.00    -0.356 OA
ATOM     43  H4  UNL     1      18.709  53.747  -6.232  1.00  0.00     0.218 HD
ENDBRANCH  36  42
BRANCH  37  44
HETATM   44  O5  UNL     1      17.719  52.220  -3.792  1.00  0.00    -0.357 OA
ATOM     45  H5  UNL     1      18.375  51.751  -3.288  1.00  0.00     0.217 HD
ENDBRANCH  37  44
BRANCH  38  46
HETATM   46  C15 UNL     1      16.541  49.649  -3.657  1.00  0.00     0.130 C
BRANCH  46  47
HETATM   47  C16 UNL     1      17.495  48.544  -3.626  1.00  0.00     0.139 C
BRANCH  47  48
HETATM   48  O6  UNL     1      18.853  48.792  -3.632  1.00  0.00    -0.348 OA
ATOM     49  H6  UNL     1      19.447  48.229  -3.150  1.00  0.00     0.219 HD
ENDBRANCH  47  48
BRANCH  47  50
HETATM   50  N7  UNL     1      17.088  47.330  -3.597  1.00  0.00    -0.251 N
ATOM     51  H7  UNL     1      17.790  46.601  -3.478  1.00  0.00     0.196 HD
BRANCH  50  52
HETATM   52  O7  UNL     1      15.782  46.937  -3.713  1.00  0.00    -0.288 OA
ATOM     53  H7  UNL     1      15.383  46.598  -4.506  1.00  0.00     0.244 HD
ENDBRANCH  50  52
ENDBRANCH  47  50
ENDBRANCH  46  47
ENDBRANCH  38  46
BRANCH  39  54
HETATM   54  O8  UNL     1      15.469  48.665  -5.981  1.00  0.00    -0.359 OA
ATOM     55  H8  UNL     1      15.464  48.193  -5.157  1.00  0.00     0.217 HD
ENDBRANCH  39  54
ENDBRANCH  33  34
ENDBRANCH   5  33
TORSDOF 18
ENDMDL