MODEL 5
REMARK VINA RESULT: -11.131446860      3.015      4.192
REMARK  8 active torsions:
REMARK  status: ('A' for Active; 'I' for Inactive)
REMARK    1  A    between atoms: C3_4  and  N2_5
REMARK       I    between atoms: N2_5  and  C4_6
REMARK    2  A    between atoms: C4_6  and  C5_8
REMARK    3  A    between atoms: C7_10  and  N3_11
REMARK       I    between atoms: N3_11  and  C8_13
REMARK       I    between atoms: C8_13  and  N4_14
REMARK       I    between atoms: C8_13  and  N5_18
REMARK    4  A    between atoms: N6_23  and  C10_24
REMARK    5  A    between atoms: C11_28  and  C12_29
REMARK    6  A    between atoms: C16_42  and  C17_43
REMARK       I    between atoms: C17_43  and  N12_45
REMARK    7  A    between atoms: N12_45  and  O5_46
REMARK    8  A    between atoms: O5_46  and  C18_47
ROOT
HETATM    1  C5  UNL     1      17.426  49.957  -6.636  1.00  0.00     0.123 A
HETATM    2  C6  UNL     1      16.629  49.445  -5.659  1.00  0.00     0.067 A
HETATM    3  C7  UNL     1      16.856  48.064  -5.634  1.00  0.00     0.049 A
HETATM    4  C9  UNL     1      17.790  47.805  -6.588  1.00  0.00     0.125 A
HETATM    5  N6  UNL     1      18.160  48.953  -7.205  1.00  0.00    -0.299 N
ENDROOT
BRANCH   5   6
HETATM    6  C10 UNL     1      19.129  49.013  -8.216  1.00  0.00     0.441 C
HETATM    7  N7  UNL     1      18.943  47.830  -9.099  1.00  0.00     0.004 N
HETATM    8  C11 UNL     1      20.412  48.015  -9.202  1.00  0.00     0.405 C
ATOM      9  H72 UNL     1      18.485  46.962  -8.820  1.00  0.00     0.286 HD
ATOM     10  H71 UNL     1      18.305  47.793  -9.893  1.00  0.00     0.286 HD
HETATM   11  O3  UNL     1      20.415  48.514  -7.985  1.00  0.00    -0.303 OA
BRANCH   8  12
HETATM   12  C12 UNL     1      21.065  46.828  -9.719  1.00  0.00     0.184 A
HETATM   13  N8  UNL     1      21.252  45.667  -9.034  1.00  0.00    -0.321 N
HETATM   14  C13 UNL     1      21.835  44.641  -9.603  1.00  0.00     0.129 A
ATOM     15  H8  UNL     1      20.935  45.595  -8.067  1.00  0.00     0.169 HD
HETATM   16  N9  UNL     1      21.860  43.453  -9.010  1.00  0.00    -0.384 N
HETATM   17  C14 UNL     1      22.233  44.727 -10.910  1.00  0.00     0.138 A
ATOM     18  H92 UNL     1      21.563  43.388  -8.036  1.00  0.00     0.157 HD
ATOM     19  H91 UNL     1      22.313  42.654  -9.452  1.00  0.00     0.157 HD
HETATM   20  N10 UNL     1      22.781  43.538 -11.565  1.00  0.00    -0.094 NA
HETATM   21  C15 UNL     1      22.047  45.894 -11.615  1.00  0.00     0.187 A
HETATM   22  N11 UNL     1      22.430  45.986 -12.965  1.00  0.00    -0.072 NA
HETATM   23  O2  UNL     1      21.485  46.911 -10.986  1.00  0.00    -0.276 OA
ENDBRANCH   8  12
ENDBRANCH   5   6
BRANCH   1  24
HETATM   24  C4  UNL     1      17.392  51.248  -7.337  1.00  0.00     0.343 C
HETATM   25  N2  UNL     1      17.055  51.024  -8.641  1.00  0.00    -0.361 NA
HETATM   26  O1  UNL     1      17.668  52.351  -6.974  1.00  0.00    -0.249 OA
BRANCH  25  27
HETATM   27  C3  UNL     1      16.776  50.919  -9.964  1.00  0.00     0.163 A
HETATM   28  C2  UNL     1      16.331  49.716 -10.586  1.00  0.00     0.157 A
HETATM   29  N1  UNL     1      16.132  50.013 -11.901  1.00  0.00    -0.304 N
HETATM   30  C1  UNL     1      15.752  49.098 -12.949  1.00  0.00     0.177 C
HETATM   31  N14 UNL     1      16.433  51.276 -12.059  1.00  0.00    -0.290 N
HETATM   32  C16 UNL     1      16.844  51.845 -10.837  1.00  0.00     0.176 A
ATOM     33  H14 UNL     1      16.377  51.779 -12.944  1.00  0.00     0.187 HD
BRANCH  32  34
HETATM   34  C17 UNL     1      17.551  53.236 -10.991  1.00  0.00     0.376 C
HETATM   35  O4  UNL     1      17.022  54.094 -10.462  1.00  0.00    -0.247 OA
HETATM   36  N12 UNL     1      18.561  52.787 -11.793  1.00  0.00    -0.225 NA
BRANCH  36  37
HETATM   37  O5  UNL     1      19.502  52.387 -12.537  1.00  0.00    -0.103 OA
BRANCH  37  38
HETATM   38  C18 UNL     1      20.589  51.745 -11.927  1.00  0.00     0.405 C
HETATM   39  N13 UNL     1      20.558  51.738 -10.495  1.00  0.00    -0.030 NA
HETATM   40  O6  UNL     1      21.451  51.281 -12.639  1.00  0.00    -0.239 OA
ENDBRANCH  37  38
ENDBRANCH  36  37
ENDBRANCH  32  34
ENDBRANCH  25  27
ENDBRANCH   1  24
BRANCH   3  41
HETATM   41  N3  UNL     1      16.302  47.163  -4.675  1.00  0.00    -0.340 N
HETATM   42  C8  UNL     1      16.917  46.277  -3.774  1.00  0.00     0.480 C
HETATM   43  N4  UNL     1      18.107  46.809  -3.133  1.00  0.00    -0.033 N
HETATM   44  N5  UNL     1      15.966  46.072  -2.642  1.00  0.00    -0.033 N
ATOM     45  H43 UNL     1      18.777  47.129  -3.833  1.00  0.00     0.278 HD
ATOM     46  H42 UNL     1      17.898  47.696  -2.675  1.00  0.00     0.278 HD
ATOM     47  H41 UNL     1      18.553  46.166  -2.479  1.00  0.00     0.278 HD
ATOM     48  H53 UNL     1      15.669  46.945  -2.205  1.00  0.00     0.278 HD
ATOM     49  H52 UNL     1      15.044  45.759  -2.946  1.00  0.00     0.278 HD
ATOM     50  H51 UNL     1      16.412  45.429  -1.988  1.00  0.00     0.278 HD
ATOM     51  H3  UNL     1      15.283  47.162  -4.638  1.00  0.00     0.163 HD
ENDBRANCH   3  41
TORSDOF 8
ENDMDL