MODEL 4
REMARK VINA RESULT: -8.261702174      3.709      4.458
REMARK  14 active torsions:
REMARK  status: ('A' for Active; 'I' for Inactive)
REMARK    1  A    between atoms: N1_1  and  C1_4
REMARK    2  A    between atoms: C2_7  and  N3_8
REMARK    3  A    between atoms: N3_8  and  N4_10
REMARK    4  A    between atoms: C3_13  and  C4_14
REMARK    5  A    between atoms: C4_14  and  N6_15
REMARK    6  A    between atoms: C4_14  and  C5_19
REMARK    7  A    between atoms: C6_24  and  C7_25
REMARK    8  A    between atoms: C8_28  and  C9_29
REMARK    9  A    between atoms: C10_34  and  C11_35
REMARK   10  A    between atoms: C11_35  and  O3_36
REMARK   11  A    between atoms: C11_35  and  C12_38
REMARK   12  A    between atoms: C12_38  and  O4_39
REMARK   13  A    between atoms: C12_38  and  C13_41
REMARK   14  A    between atoms: C13_41  and  O5_42
ROOT
HETATM    1  N4  UNL     1      17.388  49.999  -8.512  1.00  0.00    -0.174 N
HETATM    2  N5  UNL     1      17.523  50.822  -9.563  1.00  0.00    -0.263 N
ATOM      3  H5  UNL     1      16.998  51.680  -9.724  1.00  0.00     0.190 HD
HETATM    4  C3  UNL     1      18.455  50.324 -10.351  1.00  0.00     0.141 A
HETATM    5  N7  UNL     1      18.925  49.179  -9.810  1.00  0.00    -0.324 N
ATOM      6  H7  UNL     1      19.650  48.574 -10.196  1.00  0.00     0.169 HD
HETATM    7  C6  UNL     1      18.245  48.991  -8.658  1.00  0.00     0.181 A
ENDROOT
BRANCH   7   8
HETATM    8  C7  UNL     1      18.454  47.851  -7.737  1.00  0.00     0.122 A
HETATM    9  N8  UNL     1      17.607  46.829  -7.575  1.00  0.00    -0.344 N
HETATM   10  C8  UNL     1      17.872  45.884  -6.748  1.00  0.00     0.085 A
ATOM     11  H8  UNL     1      16.742  46.800  -8.115  1.00  0.00     0.167 HD
HETATM   12  C14 UNL     1      19.059  45.975  -6.039  1.00  0.00     0.085 A
HETATM   13  S1  UNL     1      19.684  47.436  -6.649  1.00  0.00    -0.078 SA
BRANCH  10  14
HETATM   14  C9  UNL     1      17.000  44.709  -6.520  1.00  0.00     0.149 A
HETATM   15  N9  UNL     1      17.458  43.437  -6.486  1.00  0.00    -0.282 N
HETATM   16  N10 UNL     1      16.430  42.616  -6.244  1.00  0.00    -0.285 N
ATOM     17  H9  UNL     1      18.428  43.151  -6.622  1.00  0.00     0.188 HD
HETATM   18  C10 UNL     1      15.320  43.365  -6.124  1.00  0.00     0.129 A
ATOM     19  H10 UNL     1      16.479  41.600  -6.165  1.00  0.00     0.188 HD
HETATM   20  N11 UNL     1      15.693  44.639  -6.297  1.00  0.00    -0.326 N
ATOM     21  H11 UNL     1      15.063  45.441  -6.263  1.00  0.00     0.169 HD
BRANCH  18  22
HETATM   22  C11 UNL     1      13.955  42.858  -5.839  1.00  0.00     0.217 C
BRANCH  22  23
HETATM   23  O3  UNL     1      13.984  42.170  -4.601  1.00  0.00    -0.385 OA
ATOM     24  H3  UNL     1      13.454  42.654  -3.979  1.00  0.00     0.210 HD
ENDBRANCH  22  23
BRANCH  22  25
HETATM   25  C12 UNL     1      13.512  41.881  -6.924  1.00  0.00     0.177 C
BRANCH  25  26
HETATM   26  O4  UNL     1      14.047  40.625  -6.653  1.00  0.00    -0.390 OA
ATOM     27  H4  UNL     1      13.395  40.100  -6.203  1.00  0.00     0.210 HD
ENDBRANCH  25  26
BRANCH  25  28
HETATM   28  C13 UNL     1      11.982  41.780  -6.919  1.00  0.00     0.198 C
BRANCH  28  29
HETATM   29  O5  UNL     1      11.550  41.042  -5.823  1.00  0.00    -0.398 OA
ATOM     30  H5  UNL     1      10.857  41.504  -5.365  1.00  0.00     0.209 HD
ENDBRANCH  28  29
ENDBRANCH  25  28
ENDBRANCH  22  25
ENDBRANCH  18  22
ENDBRANCH  10  14
ENDBRANCH   7   8
BRANCH   1  31
HETATM   31  N3  UNL     1      16.453  50.234  -7.506  1.00  0.00    -0.260 N
ATOM     32  H3  UNL     1      15.490  50.062  -7.793  1.00  0.00     0.191 HD
BRANCH  31  33
HETATM   33  C2  UNL     1      16.577  50.657  -6.189  1.00  0.00     0.170 A
HETATM   34  N2  UNL     1      16.274  49.715  -5.214  1.00  0.00    -0.173 N
HETATM   35  C1  UNL     1      16.313  50.004  -3.915  1.00  0.00     0.679 A
ATOM     36  H2  UNL     1      16.013  48.771  -5.504  1.00  0.00     0.186 HD
HETATM   37  N14 UNL     1      16.647  51.215  -3.497  1.00  0.00    -0.173 N
HETATM   38  C16 UNL     1      16.950  52.170  -4.372  1.00  0.00     0.175 A
ATOM     39  H14 UNL     1      16.672  51.417  -2.498  1.00  0.00     0.186 HD
HETATM   40  C15 UNL     1      16.916  51.890  -5.748  1.00  0.00     0.148 A
HETATM   41  N13 UNL     1      17.303  53.469  -4.273  1.00  0.00    -0.223 N
HETATM   42  N12 UNL     1      17.245  53.029  -6.328  1.00  0.00    -0.234 N
HETATM   43  O6  UNL     1      17.467  53.938  -5.460  1.00  0.00    -0.155 OA
ATOM     44  H12 UNL     1      17.314  53.165  -7.336  1.00  0.00     0.197 HD
ATOM     45  H13 UNL     1      17.419  53.991  -3.404  1.00  0.00     0.198 HD
BRANCH  35  46
HETATM   46  N1  UNL     1      16.004  49.036  -3.094  1.00  0.00    -0.234 N
ATOM     47  H12 UNL     1      15.165  48.467  -3.205  1.00  0.00     0.174 HD
ATOM     48  H11 UNL     1      16.651  48.869  -2.323  1.00  0.00     0.174 HD
ENDBRANCH  35  46
ENDBRANCH  31  33
ENDBRANCH   1  31
BRANCH   4  49
HETATM   49  C4  UNL     1      18.919  50.956 -11.642  1.00  0.00     0.351 C
BRANCH  49  50
HETATM   50  N6  UNL     1      18.059  52.086 -11.878  1.00  0.00    -0.058 N
ATOM     51  H63 UNL     1      17.155  51.829 -12.273  1.00  0.00     0.275 HD
ATOM     52  H62 UNL     1      17.707  52.511 -11.021  1.00  0.00     0.275 HD
ATOM     53  H61 UNL     1      18.585  52.735 -12.464  1.00  0.00     0.275 HD
ENDBRANCH  49  50
BRANCH  49  54
HETATM   54  C5  UNL     1      20.335  51.330 -11.492  1.00  0.00     0.212 C
HETATM   55  O1  UNL     1      20.799  51.691 -10.390  1.00  0.00    -0.646 OA
HETATM   56  O2  UNL     1      21.179  51.287 -12.586  1.00  0.00    -0.646 OA
ENDBRANCH  49  54
ENDBRANCH   4  49
TORSDOF 14
ENDMDL