MODEL 5
REMARK VINA RESULT: -8.821880821      2.264      2.852
REMARK  13 active torsions:
REMARK  status: ('A' for Active; 'I' for Inactive)
REMARK    1  A    between atoms: C3_5  and  N2_6
REMARK    2  A    between atoms: C4_9  and  N3_10
REMARK    3  A    between atoms: N3_10  and  N4_12
REMARK       I    between atoms: N7_17  and  C6_18
REMARK    4  A    between atoms: C6_18  and  C7_20
REMARK    5  A    between atoms: C8_26  and  N10_27
REMARK    6  A    between atoms: N10_27  and  C9_29
REMARK    7  A    between atoms: C11_34  and  N12_35
REMARK    8  A    between atoms: N12_35  and  C12_37
REMARK    9  A    between atoms: C12_37  and  C13_41
REMARK   10  A    between atoms: C13_41  and  C15_43
REMARK   11  A    between atoms: C15_43  and  O2_44
REMARK   12  A    between atoms: C15_43  and  O3_46
REMARK   13  A    between atoms: C17_50  and  O5_51
ROOT
HETATM    1  C7  UNL     1      18.622  47.706  -6.447  1.00  0.00     0.155 A
HETATM    2  N8  UNL     1      18.330  48.421  -5.344  1.00  0.00    -0.305 N
ATOM      3  H8  UNL     1      18.440  49.426  -5.205  1.00  0.00     0.176 HD
HETATM    4  S1  UNL     1      17.750  47.301  -4.261  1.00  0.00     0.069 SA
HETATM    5  N9  UNL     1      17.880  45.934  -5.204  1.00  0.00    -0.297 N
ATOM      6  H9  UNL     1      17.634  44.977  -4.951  1.00  0.00     0.177 HD
HETATM    7  C8  UNL     1      18.381  46.372  -6.373  1.00  0.00     0.142 A
ENDROOT
BRANCH   1   8
HETATM    8  C6  UNL     1      19.175  48.407  -7.642  1.00  0.00     0.301 C
HETATM    9  N7  UNL     1      18.285  49.127  -8.519  1.00  0.00    -0.162 N
HETATM   10  N6  UNL     1      16.980  49.213  -8.337  1.00  0.00    -0.258 N
HETATM   11  C16 UNL     1      18.560  49.805  -9.613  1.00  0.00     0.372 A
HETATM   12  C5  UNL     1      16.413  49.942  -9.306  1.00  0.00     0.233 A
ATOM     13  H6  UNL     1      16.473  48.783  -7.564  1.00  0.00     0.190 HD
HETATM   14  N4  UNL     1      17.424  50.327 -10.132  1.00  0.00    -0.172 N
HETATM   15  N5  UNL     1      15.035  50.226  -9.407  1.00  0.00    -0.060 NA
HETATM   16  O4  UNL     1      19.715  49.942 -10.097  1.00  0.00    -0.242 OA
HETATM   17  O1  UNL     1      20.367  48.418  -7.945  1.00  0.00    -0.263 OA
BRANCH  14  18
HETATM   18  N3  UNL     1      17.290  51.110 -11.285  1.00  0.00    -0.280 N
ATOM     19  H3  UNL     1      16.899  50.709 -12.139  1.00  0.00     0.188 HD
BRANCH  18  20
HETATM   20  C4  UNL     1      17.701  52.459 -11.252  1.00  0.00     0.143 A
HETATM   21  C3  UNL     1      16.900  53.419 -10.680  1.00  0.00     0.133 A
HETATM   22  N1  UNL     1      17.339  54.689 -10.675  1.00  0.00    -0.331 N
HETATM   23  C2  UNL     1      18.528  55.041 -11.208  1.00  0.00     0.080 A
ATOM     24  H1  UNL     1      16.754  55.411 -10.255  1.00  0.00     0.168 HD
HETATM   25  C1  UNL     1      18.937  56.463 -11.161  1.00  0.00     0.089 C
HETATM   26  N14 UNL     1      19.328  54.123 -11.772  1.00  0.00    -0.325 N
HETATM   27  C17 UNL     1      18.906  52.849 -11.786  1.00  0.00     0.174 A
ATOM     28  H14 UNL     1      20.226  54.385 -12.177  1.00  0.00     0.169 HD
BRANCH  21  29
HETATM   29  N2  UNL     1      15.754  53.119 -10.159  1.00  0.00    -0.383 N
ATOM     30  H22 UNL     1      14.879  53.336 -10.637  1.00  0.00     0.157 HD
ATOM     31  H21 UNL     1      15.704  52.657  -9.251  1.00  0.00     0.157 HD
ENDBRANCH  21  29
BRANCH  27  32
HETATM   32  O5  UNL     1      19.700  51.872 -12.357  1.00  0.00    -0.344 OA
ATOM     33  H5  UNL     1      19.488  51.594 -13.240  1.00  0.00     0.219 HD
ENDBRANCH  27  32
ENDBRANCH  18  20
ENDBRANCH  14  18
ENDBRANCH   1   8
BRANCH   7  34
HETATM   34  N10 UNL     1      18.614  45.404  -7.425  1.00  0.00    -0.364 N
ATOM     35  H10 UNL     1      17.821  44.984  -7.910  1.00  0.00     0.161 HD
BRANCH  34  36
HETATM   36  C9  UNL     1      19.974  45.025  -7.797  1.00  0.00     0.159 C
HETATM   37  C10 UNL     1      20.650  44.085  -6.865  1.00  0.00     0.263 C
HETATM   38  N11 UNL     1      20.385  43.000  -7.782  1.00  0.00    -0.050 N
HETATM   39  C11 UNL     1      20.058  43.946  -8.824  1.00  0.00     0.309 C
ATOM     40 2H11 UNL     1      21.097  42.290  -7.947  1.00  0.00     0.279 HD
ATOM     41 1H11 UNL     1      19.715  42.274  -7.528  1.00  0.00     0.279 HD
BRANCH  39  42
HETATM   42  N12 UNL     1      21.082  44.216  -9.799  1.00  0.00    -0.350 N
ATOM     43  H12 UNL     1      22.050  44.323  -9.495  1.00  0.00     0.163 HD
BRANCH  42  44
HETATM   44  C12 UNL     1      20.765  44.335 -11.169  1.00  0.00     0.080 C
HETATM   45  N13 UNL     1      19.994  43.462 -11.752  1.00  0.00    -0.389 N
ATOM     46 2H13 UNL     1      19.600  42.684 -11.224  1.00  0.00     0.157 HD
ATOM     47 1H13 UNL     1      19.765  43.548 -12.743  1.00  0.00     0.157 HD
BRANCH  44  48
HETATM   48  C13 UNL     1      21.338  45.468 -11.938  1.00  0.00     0.103 C
HETATM   49  C14 UNL     1      22.823  45.596 -11.733  1.00  0.00     0.023 C
BRANCH  48  50
HETATM   50  C15 UNL     1      20.601  46.717 -11.502  1.00  0.00     0.264 C
BRANCH  50  51
HETATM   51  O2  UNL     1      19.280  46.456 -11.143  1.00  0.00    -0.371 OA
ATOM     52  H2  UNL     1      19.066  46.792 -10.281  1.00  0.00     0.212 HD
ENDBRANCH  50  51
BRANCH  50  53
HETATM   53  O3  UNL     1      21.235  47.231 -10.372  1.00  0.00    -0.371 OA
ATOM     54  H3  UNL     1      21.272  48.177 -10.454  1.00  0.00     0.212 HD
ENDBRANCH  50  53
ENDBRANCH  48  50
ENDBRANCH  44  48
ENDBRANCH  42  44
ENDBRANCH  39  42
ENDBRANCH  34  36
ENDBRANCH   7  34
TORSDOF 13
ENDMDL