MODEL 1
REMARK VINA RESULT: -8.881210814      0.000      0.000
REMARK  13 active torsions:
REMARK  status: ('A' for Active; 'I' for Inactive)
REMARK       I    between atoms: C2_2  and  N1_4
REMARK    1  A    between atoms: C3_7  and  N3_8
REMARK    2  A    between atoms: N3_8  and  C4_10
REMARK    3  A    between atoms: C4_10  and  C5_11
REMARK    4  A    between atoms: C5_11  and  C6_12
REMARK    5  A    between atoms: C6_12  and  N4_14
REMARK    6  A    between atoms: N4_14  and  C8_16
REMARK    7  A    between atoms: C9_17  and  C10_18
REMARK    8  A    between atoms: C10_18  and  O2_19
REMARK    9  A    between atoms: C10_18  and  O3_21
REMARK   10  A    between atoms: C13_26  and  N5_27
REMARK   11  A    between atoms: C15_34  and  C16_35
REMARK   12  A    between atoms: N9_40  and  N10_41
REMARK   13  A    between atoms: C17_44  and  O5_45
ROOT
HETATM    1  C8  UNL     1      17.523  47.331  -6.969  1.00  0.00     0.090 A
HETATM    2  C9  UNL     1      18.627  46.841  -6.316  1.00  0.00     0.138 A
HETATM    3  O4  UNL     1      19.643  46.348  -7.030  1.00  0.00    -0.290 OA
HETATM    4  C11 UNL     1      19.635  46.311  -8.318  1.00  0.00     0.156 A
HETATM    5  C12 UNL     1      18.579  46.773  -9.056  1.00  0.00     0.047 A
HETATM    6  C13 UNL     1      17.508  47.291  -8.372  1.00  0.00     0.067 A
HETATM    7  C14 UNL     1      18.499  46.760 -10.525  1.00  0.00     0.280 C
HETATM    8  N6  UNL     1      19.625  46.158 -11.166  1.00  0.00    -0.044 N
ATOM      9  H61 UNL     1      19.758  46.556 -12.096  1.00  0.00     0.280 HD
ATOM     10  H62 UNL     1      19.414  45.192 -11.417  1.00  0.00     0.280 HD
HETATM   11  C15 UNL     1      20.851  46.224 -10.414  1.00  0.00     0.342 C
HETATM   12  N11 UNL     1      20.748  45.774  -9.082  1.00  0.00    -0.337 N
ATOM     13  H11 UNL     1      21.412  45.113  -8.680  1.00  0.00     0.164 HD
ENDROOT
BRANCH   1  14
HETATM   14  N4  UNL     1      16.442  47.933  -6.268  1.00  0.00    -0.382 N
ATOM     15  H4  UNL     1      15.605  47.387  -6.065  1.00  0.00     0.160 HD
BRANCH  14  16
HETATM   16  C6  UNL     1      16.522  49.306  -5.843  1.00  0.00     0.079 C
HETATM   17  C7  UNL     1      16.219  49.577  -4.409  1.00  0.00     0.032 C
BRANCH  16  18
HETATM   18  C5  UNL     1      15.642  50.171  -6.734  1.00  0.00     0.044 C
BRANCH  18  19
HETATM   19  C4  UNL     1      16.578  51.036  -7.569  1.00  0.00     0.123 C
BRANCH  19  20
HETATM   20  N3  UNL     1      16.147  50.985  -8.929  1.00  0.00    -0.375 N
ATOM     21  H3  UNL     1      15.242  50.554  -9.120  1.00  0.00     0.161 HD
BRANCH  20  22
HETATM   22  C3  UNL     1      16.873  51.483 -10.025  1.00  0.00     0.116 A
HETATM   23  N2  UNL     1      18.108  51.001 -10.249  1.00  0.00    -0.273 N
HETATM   24  N1  UNL     1      18.893  51.355 -11.238  1.00  0.00    -0.186 N
ATOM     25  H2  UNL     1      18.464  50.303  -9.596  1.00  0.00     0.189 HD
HETATM   26  C2  UNL     1      20.187  50.818 -11.432  1.00  0.00     0.241 C
HETATM   27  C20 UNL     1      18.419  52.284 -12.107  1.00  0.00     0.269 A
HETATM   28  C1  UNL     1      20.698  49.806 -10.482  1.00  0.00     0.119 C
HETATM   29  O1  UNL     1      20.886  51.192 -12.389  1.00  0.00    -0.272 OA
HETATM   30  C19 UNL     1      17.168  52.825 -11.951  1.00  0.00     0.080 A
HETATM   31  O6  UNL     1      19.122  52.660 -13.070  1.00  0.00    -0.266 OA
HETATM   32  C18 UNL     1      16.358  52.430 -10.890  1.00  0.00     0.055 A
ENDBRANCH  20  22
ENDBRANCH  19  20
ENDBRANCH  18  19
ENDBRANCH  16  18
ENDBRANCH  14  16
ENDBRANCH   1  14
BRANCH   2  33
HETATM   33  C10 UNL     1      18.811  46.789  -4.855  1.00  0.00     0.315 C
BRANCH  33  34
HETATM   34  O2  UNL     1      19.319  48.005  -4.355  1.00  0.00    -0.365 OA
ATOM     35  H2  UNL     1      19.479  47.957  -3.420  1.00  0.00     0.213 HD
ENDBRANCH  33  34
BRANCH  33  36
HETATM   36  O3  UNL     1      17.778  46.288  -4.123  1.00  0.00    -0.365 OA
ATOM     37  H3  UNL     1      17.256  46.913  -3.634  1.00  0.00     0.213 HD
ENDBRANCH  33  36
ENDBRANCH   2  33
BRANCH   6  38
HETATM   38  N5  UNL     1      16.468  47.752  -8.941  1.00  0.00    -0.397 N
ATOM     39  H52 UNL     1      15.518  47.503  -8.666  1.00  0.00     0.156 HD
ATOM     40  H51 UNL     1      16.622  48.404  -9.711  1.00  0.00     0.156 HD
ENDBRANCH   6  38
BRANCH  11  41
HETATM   41  C16 UNL     1      21.891  45.580 -11.242  1.00  0.00     0.131 A
HETATM   42  N7  UNL     1      22.342  46.078 -12.448  1.00  0.00    -0.281 N
HETATM   43  N8  UNL     1      23.253  45.277 -12.923  1.00  0.00    -0.219 N
ATOM     44  H7  UNL     1      22.015  46.935 -12.894  1.00  0.00     0.188 HD
HETATM   45  N9  UNL     1      23.468  44.255 -12.134  1.00  0.00    -0.163 N
ATOM     46  H8  UNL     1      23.740  45.428 -13.806  1.00  0.00     0.210 HD
HETATM   47  C17 UNL     1      22.619  44.435 -11.075  1.00  0.00     0.208 A
BRANCH  45  48
HETATM   48  N10 UNL     1      24.353  43.182 -12.275  1.00  0.00    -0.321 N
ATOM     49 2H10 UNL     1      24.391  42.559 -13.082  1.00  0.00     0.179 HD
ATOM     50 1H10 UNL     1      25.077  42.843 -11.642  1.00  0.00     0.179 HD
ENDBRANCH  45  48
BRANCH  47  51
HETATM   51  O5  UNL     1      22.547  43.550 -10.009  1.00  0.00    -0.342 OA
ATOM     52  H5  UNL     1      22.375  42.617 -10.052  1.00  0.00     0.219 HD
ENDBRANCH  47  51
ENDBRANCH  11  41
TORSDOF 13
ENDMDL