MODEL 1
REMARK VINA RESULT: -8.650910174      0.000      0.000
REMARK  14 active torsions:
REMARK  status: ('A' for Active; 'I' for Inactive)
REMARK    1  A    between atoms: C2_2  and  N1_4
REMARK    2  A    between atoms: N1_4  and  C4_6
REMARK    3  A    between atoms: C5_7  and  C6_8
REMARK    4  A    between atoms: C8_10  and  O1_11
REMARK    5  A    between atoms: C9_13  and  N2_14
REMARK    6  A    between atoms: N2_14  and  C10_16
REMARK    7  A    between atoms: C12_23  and  C13_24
REMARK    8  A    between atoms: C16_38  and  O3_39
REMARK    9  A    between atoms: C17_44  and  C18_45
REMARK   10  A    between atoms: C18_45  and  O5_46
REMARK   11  A    between atoms: C18_45  and  C19_48
REMARK   12  A    between atoms: C19_48  and  O6_49
REMARK   13  A    between atoms: C19_48  and  C20_51
REMARK   14  A    between atoms: C20_51  and  O7_52
ROOT
HETATM    1  C6  UNL     1      17.223  48.062  -9.106  1.00  0.00     0.032 A
HETATM    2  C7  UNL     1      18.291  47.396  -9.678  1.00  0.00     0.055 A
HETATM    3  C8  UNL     1      18.887  46.295  -9.074  1.00  0.00     0.094 A
HETATM    4  C9  UNL     1      18.399  45.846  -7.864  1.00  0.00     0.084 A
HETATM    5  C12 UNL     1      17.336  46.480  -7.264  1.00  0.00     0.058 A
HETATM    6  C16 UNL     1      16.750  47.588  -7.883  1.00  0.00     0.093 A
ENDROOT
BRANCH   1   7
HETATM    7  C5  UNL     1      16.614  49.235  -9.765  1.00  0.00     0.097 A
HETATM    8  C4  UNL     1      17.245  50.436 -10.077  1.00  0.00     0.093 A
HETATM    9  C17 UNL     1      16.273  51.277 -10.628  1.00  0.00     0.136 A
HETATM   10  O4  UNL     1      15.163  50.590 -10.629  1.00  0.00    -0.237 OA
HETATM   11  N12 UNL     1      15.334  49.402 -10.133  1.00  0.00    -0.258 N
ATOM     12  H12 UNL     1      14.601  48.699 -10.036  1.00  0.00     0.195 HD
BRANCH   8  13
HETATM   13  N1  UNL     1      18.616  50.699  -9.887  1.00  0.00    -0.382 N
ATOM     14  H1  UNL     1      18.900  51.125  -9.005  1.00  0.00     0.160 HD
BRANCH  13  15
HETATM   15  C2  UNL     1      19.643  50.407 -10.852  1.00  0.00     0.073 C
HETATM   16  C1  UNL     1      20.829  49.656 -10.338  1.00  0.00     0.031 C
HETATM   17  C3  UNL     1      20.179  51.754 -11.382  1.00  0.00     0.031 C
ENDBRANCH  13  15
ENDBRANCH   8  13
BRANCH   9  18
HETATM   18  C18 UNL     1      16.561  52.656 -11.087  1.00  0.00     0.210 C
BRANCH  18  19
HETATM   19  O5  UNL     1      16.936  53.476 -10.018  1.00  0.00    -0.386 OA
ATOM     20  H5  UNL     1      17.400  54.247 -10.324  1.00  0.00     0.210 HD
ENDBRANCH  18  19
BRANCH  18  21
HETATM   21  C19 UNL     1      15.333  53.277 -11.714  1.00  0.00     0.177 C
BRANCH  21  22
HETATM   22  O6  UNL     1      15.543  53.404 -13.105  1.00  0.00    -0.390 OA
ATOM     23  H6  UNL     1      14.760  53.767 -13.504  1.00  0.00     0.210 HD
ENDBRANCH  21  22
BRANCH  21  24
HETATM   24  C20 UNL     1      15.104  54.685 -11.163  1.00  0.00     0.198 C
BRANCH  24  25
HETATM   25  O7  UNL     1      14.193  54.594 -10.102  1.00  0.00    -0.398 OA
ATOM     26  H7  UNL     1      13.326  54.786 -10.441  1.00  0.00     0.209 HD
ENDBRANCH  24  25
ENDBRANCH  21  24
ENDBRANCH  18  21
ENDBRANCH   9  18
ENDBRANCH   1   7
BRANCH   6  27
HETATM   27  O3  UNL     1      15.689  48.234  -7.292  1.00  0.00    -0.359 OA
ATOM     28  H3  UNL     1      15.217  47.792  -6.596  1.00  0.00     0.217 HD
ENDBRANCH   6  27
BRANCH   3  29
HETATM   29  O1  UNL     1      19.949  45.708  -9.733  1.00  0.00    -0.358 OA
ATOM     30  H1  UNL     1      20.683  45.416  -9.205  1.00  0.00     0.217 HD
ENDBRANCH   3  29
BRANCH   5  31
HETATM   31  C13 UNL     1      16.805  46.013  -6.005  1.00  0.00     0.097 A
HETATM   32  N6  UNL     1      15.875  45.077  -5.714  1.00  0.00    -0.279 N
HETATM   33  N7  UNL     1      15.717  44.999  -4.395  1.00  0.00     0.003 NA
ATOM     34  H6  UNL     1      15.370  44.516  -6.400  1.00  0.00     0.184 HD
HETATM   35  N8  UNL     1      16.532  45.872  -3.794  1.00  0.00    -0.157 N
HETATM   36  N9  UNL     1      16.763  46.185  -2.527  1.00  0.00    -0.208 N
HETATM   37  C15 UNL     1      17.207  46.504  -4.775  1.00  0.00     0.172 A
HETATM   38  N10 UNL     1      17.651  47.112  -2.201  1.00  0.00    -0.224 N
ATOM     39  H9  UNL     1      16.247  45.704  -1.790  1.00  0.00     0.211 HD
HETATM   40  N11 UNL     1      18.347  47.767  -3.099  1.00  0.00    -0.249 N
ATOM     41  H10 UNL     1      17.799  47.324  -1.215  1.00  0.00     0.210 HD
HETATM   42  C14 UNL     1      18.126  47.464  -4.393  1.00  0.00     0.293 A
ATOM     43  H11 UNL     1      19.027  48.476  -2.829  1.00  0.00     0.192 HD
HETATM   44  O2  UNL     1      18.747  48.043  -5.313  1.00  0.00    -0.264 OA
ENDBRANCH   5  31
BRANCH   4  45
HETATM   45  N2  UNL     1      19.052  44.746  -7.268  1.00  0.00    -0.324 N
ATOM     46  H2  UNL     1      18.913  43.829  -7.694  1.00  0.00     0.169 HD
BRANCH  45  47
HETATM   47  C10 UNL     1      19.890  44.818  -6.117  1.00  0.00     0.193 C
HETATM   48  N3  UNL     1      20.819  45.628  -5.861  1.00  0.00    -0.346 N
HETATM   49  C11 UNL     1      21.413  45.354  -4.583  1.00  0.00     0.259 C
ATOM     50  H3  UNL     1      21.113  46.383  -6.482  1.00  0.00     0.163 HD
HETATM   51  N4  UNL     1      20.466  44.467  -3.950  1.00  0.00    -0.119 NA
HETATM   52  N5  UNL     1      19.765  43.923  -5.022  1.00  0.00    -0.274 N
ATOM     53  H5  UNL     1      19.254  43.040  -5.021  1.00  0.00     0.185 HD
ENDBRANCH  45  47
ENDBRANCH   4  45
TORSDOF 14
ENDMDL