MODEL 5
REMARK VINA RESULT: -8.054323503      7.294     15.244
REMARK  14 active torsions:
REMARK  status: ('A' for Active; 'I' for Inactive)
REMARK    1  A    between atoms: N1_1  and  C1_4
REMARK    2  A    between atoms: C2_10  and  N4_11
REMARK    3  A    between atoms: C3_16  and  C4_17
REMARK       I    between atoms: C4_17  and  N7_19
REMARK    4  A    between atoms: N7_19  and  N8_21
REMARK    5  A    between atoms: C5_23  and  C6_24
REMARK       I    between atoms: C6_24  and  N9_26
REMARK    6  A    between atoms: N9_26  and  N10_28
REMARK    7  A    between atoms: N10_28  and  C7_29
REMARK    8  A    between atoms: C7_29  and  C8_31
REMARK    9  A    between atoms: C9_32  and  O4_33
REMARK   10  A    between atoms: C10_35  and  S2_36
REMARK   11  A    between atoms: S2_36  and  C11_37
REMARK   12  A    between atoms: C11_37  and  N11_38
REMARK   13  A    between atoms: C11_37  and  N12_42
REMARK   14  A    between atoms: C13_50  and  O6_51
ROOT
HETATM    1  C6  UNL     1      16.355  51.259  -9.552  1.00  0.00     0.286 C
HETATM    2  O3  UNL     1      16.238  51.582  -8.337  1.00  0.00    -0.264 OA
HETATM    3  N9  UNL     1      16.785  49.894  -9.801  1.00  0.00    -0.197 N
ATOM      4  H9  UNL     1      16.879  49.630 -10.782  1.00  0.00     0.205 HD
ENDROOT
BRANCH   1   5
HETATM    5  C5  UNL     1      16.072  52.196 -10.618  1.00  0.00     0.183 C
HETATM    6  N8  UNL     1      15.937  53.416 -10.346  1.00  0.00    -0.304 N
ATOM      7  H8  UNL     1      16.037  53.656  -9.360  1.00  0.00     0.186 HD
BRANCH   6   8
HETATM    8  N7  UNL     1      15.671  54.479 -11.188  1.00  0.00    -0.263 N
HETATM    9  C4  UNL     1      14.414  55.119 -11.129  1.00  0.00     0.306 C
HETATM   10  O2  UNL     1      13.562  54.703 -10.311  1.00  0.00    -0.262 OA
ATOM     11  H7  UNL     1      16.379  54.799 -11.848  1.00  0.00     0.190 HD
BRANCH   9  12
HETATM   12  C3  UNL     1      14.069  56.250 -11.984  1.00  0.00     0.208 A
HETATM   13  N6  UNL     1      14.509  57.515 -11.849  1.00  0.00    -0.264 N
HETATM   14  N5  UNL     1      13.995  58.262 -12.808  1.00  0.00    -0.218 N
ATOM     15  H6  UNL     1      15.140  57.845 -11.119  1.00  0.00     0.190 HD
HETATM   16  N4  UNL     1      13.222  57.494 -13.573  1.00  0.00    -0.158 N
ATOM     17  H5  UNL     1      14.163  59.259 -12.941  1.00  0.00     0.210 HD
HETATM   18  N14 UNL     1      13.273  56.280 -13.064  1.00  0.00    -0.255 N
ATOM     19  H14 UNL     1      12.775  55.473 -13.441  1.00  0.00     0.191 HD
BRANCH  16  20
HETATM   20  C2  UNL     1      12.506  57.986 -14.720  1.00  0.00     0.214 A
HETATM   21  C1  UNL     1      11.174  58.334 -14.675  1.00  0.00     0.171 A
HETATM   22  N2  UNL     1      10.867  58.740 -15.916  1.00  0.00    -0.222 N
HETATM   23  O1  UNL     1      11.943  58.639 -16.652  1.00  0.00    -0.153 OA
ATOM     24  H2  UNL     1       9.954  59.069 -16.231  1.00  0.00     0.198 HD
HETATM   25  N3  UNL     1      12.943  58.189 -15.955  1.00  0.00    -0.219 N
ATOM     26  H3  UNL     1      13.890  58.022 -16.295  1.00  0.00     0.198 HD
BRANCH  21  27
HETATM   27  N1  UNL     1      10.343  58.302 -13.684  1.00  0.00    -0.381 N
ATOM     28  H12 UNL     1       9.995  57.507 -13.149  1.00  0.00     0.157 HD
ATOM     29  H11 UNL     1       9.894  59.123 -13.277  1.00  0.00     0.157 HD
ENDBRANCH  21  27
ENDBRANCH  16  20
ENDBRANCH   9  12
ENDBRANCH   6   8
ENDBRANCH   1   5
BRANCH   3  30
HETATM   30  N10 UNL     1      17.063  48.974  -8.944  1.00  0.00    -0.314 NA
BRANCH  30  31
HETATM   31  C7  UNL     1      17.328  48.128  -8.153  1.00  0.00     0.195 C
HETATM   32  S1  UNL     1      15.955  47.490  -7.120  1.00  0.00    -0.014 SA
BRANCH  31  33
HETATM   33  C8  UNL     1      18.653  47.531  -7.894  1.00  0.00     0.089 A
HETATM   34  C9  UNL     1      19.253  46.683  -8.814  1.00  0.00     0.116 A
HETATM   35  C10 UNL     1      20.495  46.098  -8.588  1.00  0.00     0.110 A
HETATM   36  N13 UNL     1      21.117  46.385  -7.424  1.00  0.00    -0.313 N
HETATM   37  C12 UNL     1      20.555  47.204  -6.518  1.00  0.00     0.280 A
ATOM     38  H13 UNL     1      22.029  45.972  -7.229  1.00  0.00     0.170 HD
HETATM   39  O5  UNL     1      21.148  47.470  -5.421  1.00  0.00    -0.265 OA
HETATM   40  C13 UNL     1      19.329  47.789  -6.724  1.00  0.00     0.151 A
BRANCH  34  41
HETATM   41  O4  UNL     1      18.636  46.383 -10.006  1.00  0.00    -0.357 OA
ATOM     42  H4  UNL     1      19.137  46.073 -10.752  1.00  0.00     0.217 HD
ENDBRANCH  34  41
BRANCH  35  43
HETATM   43  S2  UNL     1      21.202  45.004  -9.806  1.00  0.00    -0.049 SA
BRANCH  43  44
HETATM   44  C11 UNL     1      21.947  46.034 -11.110  1.00  0.00     0.446 C
BRANCH  44  45
HETATM   45  N11 UNL     1      22.884  45.177 -11.848  1.00  0.00    -0.041 N
ATOM     46 3H11 UNL     1      23.564  44.714 -11.245  1.00  0.00     0.277 HD
ATOM     47 2H11 UNL     1      22.448  44.335 -12.222  1.00  0.00     0.277 HD
ATOM     48 1H11 UNL     1      23.316  45.759 -12.566  1.00  0.00     0.277 HD
ENDBRANCH  44  45
BRANCH  44  49
HETATM   49  N12 UNL     1      20.915  46.542 -12.008  1.00  0.00    -0.041 N
ATOM     50 3H12 UNL     1      21.255  46.629 -12.966  1.00  0.00     0.277 HD
ATOM     51 2H12 UNL     1      20.179  45.854 -12.170  1.00  0.00     0.277 HD
ATOM     52 1H12 UNL     1      20.540  47.423 -11.656  1.00  0.00     0.277 HD
ENDBRANCH  44  49
ENDBRANCH  43  44
ENDBRANCH  35  43
BRANCH  40  53
HETATM   53  O6  UNL     1      18.738  48.637  -5.797  1.00  0.00    -0.355 OA
ATOM     54  H6  UNL     1      18.895  48.473  -4.875  1.00  0.00     0.218 HD
ENDBRANCH  40  53
ENDBRANCH  31  33
ENDBRANCH  30  31
ENDBRANCH   3  30
TORSDOF 14
ENDMDL