MODEL 2
REMARK VINA RESULT: -9.006586555      1.938      2.679
REMARK  16 active torsions:
REMARK  status: ('A' for Active; 'I' for Inactive)
REMARK    1  A    between atoms: C1_2  and  C2_4
REMARK    2  A    between atoms: C2_4  and  O3_5
REMARK    3  A    between atoms: O3_5  and  S1_6
REMARK    4  A    between atoms: S1_6  and  N1_9
REMARK       I    between atoms: N1_9  and  C3_11
REMARK    5  A    between atoms: C3_11  and  C4_13
REMARK    6  A    between atoms: C4_13  and  O7_14
REMARK    7  A    between atoms: C4_13  and  C5_16
REMARK    8  A    between atoms: C6_17  and  O8_18
REMARK    9  A    between atoms: C7_20  and  C8_21
REMARK   10  A    between atoms: C8_21  and  O9_22
REMARK   11  A    between atoms: C8_21  and  O10_24
REMARK   12  A    between atoms: C9_26  and  O11_27
REMARK   13  A    between atoms: N2_29  and  C10_30
REMARK   14  A    between atoms: C12_35  and  O12_36
REMARK   15  A    between atoms: C13_38  and  O13_39
REMARK   16  A    between atoms: C14_42  and  O14_43
ROOT
HETATM    1  C5  UNL     1      16.782  50.598  -7.656  1.00  0.00     0.115 A
HETATM    2  C6  UNL     1      16.829  51.906  -7.252  1.00  0.00     0.111 A
HETATM    3  C7  UNL     1      16.961  51.976  -5.867  1.00  0.00     0.083 A
HETATM    4  C9  UNL     1      16.993  50.690  -5.439  1.00  0.00     0.162 A
HETATM    5  N2  UNL     1      16.888  49.877  -6.497  1.00  0.00    -0.276 N
ENDROOT
BRANCH   1   6
HETATM    6  C4  UNL     1      16.657  49.969  -8.936  1.00  0.00     0.165 C
BRANCH   6   7
HETATM    7  C3  UNL     1      17.733  49.644  -9.853  1.00  0.00     0.292 C
HETATM    8  N1  UNL     1      19.097  49.810  -9.417  1.00  0.00    -0.225 N
ATOM      9  H1  UNL     1      19.302  50.153  -8.478  1.00  0.00     0.184 HD
HETATM   10  O6  UNL     1      17.616  49.218 -11.022  1.00  0.00    -0.264 OA
BRANCH   8  11
HETATM   11  S1  UNL     1      20.367  49.427 -10.495  1.00  0.00     0.365 S
HETATM   12  O4  UNL     1      20.108  48.020 -11.017  1.00  0.00    -0.175 OA
HETATM   13  O5  UNL     1      21.700  49.383  -9.784  1.00  0.00    -0.175 OA
BRANCH  11  14
HETATM   14  O3  UNL     1      20.428  50.429 -11.825  1.00  0.00    -0.249 OA
BRANCH  14  15
HETATM   15  C2  UNL     1      20.406  51.762 -11.488  1.00  0.00     0.305 C
BRANCH  15  16
HETATM   16  C1  UNL     1      19.131  52.421 -11.867  1.00  0.00     0.199 C
HETATM   17  O1  UNL     1      18.999  52.811 -13.053  1.00  0.00    -0.646 OA
HETATM   18  O2  UNL     1      18.134  52.588 -10.927  1.00  0.00    -0.646 OA
ENDBRANCH  15  16
ENDBRANCH  14  15
ENDBRANCH  11  14
ENDBRANCH   8  11
ENDBRANCH   6   7
BRANCH   6  19
HETATM   19  O7  UNL     1      15.481  49.630  -9.376  1.00  0.00    -0.354 OA
ATOM     20  H7  UNL     1      14.954  50.369  -9.655  1.00  0.00     0.218 HD
ENDBRANCH   6  19
ENDBRANCH   1   6
BRANCH   2  21
HETATM   21  O8  UNL     1      16.761  53.009  -8.052  1.00  0.00    -0.357 OA
ATOM     22  H8  UNL     1      17.116  53.870  -7.863  1.00  0.00     0.217 HD
ENDBRANCH   2  21
BRANCH   5  23
HETATM   23  C10 UNL     1      16.888  48.440  -6.395  1.00  0.00     0.139 A
HETATM   24  S2  UNL     1      15.600  47.357  -6.117  1.00  0.00    -0.030 SA
HETATM   25  C11 UNL     1      16.481  45.900  -6.151  1.00  0.00     0.163 A
HETATM   26  N3  UNL     1      16.396  44.537  -6.041  1.00  0.00    -0.313 N
HETATM   27  N4  UNL     1      17.730  46.299  -6.374  1.00  0.00    -0.245 N
HETATM   28  C12 UNL     1      17.639  44.066  -6.202  1.00  0.00     0.195 A
ATOM     29  H3  UNL     1      15.553  43.989  -5.871  1.00  0.00     0.170 HD
HETATM   30  C13 UNL     1      18.485  45.140  -6.410  1.00  0.00     0.203 A
HETATM   31  C14 UNL     1      17.958  47.585  -6.501  1.00  0.00     0.186 A
BRANCH  28  32
HETATM   32  O12 UNL     1      18.057  42.730  -6.173  1.00  0.00    -0.343 OA
ATOM     33  H12 UNL     1      17.997  42.088  -6.870  1.00  0.00     0.219 HD
ENDBRANCH  28  32
BRANCH  30  34
HETATM   34  O13 UNL     1      19.855  45.009  -6.614  1.00  0.00    -0.342 OA
ATOM     35  H13 UNL     1      20.485  44.941  -5.907  1.00  0.00     0.219 HD
ENDBRANCH  30  34
BRANCH  31  36
HETATM   36  O14 UNL     1      19.243  48.174  -6.743  1.00  0.00    -0.344 OA
ATOM     37  H14 UNL     1      19.940  47.592  -7.020  1.00  0.00     0.219 HD
ENDBRANCH  31  36
ENDBRANCH   5  23
BRANCH   3  38
HETATM   38  C8  UNL     1      17.047  53.188  -5.042  1.00  0.00     0.295 C
BRANCH  38  39
HETATM   39  O9  UNL     1      16.709  52.900  -3.707  1.00  0.00    -0.367 OA
ATOM     40  H9  UNL     1      17.265  53.387  -3.111  1.00  0.00     0.213 HD
ENDBRANCH  38  39
BRANCH  38  41
HETATM   41  O10 UNL     1      16.142  54.130  -5.518  1.00  0.00    -0.367 OA
ATOM     42  H10 UNL     1      15.293  53.720  -5.625  1.00  0.00     0.213 HD
ENDBRANCH  38  41
ENDBRANCH   3  38
BRANCH   4  43
HETATM   43  O11 UNL     1      17.115  50.266  -4.109  1.00  0.00    -0.345 OA
ATOM     44  H11 UNL     1      16.964  49.385  -3.787  1.00  0.00     0.219 HD
ENDBRANCH   4  43
TORSDOF 16
ENDMDL