MODEL 4
REMARK VINA RESULT: -8.785829219      1.262      1.402
REMARK  12 active torsions:
REMARK  status: ('A' for Active; 'I' for Inactive)
REMARK    1  A    between atoms: N3_6  and  C3_7
REMARK    2  A    between atoms: C5_9  and  N4_10
REMARK    3  A    between atoms: C6_16  and  C7_17
REMARK    4  A    between atoms: C7_17  and  N8_18
REMARK    5  A    between atoms: C7_17  and  C12_32
REMARK    6  A    between atoms: N8_18  and  C8_20
REMARK    7  A    between atoms: C10_26  and  N11_27
REMARK    8  A    between atoms: C12_32  and  O1_33
REMARK    9  A    between atoms: C12_32  and  N13_35
REMARK   10  A    between atoms: N13_35  and  C13_37
REMARK   11  A    between atoms: C16_40  and  N14_41
REMARK   12  A    between atoms: C18_49  and  N17_50
ROOT
HETATM    1  C7  UNL     1      16.583  49.499  -7.430  1.00  0.00     0.107 C
ENDROOT
BRANCH   1   2
HETATM    2  C6  UNL     1      15.324  48.998  -6.892  1.00  0.00     0.170 A
HETATM    3  N4  UNL     1      15.188  48.104  -5.892  1.00  0.00    -0.203 N
HETATM    4  N5  UNL     1      13.896  47.856  -5.686  1.00  0.00     0.004 NA
HETATM    5  N6  UNL     1      13.199  48.587  -6.548  1.00  0.00    -0.224 N
HETATM    6  N7  UNL     1      14.069  49.263  -7.260  1.00  0.00    -0.269 N
ATOM      7  H6  UNL     1      12.183  48.618  -6.639  1.00  0.00     0.205 HD
ATOM      8  H7  UNL     1      13.818  49.912  -8.005  1.00  0.00     0.190 HD
BRANCH   3   9
HETATM    9  C5  UNL     1      16.199  47.499  -5.131  1.00  0.00     0.147 A
HETATM   10  C4  UNL     1      16.955  46.429  -5.565  1.00  0.00     0.103 A
HETATM   11  C3  UNL     1      17.931  45.920  -4.743  1.00  0.00     0.162 A
HETATM   12  N18 UNL     1      18.149  46.468  -3.511  1.00  0.00    -0.174 N
HETATM   13  C18 UNL     1      17.418  47.508  -3.082  1.00  0.00     0.679 A
ATOM     14  H18 UNL     1      18.877  46.081  -2.910  1.00  0.00     0.186 HD
HETATM   15  N16 UNL     1      16.479  47.977  -3.906  1.00  0.00    -0.175 N
ATOM     16  H16 UNL     1      15.924  48.767  -3.578  1.00  0.00     0.186 HD
BRANCH  11  17
HETATM   17  N3  UNL     1      18.735  44.815  -5.155  1.00  0.00    -0.161 N
HETATM   18  N2  UNL     1      18.360  43.752  -5.848  1.00  0.00     0.004 NA
HETATM   19  N1  UNL     1      19.381  42.936  -6.041  1.00  0.00    -0.270 N
HETATM   20  C2  UNL     1      20.451  43.490  -5.451  1.00  0.00     0.106 A
ATOM     21  H1  UNL     1      19.359  42.048  -6.543  1.00  0.00     0.185 HD
HETATM   22  C1  UNL     1      21.816  42.901  -5.428  1.00  0.00     0.091 C
HETATM   23  N19 UNL     1      20.017  44.644  -4.917  1.00  0.00    -0.267 N
ATOM     24  H19 UNL     1      20.602  45.298  -4.397  1.00  0.00     0.190 HD
ENDBRANCH  11  17
BRANCH  13  25
HETATM   25  N17 UNL     1      17.561  48.081  -1.936  1.00  0.00    -0.234 N
ATOM     26 2H17 UNL     1      16.825  48.166  -1.235  1.00  0.00     0.174 HD
ATOM     27 1H17 UNL     1      18.472  48.479  -1.710  1.00  0.00     0.174 HD
ENDBRANCH  13  25
ENDBRANCH   3   9
ENDBRANCH   1   2
BRANCH   1  28
HETATM   28  N8  UNL     1      17.387  50.371  -6.653  1.00  0.00    -0.337 N
ATOM     29  H8  UNL     1      18.371  50.284  -6.905  1.00  0.00     0.167 HD
BRANCH  28  30
HETATM   30  C8  UNL     1      17.213  51.317  -5.640  1.00  0.00     0.135 A
HETATM   31  N9  UNL     1      16.987  51.059  -4.359  1.00  0.00    -0.337 N
HETATM   32  C9  UNL     1      16.826  51.978  -3.387  1.00  0.00     0.183 A
ATOM     33  H9  UNL     1      16.932  50.078  -4.086  1.00  0.00     0.168 HD
HETATM   34  N10 UNL     1      16.895  53.265  -3.729  1.00  0.00    -0.337 N
HETATM   35  C10 UNL     1      17.114  53.630  -4.978  1.00  0.00     0.128 A
ATOM     36  H10 UNL     1      16.778  53.981  -3.012  1.00  0.00     0.168 HD
HETATM   37  C11 UNL     1      17.278  52.688  -5.966  1.00  0.00     0.133 A
HETATM   38  N12 UNL     1      17.515  53.127  -7.308  1.00  0.00    -0.094 NA
BRANCH  35  39
HETATM   39  N11 UNL     1      17.177  54.899  -5.296  1.00  0.00    -0.384 N
ATOM     40 2H11 UNL     1      16.823  55.199  -6.205  1.00  0.00     0.157 HD
ATOM     41 1H11 UNL     1      17.576  55.574  -4.643  1.00  0.00     0.157 HD
ENDBRANCH  35  39
ENDBRANCH  28  30
ENDBRANCH   1  28
BRANCH   1  42
HETATM   42  C12 UNL     1      16.631  49.803  -8.880  1.00  0.00     0.273 C
BRANCH  42  43
HETATM   43  O1  UNL     1      15.656  50.809  -9.198  1.00  0.00    -0.371 OA
ATOM     44  H1  UNL     1      14.884  50.690  -8.659  1.00  0.00     0.212 HD
ENDBRANCH  42  43
BRANCH  42  45
HETATM   45  N13 UNL     1      17.854  50.122  -9.515  1.00  0.00    -0.358 N
ATOM     46  H13 UNL     1      18.207  51.079  -9.504  1.00  0.00     0.162 HD
BRANCH  45  47
HETATM   47  C13 UNL     1      18.607  49.069 -10.186  1.00  0.00     0.045 A
HETATM   48  C14 UNL     1      18.000  47.875 -10.442  1.00  0.00     0.034 A
HETATM   49  C15 UNL     1      18.746  46.885 -11.094  1.00  0.00     0.050 A
HETATM   50  C16 UNL     1      20.043  47.177 -11.436  1.00  0.00     0.098 A
HETATM   51  N15 UNL     1      20.622  48.361 -11.173  1.00  0.00    -0.351 N
HETATM   52  C17 UNL     1      19.915  49.323 -10.546  1.00  0.00     0.119 A
ATOM     53  H15 UNL     1      21.590  48.530 -11.446  1.00  0.00     0.166 HD
BRANCH  50  54
HETATM   54  N14 UNL     1      20.709  46.227 -12.044  1.00  0.00    -0.385 N
ATOM     55 2H14 UNL     1      20.695  45.271 -11.688  1.00  0.00     0.157 HD
ATOM     56 1H14 UNL     1      21.228  46.503 -12.877  1.00  0.00     0.157 HD
ENDBRANCH  50  54
ENDBRANCH  45  47
ENDBRANCH  42  45
ENDBRANCH   1  42
TORSDOF 12
ENDMDL