MODEL 4
REMARK VINA RESULT: -8.583603327      4.292      6.211
REMARK  13 active torsions:
REMARK  status: ('A' for Active; 'I' for Inactive)
REMARK    1  A    between atoms: O1_2  and  C2_3
REMARK    2  A    between atoms: C3_4  and  O2_5
REMARK    3  A    between atoms: C6_9  and  O3_10
REMARK    4  A    between atoms: C7_12  and  O4_13
REMARK    5  A    between atoms: O4_13  and  C8_14
REMARK    6  A    between atoms: C8_14  and  O5_15
REMARK    7  A    between atoms: C11_20  and  S1_21
REMARK    8  A    between atoms: S1_21  and  C12_22
REMARK    9  A    between atoms: C12_22  and  C13_23
REMARK   10  A    between atoms: N2_25  and  C15_26
REMARK   11  A    between atoms: C15_26  and  O6_27
REMARK   12  A    between atoms: C17_42  and  C18_43
REMARK   13  A    between atoms: C18_43  and  O7_44
ROOT
HETATM    1  C2  UNL     1      17.833  50.286 -10.963  1.00  0.00     0.138 A
HETATM    2  C3  UNL     1      18.632  49.153 -10.660  1.00  0.00     0.115 A
HETATM    3  C4  UNL     1      18.202  48.320  -9.689  1.00  0.00     0.038 A
HETATM    4  C5  UNL     1      17.023  48.535  -8.989  1.00  0.00    -0.005 A
HETATM    5  C6  UNL     1      16.256  49.639  -9.293  1.00  0.00     0.109 A
HETATM    6  C7  UNL     1      16.675  50.501 -10.280  1.00  0.00     0.141 A
HETATM    7  C9  UNL     1      16.507  47.669  -7.938  1.00  0.00     0.063 A
HETATM    8  C10 UNL     1      17.317  46.509  -7.590  1.00  0.00     0.136 A
HETATM    9  N1  UNL     1      18.517  46.331  -8.337  1.00  0.00    -0.325 N
HETATM   10  C11 UNL     1      19.397  45.333  -8.195  1.00  0.00     0.147 A
HETATM   11  N9  UNL     1      20.375  45.509  -9.058  1.00  0.00    -0.336 N
ATOM     12  H9  UNL     1      21.180  44.891  -9.162  1.00  0.00     0.168 HD
HETATM   13  C17 UNL     1      20.155  46.649  -9.802  1.00  0.00     0.063 A
HETATM   14  C19 UNL     1      18.984  47.140  -9.327  1.00  0.00     0.075 A
ENDROOT
BRANCH  10  15
HETATM   15  S1  UNL     1      19.294  43.971  -7.036  1.00  0.00    -0.087 SA
BRANCH  15  16
HETATM   16  C12 UNL     1      20.318  44.414  -5.585  1.00  0.00     0.142 C
BRANCH  16  17
HETATM   17  C13 UNL     1      19.546  45.348  -4.732  1.00  0.00     0.054 A
HETATM   18  C14 UNL     1      18.190  45.420  -4.511  1.00  0.00     0.145 A
HETATM   19  N2  UNL     1      17.958  46.440  -3.654  1.00  0.00    -0.211 N
HETATM   20  N7  UNL     1      19.143  46.954  -3.378  1.00  0.00    -0.235 N
HETATM   21  N8  UNL     1      20.110  46.324  -4.007  1.00  0.00    -0.288 N
ATOM     22  H7  UNL     1      19.290  47.746  -2.750  1.00  0.00     0.208 HD
ATOM     23  H8  UNL     1      21.105  46.538  -3.953  1.00  0.00     0.188 HD
BRANCH  19  24
HETATM   24  C15 UNL     1      16.689  46.897  -3.129  1.00  0.00     0.422 C
HETATM   25  N3  UNL     1      16.033  47.735  -4.081  1.00  0.00     0.010 N
HETATM   26  C16 UNL     1      15.938  49.082  -3.603  1.00  0.00     0.371 C
ATOM     27  H32 UNL     1      16.485  47.692  -4.993  1.00  0.00     0.286 HD
ATOM     28  H31 UNL     1      15.120  47.365  -4.342  1.00  0.00     0.286 HD
HETATM   29  N4  UNL     1      17.155  49.502  -2.949  1.00  0.00    -0.102 NA
HETATM   30  N5  UNL     1      17.462  48.723  -1.837  1.00  0.00    -0.032 NA
HETATM   31  N6  UNL     1      16.835  47.496  -1.821  1.00  0.00    -0.040 NA
BRANCH  24  32
HETATM   32  O6  UNL     1      15.894  45.744  -2.957  1.00  0.00    -0.333 OA
ATOM     33  H6  UNL     1      15.975  45.244  -3.761  1.00  0.00     0.216 HD
ENDBRANCH  24  32
ENDBRANCH  19  24
ENDBRANCH  16  17
ENDBRANCH  15  16
ENDBRANCH  10  15
BRANCH  13  34
HETATM   34  C18 UNL     1      21.117  47.033 -10.824  1.00  0.00     0.223 C
BRANCH  34  35
HETATM   35  O7  UNL     1      20.723  46.447 -12.084  1.00  0.00    -0.395 OA
ATOM     36  H7  UNL     1      20.771  45.501 -12.014  1.00  0.00     0.209 HD
ENDBRANCH  34  35
ENDBRANCH  13  34
BRANCH   2  37
HETATM   37  O2  UNL     1      19.728  49.076 -11.407  1.00  0.00    -0.357 OA
ATOM     38  H2  UNL     1      20.081  48.196 -11.459  1.00  0.00     0.217 HD
ENDBRANCH   2  37
BRANCH   5  39
HETATM   39  O3  UNL     1      15.068  49.903  -8.627  1.00  0.00    -0.357 OA
ATOM     40  H3  UNL     1      14.356  49.274  -8.613  1.00  0.00     0.217 HD
ENDBRANCH   5  39
BRANCH   1  41
HETATM   41  O1  UNL     1      18.270  51.147 -11.967  1.00  0.00    -0.351 OA
HETATM   42  C1  UNL     1      19.129  52.228 -11.810  1.00  0.00     0.210 C
ENDBRANCH   1  41
BRANCH   6  43
HETATM   43  O4  UNL     1      15.885  51.595 -10.557  1.00  0.00    -0.321 OA
BRANCH  43  44
HETATM   44  C8  UNL     1      16.093  52.862 -10.004  1.00  0.00     0.341 C
BRANCH  44  45
HETATM   45  O5  UNL     1      16.415  52.845  -8.643  1.00  0.00    -0.377 OA
ATOM     46  H5  UNL     1      16.848  53.634  -8.337  1.00  0.00     0.212 HD
ENDBRANCH  44  45
ENDBRANCH  43  44
ENDBRANCH   6  43
TORSDOF 13
ENDMDL