MODEL 4
REMARK VINA RESULT: -8.097668272      1.550      3.483
REMARK  10 active torsions:
REMARK  status: ('A' for Active; 'I' for Inactive)
REMARK    1  A    between atoms: C2_2  and  S1_5
REMARK    2  A    between atoms: S1_5  and  C5_8
REMARK    3  A    between atoms: C6_9  and  N1_10
REMARK    4  A    between atoms: C11_17  and  N3_18
REMARK    5  A    between atoms: N3_18  and  C12_20
REMARK    6  A    between atoms: C12_20  and  C13_21
REMARK    7  A    between atoms: C13_21  and  C14_22
REMARK    8  A    between atoms: C14_22  and  N4_23
REMARK    9  A    between atoms: C19_30  and  N6_31
REMARK   10  A    between atoms: N6_31  and  N7_33
ROOT
HETATM    1  C5  UNL     1     -22.201  11.536  -4.282  1.00  0.00     0.150 A
HETATM    2  C6  UNL     1     -21.200  10.888  -3.651  1.00  0.00     0.144 A
HETATM    3  N2  UNL     1     -20.481   9.900  -4.307  1.00  0.00    -0.175 N
ATOM      4  H2  UNL     1     -19.729   9.431  -3.804  1.00  0.00     0.186 HD
HETATM    5  C11 UNL     1     -20.726   9.538  -5.556  1.00  0.00     0.681 A
HETATM    6  N5  UNL     1     -21.725  10.171  -6.207  1.00  0.00    -0.174 N
ATOM      7  H5  UNL     1     -21.938   9.915  -7.170  1.00  0.00     0.186 HD
HETATM    8  C19 UNL     1     -22.439  11.127  -5.610  1.00  0.00     0.160 A
ENDROOT
BRANCH   5   9
HETATM    9  N3  UNL     1     -20.031   8.626  -6.157  1.00  0.00    -0.226 N
ATOM     10  H3  UNL     1     -19.760   7.832  -5.576  1.00  0.00     0.177 HD
BRANCH   9  11
HETATM   11  C12 UNL     1     -19.595   8.568  -7.493  1.00  0.00     0.140 C
BRANCH  11  12
HETATM   12  C13 UNL     1     -18.067   8.517  -7.642  1.00  0.00     0.050 C
BRANCH  12  13
HETATM   13  C14 UNL     1     -17.764   7.387  -8.611  1.00  0.00     0.274 C
BRANCH  13  14
HETATM   14  N4  UNL     1     -16.836   6.427  -8.105  1.00  0.00     0.088 N
HETATM   15  C15 UNL     1     -15.551   6.432  -8.715  1.00  0.00     0.272 C
HETATM   16  C16 UNL     1     -15.014   5.037  -8.623  1.00  0.00     0.032 C
HETATM   17  C17 UNL     1     -16.248   4.178  -8.516  1.00  0.00     0.032 C
HETATM   18  C18 UNL     1     -17.370   5.109  -8.195  1.00  0.00     0.272 C
ENDBRANCH  13  14
ENDBRANCH  12  13
ENDBRANCH  11  12
ENDBRANCH   9  11
ENDBRANCH   5   9
BRANCH   2  19
HETATM   19  N1  UNL     1     -20.829  11.084  -2.302  1.00  0.00    -0.365 N
HETATM   20  C7  UNL     1     -19.561  11.582  -1.833  1.00  0.00     0.124 C
HETATM   21  C8  UNL     1     -19.885  12.307  -0.544  1.00  0.00     0.021 C
HETATM   22  C9  UNL     1     -21.045  11.501   0.015  1.00  0.00     0.021 C
HETATM   23  C10 UNL     1     -21.631  10.750  -1.154  1.00  0.00     0.124 C
ENDBRANCH   2  19
BRANCH   8  24
HETATM   24  N6  UNL     1     -23.404  11.690  -6.235  1.00  0.00    -0.290 N
ATOM     25  H6  UNL     1     -24.369  11.515  -5.954  1.00  0.00     0.188 HD
BRANCH  24  26
HETATM   26  N7  UNL     1     -23.129  12.544  -7.299  1.00  0.00    -0.344 N
ATOM     27  H72 UNL     1     -22.442  12.262  -7.999  1.00  0.00     0.176 HD
ATOM     28  H71 UNL     1     -23.614  13.438  -7.366  1.00  0.00     0.176 HD
ENDBRANCH  24  26
ENDBRANCH   8  24
BRANCH   1  29
HETATM   29  S1  UNL     1     -23.174  12.781  -3.668  1.00  0.00     0.190 S
HETATM   30  O1  UNL     1     -22.339  13.627  -2.657  1.00  0.00    -0.222 OA
HETATM   31  O2  UNL     1     -23.540  13.845  -4.703  1.00  0.00    -0.222 OA
BRANCH  29  32
HETATM   32  C2  UNL     1     -24.655  12.378  -2.846  1.00  0.00     0.058 C
HETATM   33  C1  UNL     1     -24.659  12.859  -1.404  1.00  0.00     0.031 C
HETATM   34  C3  UNL     1     -25.829  13.171  -3.507  1.00  0.00     0.031 C
HETATM   35  C4  UNL     1     -25.096  10.960  -2.888  1.00  0.00     0.031 C
ENDBRANCH  29  32
ENDBRANCH   1  29
TORSDOF 10
ENDMDL