MODEL 3
REMARK VINA RESULT: -6.496763803      2.291      4.145
REMARK  9 active torsions:
REMARK  status: ('A' for Active; 'I' for Inactive)
REMARK    1  A    between atoms: C2_2  and  N1_3
REMARK    2  A    between atoms: N1_3  and  C3_5
REMARK    3  A    between atoms: C9_11  and  C10_12
REMARK    4  A    between atoms: C14_18  and  N2_19
REMARK    5  A    between atoms: C17_22  and  O3_23
REMARK    6  A    between atoms: O3_23  and  C18_24
REMARK    7  A    between atoms: C18_24  and  C19_25
REMARK    8  A    between atoms: C19_25  and  O4_26
REMARK    9  A    between atoms: C19_25  and  C20_28
ROOT
HETATM    1  C3  UNL     1     -13.914   1.105  -8.689  1.00  0.00     0.112 C
HETATM    2  C4  UNL     1     -12.511   0.843  -8.460  1.00  0.00     0.016 C
HETATM    3  C5  UNL     1     -11.933   0.667  -9.845  1.00  0.00     0.050 C
HETATM    4  C6  UNL     1     -12.210   1.995 -10.399  1.00  0.00     0.119 C
HETATM    5  C7  UNL     1     -10.908   2.442 -10.917  1.00  0.00     0.051 C
HETATM    6  C8  UNL     1     -10.387   3.260  -9.817  1.00  0.00     0.034 A
HETATM    7  C9  UNL     1      -9.649   3.203  -8.650  1.00  0.00     0.030 A
HETATM    8  C12 UNL     1     -11.021   2.940  -8.550  1.00  0.00     0.105 A
HETATM    9  C13 UNL     1     -11.519   1.797  -7.915  1.00  0.00     0.049 C
HETATM   10  O1  UNL     1     -12.193   3.645  -8.724  1.00  0.00    -0.228 OA
HETATM   11  O2  UNL     1     -12.698   3.039  -9.674  1.00  0.00    -0.227 OA
HETATM   12  C14 UNL     1     -13.427   1.789 -11.185  1.00  0.00     0.147 C
HETATM   13  C17 UNL     1     -14.461   1.307 -10.098  1.00  0.00     0.169 C
ENDROOT
BRANCH  13  14
HETATM   14  O3  UNL     1     -15.547   1.956 -10.145  1.00  0.00    -0.379 OA
BRANCH  14  15
HETATM   15  C18 UNL     1     -16.609   2.567 -10.205  1.00  0.00     0.204 C
BRANCH  15  16
HETATM   16  C19 UNL     1     -16.740   3.596  -9.047  1.00  0.00     0.198 C
BRANCH  16  17
HETATM   17  O4  UNL     1     -18.045   3.755  -8.674  1.00  0.00    -0.389 OA
ATOM     18  H4  UNL     1     -18.154   4.527  -8.132  1.00  0.00     0.210 HD
ENDBRANCH  16  17
BRANCH  16  19
HETATM   19  C20 UNL     1     -16.016   4.867  -9.419  1.00  0.00     0.352 C
HETATM   20  N3  UNL     1     -14.686   4.916  -8.891  1.00  0.00    -0.044 N
HETATM   21  C21 UNL     1     -14.622   6.087  -8.032  1.00  0.00     0.261 C
ATOM     22  H32 UNL     1     -14.407   4.055  -8.420  1.00  0.00     0.280 HD
ATOM     23  H31 UNL     1     -13.966   4.906  -9.613  1.00  0.00     0.280 HD
HETATM   24  C22 UNL     1     -15.831   6.887  -8.474  1.00  0.00     0.198 C
HETATM   25  O5  UNL     1     -16.743   5.932  -8.914  1.00  0.00    -0.355 OA
ENDBRANCH  16  19
ENDBRANCH  15  16
ENDBRANCH  14  15
ENDBRANCH  13  14
BRANCH   1  26
HETATM   26  N1  UNL     1     -14.692   0.026  -8.112  1.00  0.00    -0.414 N
ATOM     27  H1  UNL     1     -15.698  -0.008  -8.278  1.00  0.00     0.153 HD
BRANCH  26  28
HETATM   28  C2  UNL     1     -14.101  -0.955  -7.344  1.00  0.00     0.110 C
HETATM   29  C1  UNL     1     -15.106  -1.317  -6.221  1.00  0.00     0.026 C
ENDBRANCH  26  28
ENDBRANCH   1  26
BRANCH  12  30
HETATM   30  N2  UNL     1     -13.439   1.110 -12.366  1.00  0.00    -0.411 N
HETATM   31  C15 UNL     1     -12.651   0.096 -12.858  1.00  0.00     0.143 C
HETATM   32  C16 UNL     1     -14.455   1.465 -13.342  1.00  0.00     0.143 C
ENDBRANCH  12  30
BRANCH   7  33
HETATM   33  C10 UNL     1      -8.612   2.148  -8.395  1.00  0.00     0.004 C
HETATM   34  C11 UNL     1      -7.219   2.637  -8.793  1.00  0.00     0.005 C
ENDBRANCH   7  33
TORSDOF 9
ENDMDL