MODEL 4
REMARK VINA RESULT: -7.543628100      2.309      2.979
REMARK  11 active torsions:
REMARK  status: ('A' for Active; 'I' for Inactive)
REMARK    1  A    between atoms: C2_2  and  O1_3
REMARK    2  A    between atoms: O1_3  and  C3_4
REMARK    3  A    between atoms: C3_4  and  C4_5
REMARK    4  A    between atoms: C4_5  and  N1_6
REMARK    5  A    between atoms: N2_9  and  C7_10
REMARK    6  A    between atoms: C7_10  and  C8_11
REMARK    7  A    between atoms: C8_11  and  N3_12
REMARK    8  A    between atoms: C12_23  and  C13_24
REMARK    9  A    between atoms: C13_24  and  C14_25
REMARK   10  A    between atoms: C14_25  and  C15_26
REMARK   11  A    between atoms: C15_26  and  O2_27
ROOT
HETATM    1  N3  UNL     1     -17.477   6.369  -8.703  1.00  0.00    -0.326 N
HETATM    2  C9  UNL     1     -17.217   6.496 -10.001  1.00  0.00     0.185 A
HETATM    3  N4  UNL     1     -17.832   7.595 -10.486  1.00  0.00    -0.346 N
ATOM      4  H4  UNL     1     -17.797   7.922 -11.452  1.00  0.00     0.167 HD
HETATM    5  C10 UNL     1     -18.498   8.182  -9.480  1.00  0.00     0.122 A
HETATM    6  C11 UNL     1     -19.297   9.325  -9.382  1.00  0.00     0.132 A
HETATM    7  N5  UNL     1     -19.484  10.020 -10.444  1.00  0.00    -0.383 N
ATOM      8  H51 UNL     1     -20.066  10.854 -10.373  1.00  0.00     0.157 HD
ATOM      9  H52 UNL     1     -19.090   9.797 -11.359  1.00  0.00     0.157 HD
HETATM   10  N6  UNL     1     -19.813   9.617  -8.183  1.00  0.00    -0.320 N
ATOM     11  H6  UNL     1     -20.397  10.449  -8.100  1.00  0.00     0.169 HD
HETATM   12  C12 UNL     1     -19.607   8.883  -7.093  1.00  0.00     0.164 A
HETATM   13  N7  UNL     1     -18.828   7.771  -7.194  1.00  0.00    -0.319 N
ATOM     14  H7  UNL     1     -18.661   7.198  -6.367  1.00  0.00     0.169 HD
HETATM   15  C20 UNL     1     -18.280   7.418  -8.358  1.00  0.00     0.141 A
ENDROOT
BRANCH   1  16
HETATM   16  C8  UNL     1     -17.033   5.341  -7.789  1.00  0.00     0.161 C
BRANCH  16  17
HETATM   17  C7  UNL     1     -15.660   4.838  -8.028  1.00  0.00     0.292 C
BRANCH  17  18
HETATM   18  N2  UNL     1     -15.453   3.999  -9.157  1.00  0.00     0.093 N
HETATM   19  C6  UNL     1     -14.040   3.720  -9.351  1.00  0.00     0.302 C
HETATM   20  C5  UNL     1     -13.956   2.584 -10.373  1.00  0.00     0.302 C
HETATM   21  N1  UNL     1     -14.305   1.394  -9.661  1.00  0.00     0.093 N
HETATM   22  C22 UNL     1     -15.525   1.543  -8.935  1.00  0.00     0.302 C
HETATM   23  C21 UNL     1     -16.263   2.819  -9.223  1.00  0.00     0.302 C
BRANCH  21  24
HETATM   24  C4  UNL     1     -14.225   0.187 -10.439  1.00  0.00     0.298 C
BRANCH  24  25
HETATM   25  C3  UNL     1     -13.003  -0.624 -10.166  1.00  0.00     0.198 C
BRANCH  25  26
HETATM   26  O1  UNL     1     -13.299  -1.610  -9.249  1.00  0.00    -0.390 OA
BRANCH  26  27
HETATM   27  C2  UNL     1     -12.814  -1.387  -7.979  1.00  0.00     0.163 C
HETATM   28  C1  UNL     1     -13.938  -1.246  -6.968  1.00  0.00     0.033 C
ENDBRANCH  26  27
ENDBRANCH  25  26
ENDBRANCH  24  25
ENDBRANCH  21  24
ENDBRANCH  17  18
ENDBRANCH  16  17
ENDBRANCH   1  16
BRANCH  12  29
HETATM   29  C13 UNL     1     -20.181   9.233  -5.831  1.00  0.00    -0.027 C
BRANCH  29  30
HETATM   30  C14 UNL     1     -20.682   9.536  -4.779  1.00  0.00    -0.060 C
BRANCH  30  31
HETATM   31  C15 UNL     1     -21.307   9.907  -3.528  1.00  0.00     0.121 C
HETATM   32  C16 UNL     1     -21.932  11.258  -3.673  1.00  0.00     0.051 C
HETATM   33  C17 UNL     1     -21.161  12.160  -2.766  1.00  0.00     0.004 C
HETATM   34  C18 UNL     1     -20.693  11.239  -1.653  1.00  0.00     0.004 C
HETATM   35  C19 UNL     1     -20.243  10.029  -2.452  1.00  0.00     0.051 C
BRANCH  31  36
HETATM   36  O2  UNL     1     -22.287   8.990  -3.152  1.00  0.00    -0.378 OA
ATOM     37  H2  UNL     1     -23.125   9.192  -3.549  1.00  0.00     0.211 HD
ENDBRANCH  31  36
ENDBRANCH  30  31
ENDBRANCH  29  30
ENDBRANCH  12  29
TORSDOF 11
ENDMDL