MODEL 5
REMARK VINA RESULT: -9.371537974      2.986      5.069
REMARK  9 active torsions:
REMARK  status: ('A' for Active; 'I' for Inactive)
REMARK    1  A    between atoms: N2_5  and  C4_6
REMARK    2  A    between atoms: C6_10  and  N4_11
REMARK    3  A    between atoms: N4_11  and  C7_13
REMARK    4  A    between atoms: C10_18  and  N6_19
REMARK    5  A    between atoms: N6_19  and  C11_21
REMARK    6  A    between atoms: C11_21  and  C12_22
REMARK    7  A    between atoms: C12_22  and  C13_23
REMARK    8  A    between atoms: C13_23  and  N7_24
REMARK    9  A    between atoms: N7_24  and  C15_26
ROOT
HETATM    1  C7  UNL     1     -17.210   6.667  -9.279  1.00  0.00     0.684 A
HETATM    2  N5  UNL     1     -16.220   6.967  -8.419  1.00  0.00    -0.202 N
ATOM      3  H5  UNL     1     -16.221   7.886  -7.975  1.00  0.00     0.183 HD
HETATM    4  C8  UNL     1     -15.230   6.113  -8.118  1.00  0.00     0.110 A
HETATM    5  C9  UNL     1     -15.241   4.860  -8.731  1.00  0.00     0.066 A
HETATM    6  C10 UNL     1     -16.243   4.524  -9.616  1.00  0.00     0.118 A
HETATM    7  N10 UNL     1     -17.198   5.441  -9.862  1.00  0.00    -0.177 N
ATOM      8  H10 UNL     1     -17.945   5.205 -10.515  1.00  0.00     0.186 HD
ENDROOT
BRANCH   1   9
HETATM    9  N4  UNL     1     -18.145   7.519  -9.538  1.00  0.00    -0.189 N
ATOM     10  H4  UNL     1     -18.338   7.806 -10.498  1.00  0.00     0.184 HD
BRANCH   9  11
HETATM   11  C6  UNL     1     -18.895   8.046  -8.457  1.00  0.00     0.081 A
HETATM   12  C5  UNL     1     -20.159   7.618  -8.136  1.00  0.00     0.137 A
HETATM   13  N3  UNL     1     -20.824   8.152  -7.099  1.00  0.00    -0.200 N
HETATM   14  C4  UNL     1     -20.289   9.130  -6.324  1.00  0.00     0.680 A
ATOM     15  H3  UNL     1     -21.762   7.812  -6.887  1.00  0.00     0.183 HD
HETATM   16  N11 UNL     1     -19.044   9.534  -6.660  1.00  0.00    -0.200 N
HETATM   17  C19 UNL     1     -18.336   9.037  -7.682  1.00  0.00     0.137 A
ATOM     18  H11 UNL     1     -18.615  10.267  -6.096  1.00  0.00     0.183 HD
BRANCH  14  19
HETATM   19  N2  UNL     1     -21.001   9.680  -5.237  1.00  0.00    -0.215 N
HETATM   20  C3  UNL     1     -21.928  10.764  -5.426  1.00  0.00     0.160 C
HETATM   21  C2  UNL     1     -22.737  11.027  -4.179  1.00  0.00     0.136 C
HETATM   22  N1  UNL     1     -21.945  11.142  -2.990  1.00  0.00    -0.414 N
HETATM   23  C1  UNL     1     -21.750  12.488  -2.542  1.00  0.00     0.143 C
HETATM   24  C21 UNL     1     -20.787  10.319  -2.940  1.00  0.00     0.136 C
HETATM   25  C20 UNL     1     -20.813   9.162  -3.906  1.00  0.00     0.160 C
ENDBRANCH  14  19
ENDBRANCH   9  11
ENDBRANCH   1   9
BRANCH   6  26
HETATM   26  N6  UNL     1     -16.303   3.380 -10.211  1.00  0.00    -0.376 N
ATOM     27  H6  UNL     1     -17.152   3.182 -10.741  1.00  0.00     0.161 HD
BRANCH  26  28
HETATM   28  C11 UNL     1     -15.302   2.365 -10.200  1.00  0.00     0.123 C
BRANCH  28  29
HETATM   29  C12 UNL     1     -15.568   1.358  -9.079  1.00  0.00     0.040 C
BRANCH  29  30
HETATM   30  C13 UNL     1     -14.710   0.113  -9.252  1.00  0.00     0.142 C
BRANCH  30  31
HETATM   31  N7  UNL     1     -13.699   0.020  -8.230  1.00  0.00    -0.223 N
HETATM   32  C14 UNL     1     -12.503   0.847  -8.276  1.00  0.00     0.168 C
BRANCH  31  33
HETATM   33  C15 UNL     1     -13.830  -0.880  -7.138  1.00  0.00     0.671 C
HETATM   34  N8  UNL     1     -12.740  -1.334  -6.585  1.00  0.00    -0.226 N
HETATM   35  C16 UNL     1     -12.815  -2.255  -5.466  1.00  0.00     0.139 C
ATOM     36  H8  UNL     1     -11.830  -1.041  -6.941  1.00  0.00     0.177 HD
HETATM   37  C17 UNL     1     -13.924  -1.820  -4.532  1.00  0.00     0.040 C
HETATM   38  C18 UNL     1     -15.247  -1.813  -5.273  1.00  0.00     0.139 C
HETATM   39  N9  UNL     1     -15.070  -1.305  -6.616  1.00  0.00    -0.226 N
ATOM     40  H9  UNL     1     -15.890  -1.252  -7.222  1.00  0.00     0.177 HD
ENDBRANCH  31  33
ENDBRANCH  30  31
ENDBRANCH  29  30
ENDBRANCH  28  29
ENDBRANCH  26  28
ENDBRANCH   6  26
TORSDOF 9
ENDMDL