MODEL 5
REMARK VINA RESULT: -6.711552056      1.702      2.015
REMARK  10 active torsions:
REMARK  status: ('A' for Active; 'I' for Inactive)
REMARK    1  A    between atoms: C2_2  and  O1_3
REMARK    2  A    between atoms: O1_3  and  C3_4
REMARK    3  A    between atoms: C5_6  and  N1_7
REMARK    4  A    between atoms: C11_13  and  N2_14
REMARK    5  A    between atoms: N2_14  and  C12_16
REMARK    6  A    between atoms: C13_19  and  N4_20
REMARK    7  A    between atoms: C19_29  and  N7_30
REMARK    8  A    between atoms: N7_30  and  C20_32
REMARK    9  A    between atoms: C20_32  and  C21_33
REMARK   10  A    between atoms: C21_33  and  O2_34
ROOT
HETATM    1  C12 UNL     1     -13.643   1.275 -11.080  1.00  0.00     0.712 A
HETATM    2  N3  UNL     1     -14.127   2.155 -10.192  1.00  0.00    -0.021 N
ATOM      3  H3  UNL     1     -13.597   2.347  -9.342  1.00  0.00     0.203 HD
HETATM    4  C13 UNL     1     -15.282   2.784 -10.394  1.00  0.00     0.709 A
HETATM    5  N6  UNL     1     -15.989   2.540 -11.507  1.00  0.00    -0.021 N
ATOM      6  H6  UNL     1     -16.874   3.023 -11.660  1.00  0.00     0.203 HD
HETATM    7  C19 UNL     1     -15.541   1.664 -12.424  1.00  0.00     0.707 A
HETATM    8  N8  UNL     1     -14.371   1.051 -12.183  1.00  0.00    -0.021 N
ATOM      9  H8  UNL     1     -14.020   0.384 -12.870  1.00  0.00     0.203 HD
ENDROOT
BRANCH   1  10
HETATM   10  N2  UNL     1     -12.531   0.648 -10.919  1.00  0.00    -0.187 N
ATOM     11  H2  UNL     1     -12.476  -0.329 -11.205  1.00  0.00     0.184 HD
BRANCH  10  12
HETATM   12  C11 UNL     1     -11.379   1.256 -10.362  1.00  0.00     0.088 A
HETATM   13  C3  UNL     1     -11.209   1.216  -8.987  1.00  0.00     0.098 A
HETATM   14  C4  UNL     1     -10.086   1.809  -8.456  1.00  0.00     0.068 A
HETATM   15  C5  UNL     1      -9.128   2.439  -9.241  1.00  0.00     0.032 A
HETATM   16  C8  UNL     1      -9.330   2.458 -10.594  1.00  0.00     0.038 A
HETATM   17  C9  UNL     1     -10.453   1.867 -11.150  1.00  0.00    -0.030 A
HETATM   18  C10 UNL     1     -10.580   1.943 -12.638  1.00  0.00     0.050 C
BRANCH  13  19
HETATM   19  O1  UNL     1     -12.114   0.610  -8.159  1.00  0.00    -0.349 OA
BRANCH  19  20
HETATM   20  C2  UNL     1     -11.942  -0.511  -7.355  1.00  0.00     0.171 C
HETATM   21  C1  UNL     1     -11.853  -0.254  -5.888  1.00  0.00     0.034 C
ENDBRANCH  19  20
ENDBRANCH  13  19
BRANCH  15  22
HETATM   22  N1  UNL     1      -7.980   3.042  -8.665  1.00  0.00    -0.389 N
HETATM   23  C6  UNL     1      -8.079   4.200  -7.816  1.00  0.00     0.149 C
HETATM   24  C7  UNL     1      -6.680   2.471  -8.941  1.00  0.00     0.149 C
ENDBRANCH  15  22
ENDBRANCH  10  12
ENDBRANCH   1  10
BRANCH   4  25
HETATM   25  N4  UNL     1     -15.726   3.706  -9.402  1.00  0.00    -0.213 N
HETATM   26  C14 UNL     1     -14.823   4.646  -8.815  1.00  0.00     0.171 C
HETATM   27  C15 UNL     1     -15.417   6.005  -8.578  1.00  0.00     0.292 C
HETATM   28  N5  UNL     1     -16.832   5.961  -8.818  1.00  0.00     0.087 N
HETATM   29  C16 UNL     1     -17.505   7.193  -8.496  1.00  0.00     0.310 C
HETATM   30  C17 UNL     1     -17.450   4.812  -8.170  1.00  0.00     0.292 C
HETATM   31  C18 UNL     1     -17.146   3.614  -9.042  1.00  0.00     0.171 C
ENDBRANCH   4  25
BRANCH   7  32
HETATM   32  N7  UNL     1     -16.213   1.422 -13.497  1.00  0.00    -0.223 N
ATOM     33  H7  UNL     1     -17.228   1.349 -13.436  1.00  0.00     0.177 HD
BRANCH  32  34
HETATM   34  C20 UNL     1     -15.581   1.251 -14.779  1.00  0.00     0.164 C
BRANCH  34  35
HETATM   35  C21 UNL     1     -15.425   2.610 -15.429  1.00  0.00     0.184 C
BRANCH  35  36
HETATM   36  O2  UNL     1     -16.519   3.419 -15.176  1.00  0.00    -0.399 OA
ATOM     37  H2  UNL     1     -17.032   3.563 -15.962  1.00  0.00     0.209 HD
ENDBRANCH  35  36
ENDBRANCH  34  35
ENDBRANCH  32  34
ENDBRANCH   7  32
TORSDOF 10
ENDMDL