MODEL 2
REMARK VINA RESULT: -6.152605165      4.245      7.147
REMARK  11 active torsions:
REMARK  status: ('A' for Active; 'I' for Inactive)
REMARK    1  A    between atoms: C3_3  and  N1_4
REMARK    2  A    between atoms: N1_4  and  C5_6
REMARK    3  A    between atoms: C5_6  and  C6_7
REMARK    4  A    between atoms: C6_7  and  O1_8
REMARK    5  A    between atoms: C8_11  and  O2_12
REMARK    6  A    between atoms: C9_14  and  O3_15
REMARK    7  A    between atoms: C10_17  and  O4_18
REMARK    8  A    between atoms: O4_18  and  C11_19
REMARK    9  A    between atoms: C16_24  and  O5_25
REMARK   10  A    between atoms: O5_25  and  C17_26
REMARK       I    between atoms: C17_26  and  N2_28
REMARK   11  A    between atoms: C20_31  and  O7_32
ROOT
HETATM    1  C1  UNL     1     -14.334  -6.756  -7.287  1.00  0.00     0.018 C
HETATM    2  C2  UNL     1     -14.044  -5.802  -6.624  1.00  0.00    -0.072 C
HETATM    3  C3  UNL     1     -13.686  -4.614  -5.823  1.00  0.00     0.153 C
ENDROOT
BRANCH   3   4
HETATM    4  N1  UNL     1     -12.787  -3.839  -6.568  1.00  0.00    -0.364 N
HETATM    5  C4  UNL     1     -11.455  -4.294  -6.571  1.00  0.00     0.155 C
BRANCH   4   6
HETATM    6  C5  UNL     1     -13.164  -2.780  -7.369  1.00  0.00     0.104 C
BRANCH   6   7
HETATM    7  C6  UNL     1     -13.274  -1.406  -6.686  1.00  0.00     0.120 C
HETATM    8  C7  UNL     1     -12.660  -1.378  -5.356  1.00  0.00     0.080 C
HETATM    9  C8  UNL     1     -11.378  -0.669  -5.162  1.00  0.00     0.152 C
HETATM   10  C9  UNL     1     -10.740  -0.147  -6.420  1.00  0.00     0.178 C
HETATM   11  C10 UNL     1     -11.808   0.599  -7.169  1.00  0.00     0.185 C
HETATM   12  C20 UNL     1     -12.820  -0.369  -7.686  1.00  0.00     0.192 C
BRANCH   7  13
HETATM   13  O1  UNL     1     -14.655  -1.224  -6.511  1.00  0.00    -0.382 OA
ATOM     14  H1  UNL     1     -14.828  -0.378  -6.908  1.00  0.00     0.211 HD
ENDBRANCH   7  13
BRANCH   9  15
HETATM   15  O2  UNL     1     -10.416  -1.418  -4.463  1.00  0.00    -0.393 OA
ATOM     16  H2  UNL     1      -9.523  -1.242  -4.734  1.00  0.00     0.210 HD
ENDBRANCH   9  15
BRANCH  10  17
HETATM   17  O3  UNL     1     -10.062  -1.094  -7.150  1.00  0.00    -0.390 OA
ATOM     18  H3  UNL     1      -9.224  -0.803  -7.489  1.00  0.00     0.210 HD
ENDBRANCH  10  17
BRANCH  11  19
HETATM   19  O4  UNL     1     -11.381   1.468  -8.095  1.00  0.00    -0.373 OA
BRANCH  19  20
HETATM   20  C11 UNL     1     -11.196   2.766  -7.760  1.00  0.00     0.152 C
HETATM   21  C12 UNL     1      -9.704   3.144  -7.703  1.00  0.00     0.034 C
HETATM   22  C13 UNL     1      -9.254   3.764  -8.999  1.00  0.00     0.003 C
HETATM   23  C14 UNL     1      -9.893   2.966 -10.113  1.00  0.00     0.003 C
HETATM   24  C15 UNL     1     -11.360   3.338 -10.173  1.00  0.00     0.035 C
HETATM   25  C16 UNL     1     -11.820   3.677  -8.777  1.00  0.00     0.162 C
BRANCH  25  26
HETATM   26  O5  UNL     1     -13.202   3.794  -8.646  1.00  0.00    -0.296 OA
BRANCH  26  27
HETATM   27  C17 UNL     1     -13.858   5.009  -8.695  1.00  0.00     0.362 C
HETATM   28  O6  UNL     1     -13.124   6.040  -8.697  1.00  0.00    -0.238 OA
HETATM   29  N2  UNL     1     -15.286   5.107  -8.741  1.00  0.00    -0.337 N
HETATM   30  C18 UNL     1     -15.879   6.423  -8.786  1.00  0.00     0.154 C
HETATM   31  C19 UNL     1     -16.072   3.909  -8.740  1.00  0.00     0.154 C
ENDBRANCH  26  27
ENDBRANCH  25  26
ENDBRANCH  19  20
ENDBRANCH  11  19
BRANCH  12  32
HETATM   32  O7  UNL     1     -12.457  -0.974  -8.888  1.00  0.00    -0.385 OA
HETATM   33  C21 UNL     1     -13.115  -0.442  -9.995  1.00  0.00     0.202 C
ENDBRANCH  12  32
ENDBRANCH   6   7
ENDBRANCH   4   6
ENDBRANCH   3   4
TORSDOF 11
ENDMDL