MODEL 2
REMARK VINA RESULT: -7.899387905      2.678      7.717
REMARK  10 active torsions:
REMARK  status: ('A' for Active; 'I' for Inactive)
REMARK    1  A    between atoms: N1_2  and  C2_4
REMARK    2  A    between atoms: C3_5  and  C4_6
REMARK    3  A    between atoms: C6_10  and  N3_11
REMARK    4  A    between atoms: C9_18  and  N5_19
REMARK    5  A    between atoms: N5_19  and  C10_21
REMARK    6  A    between atoms: C10_21  and  C11_22
REMARK    7  A    between atoms: N7_29  and  C15_30
REMARK    8  A    between atoms: C15_30  and  C16_31
REMARK    9  A    between atoms: C16_31  and  C17_32
REMARK   10  A    between atoms: C17_32  and  N8_33
ROOT
HETATM    1  C2  UNL     1     -14.069   4.167  -9.245  1.00  0.00     0.132 A
HETATM    2  C3  UNL     1     -15.346   3.876  -9.617  1.00  0.00     0.026 A
HETATM    3  C8  UNL     1     -15.580   2.802 -10.499  1.00  0.00     0.065 A
HETATM    4  C9  UNL     1     -14.546   2.048 -10.991  1.00  0.00     0.116 A
HETATM    5  N6  UNL     1     -13.308   2.386 -10.588  1.00  0.00    -0.282 N
ATOM      6  H6  UNL     1     -12.520   1.841 -10.938  1.00  0.00     0.189 HD
HETATM    7  N7  UNL     1     -13.062   3.376  -9.770  1.00  0.00    -0.274 N
ENDROOT
BRANCH   2   8
HETATM    8  C4  UNL     1     -16.470   4.673  -9.172  1.00  0.00     0.010 A
HETATM    9  C5  UNL     1     -16.682   5.908  -9.805  1.00  0.00     0.120 A
HETATM   10  N2  UNL     1     -17.676   6.709  -9.395  1.00  0.00    -0.201 N
HETATM   11  C6  UNL     1     -18.500   6.380  -8.385  1.00  0.00     0.675 A
ATOM     12  H2  UNL     1     -17.813   7.602  -9.867  1.00  0.00     0.183 HD
HETATM   13  N4  UNL     1     -18.307   5.208  -7.776  1.00  0.00    -0.201 N
HETATM   14  C7  UNL     1     -17.329   4.385  -8.156  1.00  0.00     0.120 A
ATOM     15  H4  UNL     1     -18.919   4.936  -7.007  1.00  0.00     0.183 HD
BRANCH  11  16
HETATM   16  N3  UNL     1     -19.444   7.185  -8.025  1.00  0.00    -0.234 N
ATOM     17  H32 UNL     1     -20.125   7.547  -8.693  1.00  0.00     0.174 HD
ATOM     18  H31 UNL     1     -19.529   7.476  -7.051  1.00  0.00     0.174 HD
ENDBRANCH  11  16
ENDBRANCH   2   8
BRANCH   1  19
HETATM   19  N1  UNL     1     -13.675   5.026  -8.455  1.00  0.00    -0.360 N
HETATM   20  C1  UNL     1     -13.770   6.319  -8.019  1.00  0.00     0.120 C
ATOM     21  H1  UNL     1     -12.971   4.576  -7.871  1.00  0.00     0.165 HD
ENDBRANCH   1  19
BRANCH   7  22
HETATM   22  C15 UNL     1     -11.666   3.626  -9.425  1.00  0.00     0.152 C
BRANCH  22  23
HETATM   23  C16 UNL     1     -11.057   2.278  -9.136  1.00  0.00     0.039 C
BRANCH  23  24
HETATM   24  C17 UNL     1     -11.305   1.896  -7.680  1.00  0.00     0.122 C
BRANCH  24  25
HETATM   25  N8  UNL     1     -11.861   0.557  -7.593  1.00  0.00    -0.197 NA
HETATM   26  C18 UNL     1     -11.844   0.066  -6.229  1.00  0.00     0.120 C
HETATM   27  C19 UNL     1     -12.257  -1.370  -6.208  1.00  0.00     0.019 C
HETATM   28  C20 UNL     1     -12.805  -1.727  -7.589  1.00  0.00     0.029 C
HETATM   29  C21 UNL     1     -13.792  -0.611  -7.925  1.00  0.00     0.194 C
HETATM   30  O2  UNL     1     -13.107   0.564  -8.122  1.00  0.00    -0.303 OA
ENDBRANCH  24  25
ENDBRANCH  23  24
ENDBRANCH  22  23
ENDBRANCH   7  22
BRANCH   4  31
HETATM   31  N5  UNL     1     -14.791   1.080 -11.791  1.00  0.00    -0.373 N
ATOM     32  H5  UNL     1     -14.228   0.230 -11.754  1.00  0.00     0.161 HD
BRANCH  31  33
HETATM   33  C10 UNL     1     -15.866   1.196 -12.749  1.00  0.00     0.153 C
BRANCH  33  34
HETATM   34  C11 UNL     1     -15.313   1.822 -14.013  1.00  0.00     0.139 C
HETATM   35  C12 UNL     1     -15.288   0.766 -15.082  1.00  0.00     0.035 C
HETATM   36  C13 UNL     1     -15.344   1.614 -16.340  1.00  0.00     0.029 C
HETATM   37  C14 UNL     1     -15.608   2.990 -15.803  1.00  0.00     0.168 C
HETATM   38  O1  UNL     1     -16.209   2.748 -14.561  1.00  0.00    -0.384 OA
ENDBRANCH  33  34
ENDBRANCH  31  33
ENDBRANCH   4  31
TORSDOF 10
ENDMDL