MODEL 2
REMARK VINA RESULT: -7.362186722      7.983     12.578
REMARK  9 active torsions:
REMARK  status: ('A' for Active; 'I' for Inactive)
REMARK    1  A    between atoms: C2_3  and  N2_4
REMARK    2  A    between atoms: N2_4  and  C3_6
REMARK    3  A    between atoms: C4_9  and  N4_10
REMARK    4  A    between atoms: N4_10  and  C5_12
REMARK    5  A    between atoms: C9_16  and  N5_17
REMARK    6  A    between atoms: N5_17  and  C10_19
REMARK    7  A    between atoms: N6_22  and  C13_23
REMARK    8  A    between atoms: C13_23  and  C14_24
REMARK    9  A    between atoms: C14_24  and  N7_25
ROOT
HETATM    1  N1  UNL     1     -13.674   7.239  -8.138  1.00  0.00    -0.195 NA
HETATM    2  C1  UNL     1     -14.446   6.403  -8.400  1.00  0.00     0.091 C
HETATM    3  C2  UNL     1     -15.412   5.329  -8.725  1.00  0.00     0.136 A
HETATM    4  C21 UNL     1     -16.740   5.821  -9.317  1.00  0.00     0.051 A
HETATM    5  C22 UNL     1     -16.675   5.328  -7.914  1.00  0.00     0.051 A
ENDROOT
BRANCH   3   6
HETATM    6  N2  UNL     1     -14.905   4.190  -9.386  1.00  0.00    -0.204 N
ATOM      7  H2  UNL     1     -15.577   3.745 -10.012  1.00  0.00     0.179 HD
BRANCH   6   8
HETATM    8  C3  UNL     1     -13.788   3.617  -9.355  1.00  0.00     0.682 A
HETATM    9  N3  UNL     1     -12.661   4.254  -9.686  1.00  0.00    -0.177 N
HETATM   10  C4  UNL     1     -11.474   3.639  -9.652  1.00  0.00     0.120 A
ATOM     11  H3  UNL     1     -12.708   5.232  -9.971  1.00  0.00     0.185 HD
HETATM   12  C8  UNL     1     -11.399   2.297  -9.260  1.00  0.00     0.097 A
HETATM   13  C9  UNL     1     -12.577   1.620  -8.911  1.00  0.00     0.120 A
HETATM   14  N8  UNL     1     -13.714   2.306  -8.974  1.00  0.00    -0.177 N
ATOM     15  H8  UNL     1     -14.579   1.827  -8.723  1.00  0.00     0.185 HD
BRANCH  10  16
HETATM   16  N4  UNL     1     -10.294   4.327 -10.010  1.00  0.00    -0.371 N
ATOM     17  H4  UNL     1     -10.238   5.335  -9.863  1.00  0.00     0.161 HD
BRANCH  16  18
HETATM   18  C5  UNL     1      -9.172   3.636 -10.577  1.00  0.00     0.083 A
HETATM   19  C6  UNL     1      -8.667   4.002 -11.970  1.00  0.00     0.027 A
HETATM   20  C7  UNL     1      -7.887   4.394 -10.733  1.00  0.00     0.027 A
ENDBRANCH  16  18
ENDBRANCH  10  16
BRANCH  13  21
HETATM   21  N5  UNL     1     -12.450   0.392  -8.564  1.00  0.00    -0.371 N
ATOM     22  H5  UNL     1     -13.182  -0.265  -8.832  1.00  0.00     0.161 HD
BRANCH  21  23
HETATM   23  C10 UNL     1     -11.330  -0.104  -7.819  1.00  0.00     0.086 C
HETATM   24  C11 UNL     1     -11.145  -1.600  -8.018  1.00  0.00     0.055 C
HETATM   25  C12 UNL     1     -12.078  -2.405  -7.151  1.00  0.00     0.274 C
HETATM   26  N6  UNL     1     -11.803  -2.021  -5.757  1.00  0.00     0.090 N
HETATM   27  C19 UNL     1     -12.390  -0.665  -5.675  1.00  0.00     0.274 C
HETATM   28  C20 UNL     1     -11.430   0.267  -6.361  1.00  0.00     0.055 C
BRANCH  26  29
HETATM   29  C13 UNL     1     -12.580  -2.925  -4.930  1.00  0.00     0.291 C
BRANCH  29  30
HETATM   30  C14 UNL     1     -13.287  -2.146  -3.843  1.00  0.00     0.147 C
BRANCH  30  31
HETATM   31  N7  UNL     1     -12.653  -2.481  -2.591  1.00  0.00    -0.407 N
HETATM   32  C15 UNL     1     -13.392  -2.178  -1.419  1.00  0.00     0.143 C
HETATM   33  C16 UNL     1     -12.733  -2.919  -0.254  1.00  0.00     0.187 C
HETATM   34  O1  UNL     1     -13.033  -4.246  -0.447  1.00  0.00    -0.388 OA
HETATM   35  C17 UNL     1     -12.478  -4.754  -1.602  1.00  0.00     0.187 C
HETATM   36  C18 UNL     1     -12.017  -3.761  -2.600  1.00  0.00     0.143 C
ENDBRANCH  30  31
ENDBRANCH  29  30
ENDBRANCH  26  29
ENDBRANCH  21  23
ENDBRANCH  13  21
ENDBRANCH   6   8
ENDBRANCH   3   6
TORSDOF 9
ENDMDL