MODEL 4
REMARK VINA RESULT: -6.593480592      2.687      6.216
REMARK  10 active torsions:
REMARK  status: ('A' for Active; 'I' for Inactive)
REMARK    1  A    between atoms: C2_2  and  C3_3
REMARK    2  A    between atoms: C3_3  and  C4_4
REMARK    3  A    between atoms: C4_4  and  N1_5
REMARK    4  A    between atoms: C5_6  and  N2_7
REMARK    5  A    between atoms: N2_7  and  C6_9
REMARK    6  A    between atoms: C6_9  and  C7_10
REMARK    7  A    between atoms: C7_10  and  O1_11
REMARK    8  A    between atoms: C12_22  and  N6_23
REMARK    9  A    between atoms: N6_23  and  C13_25
REMARK   10  A    between atoms: C13_25  and  C14_26
ROOT
HETATM    1  N1  UNL     1     -12.270   2.643 -10.361  1.00  0.00    -0.167 N
HETATM    2  C5  UNL     1     -11.600   3.747  -9.941  1.00  0.00     0.683 A
HETATM    3  N3  UNL     1     -12.257   4.741  -9.348  1.00  0.00    -0.174 N
ATOM      4  H3  UNL     1     -11.738   5.563  -9.039  1.00  0.00     0.186 HD
HETATM    5  C8  UNL     1     -13.581   4.695  -9.145  1.00  0.00     0.152 A
HETATM    6  C9  UNL     1     -14.269   3.581  -9.565  1.00  0.00     0.072 A
HETATM    7  C10 UNL     1     -15.579   3.831  -9.221  1.00  0.00     0.126 A
HETATM    8  N4  UNL     1     -15.668   5.051  -8.617  1.00  0.00    -0.307 N
ATOM      9  H4  UNL     1     -16.517   5.492  -8.261  1.00  0.00     0.186 HD
HETATM   10  N5  UNL     1     -14.453   5.552  -8.583  1.00  0.00    -0.280 N
HETATM   11  C11 UNL     1     -14.033   6.845  -8.031  1.00  0.00     0.179 C
HETATM   12  C12 UNL     1     -13.603   2.511 -10.195  1.00  0.00     0.139 A
ENDROOT
BRANCH  12  13
HETATM   13  N6  UNL     1     -14.245   1.514 -10.525  1.00  0.00    -0.347 N
ATOM     14  H6  UNL     1     -14.238   1.480 -11.545  1.00  0.00     0.167 HD
BRANCH  13  15
HETATM   15  C13 UNL     1     -14.963   0.432 -10.094  1.00  0.00     0.138 C
BRANCH  15  16
HETATM   16  C14 UNL     1     -14.438  -0.204  -8.832  1.00  0.00     0.121 A
HETATM   17  N7  UNL     1     -15.211  -0.616  -7.827  1.00  0.00    -0.343 N
HETATM   18  C15 UNL     1     -14.452  -1.129  -6.867  1.00  0.00     0.035 A
ATOM     19  H7  UNL     1     -16.228  -0.549  -7.800  1.00  0.00     0.167 HD
HETATM   20  C16 UNL     1     -13.137  -1.030  -7.301  1.00  0.00     0.035 A
HETATM   21  C21 UNL     1     -14.955  -1.694  -5.581  1.00  0.00     0.089 C
HETATM   22  N8  UNL     1     -13.175  -0.463  -8.498  1.00  0.00    -0.343 N
HETATM   23  C17 UNL     1     -11.938  -1.486  -6.537  1.00  0.00     0.089 C
ATOM     24  H8  UNL     1     -12.360  -0.257  -9.076  1.00  0.00     0.167 HD
HETATM   25  C18 UNL     1     -12.130  -1.269  -5.060  1.00  0.00     0.278 C
HETATM   26  N9  UNL     1     -12.879  -2.298  -4.411  1.00  0.00     0.084 N
HETATM   27  C19 UNL     1     -13.409  -1.802  -3.146  1.00  0.00     0.309 C
HETATM   28  C20 UNL     1     -13.987  -2.801  -5.170  1.00  0.00     0.278 C
ENDBRANCH  15  16
ENDBRANCH  13  15
ENDBRANCH  12  13
BRANCH   1  29
HETATM   29  C4  UNL     1     -11.475   1.609 -10.944  1.00  0.00     0.149 C
BRANCH  29  30
HETATM   30  C3  UNL     1     -11.361   1.569 -12.410  1.00  0.00     0.020 C
BRANCH  30  31
HETATM   31  C2  UNL     1     -10.059   1.552 -13.088  1.00  0.00    -0.003 C
HETATM   32  C1  UNL     1      -9.526   2.908 -13.476  1.00  0.00     0.005 C
ENDBRANCH  30  31
ENDBRANCH  29  30
ENDBRANCH   1  29
BRANCH   2  33
HETATM   33  N2  UNL     1     -10.323   3.859 -10.106  1.00  0.00    -0.224 N
ATOM     34  H2  UNL     1      -9.949   3.995 -11.045  1.00  0.00     0.177 HD
BRANCH  33  35
HETATM   35  C6  UNL     1      -9.419   3.794  -8.985  1.00  0.00     0.164 C
BRANCH  35  36
HETATM   36  C7  UNL     1      -8.026   4.234  -9.368  1.00  0.00     0.184 C
BRANCH  36  37
HETATM   37  O1  UNL     1      -7.970   5.627  -9.337  1.00  0.00    -0.399 OA
ATOM     38  H1  UNL     1      -7.882   5.951 -10.226  1.00  0.00     0.209 HD
ENDBRANCH  36  37
ENDBRANCH  35  36
ENDBRANCH  33  35
ENDBRANCH   2  33
TORSDOF 10
ENDMDL