MODEL 3
REMARK VINA RESULT: -6.790477711      2.945      7.988
REMARK  9 active torsions:
REMARK  status: ('A' for Active; 'I' for Inactive)
REMARK    1  A    between atoms: C3_3  and  N1_4
REMARK    2  A    between atoms: N1_4  and  C4_6
REMARK    3  A    between atoms: N3_10  and  C6_12
REMARK    4  A    between atoms: N5_21  and  C12_22
REMARK    5  A    between atoms: C14_24  and  C15_25
REMARK    6  A    between atoms: C15_25  and  O2_26
REMARK    7  A    between atoms: O2_26  and  C16_27
REMARK    8  A    between atoms: C19_30  and  C20_31
REMARK    9  A    between atoms: C20_31  and  O3_32
ROOT
HETATM    1  C1  UNL     1     -15.184   1.979 -14.871  1.00  0.00     0.014 C
HETATM    2  C2  UNL     1     -14.578   1.285 -14.100  1.00  0.00    -0.097 C
HETATM    3  C3  UNL     1     -13.862   0.429 -13.157  1.00  0.00     0.231 C
ENDROOT
BRANCH   3   4
HETATM    4  N1  UNL     1     -14.509   0.497 -11.874  1.00  0.00    -0.216 N
ATOM      5  H1  UNL     1     -15.090  -0.281 -11.561  1.00  0.00     0.178 HD
BRANCH   4   6
HETATM    6  C4  UNL     1     -14.365   1.530 -11.115  1.00  0.00     0.682 A
HETATM    7  N2  UNL     1     -15.399   2.354 -10.900  1.00  0.00    -0.175 N
HETATM    8  C5  UNL     1     -15.325   3.465 -10.110  1.00  0.00     0.148 A
ATOM      9  H2  UNL     1     -16.289   2.140 -11.350  1.00  0.00     0.186 HD
HETATM   10  N3  UNL     1     -16.326   4.207  -9.941  1.00  0.00    -0.367 N
HETATM   11  C10 UNL     1     -14.084   3.712  -9.517  1.00  0.00     0.123 A
ATOM     12  H3  UNL     1     -17.169   3.913 -10.432  1.00  0.00     0.161 HD
HETATM   13  N4  UNL     1     -13.626   4.669  -8.705  1.00  0.00    -0.346 N
HETATM   14  C21 UNL     1     -13.016   2.859  -9.741  1.00  0.00     0.157 A
HETATM   15  C11 UNL     1     -12.354   4.456  -8.418  1.00  0.00     0.188 A
ATOM     16  H4  UNL     1     -14.180   5.451  -8.356  1.00  0.00     0.167 HD
HETATM   17  N5  UNL     1     -11.968   3.342  -9.053  1.00  0.00    -0.299 N
HETATM   18  N6  UNL     1     -13.171   1.784 -10.533  1.00  0.00    -0.174 N
ATOM     19  H6  UNL     1     -12.383   1.157 -10.697  1.00  0.00     0.186 HD
BRANCH  10  20
HETATM   20  C6  UNL     1     -16.461   5.383  -9.177  1.00  0.00     0.109 C
HETATM   21  C7  UNL     1     -17.594   5.216  -8.132  1.00  0.00     0.053 C
HETATM   22  C8  UNL     1     -17.898   6.678  -7.872  1.00  0.00     0.169 C
HETATM   23  O1  UNL     1     -17.714   7.353  -9.045  1.00  0.00    -0.389 OA
HETATM   24  C9  UNL     1     -17.059   6.544  -9.944  1.00  0.00     0.192 C
ENDBRANCH  10  20
BRANCH  17  25
HETATM   25  C12 UNL     1     -10.614   2.758  -8.993  1.00  0.00     0.231 C
HETATM   26  C13 UNL     1      -9.714   3.454  -8.035  1.00  0.00     0.061 C
HETATM   27  C14 UNL     1      -8.340   3.774  -8.578  1.00  0.00     0.016 C
HETATM   28  C18 UNL     1      -8.332   4.296  -9.973  1.00  0.00     0.041 C
HETATM   29  C19 UNL     1      -9.557   3.854 -10.746  1.00  0.00     0.148 C
HETATM   30  O4  UNL     1     -10.098   2.688 -10.273  1.00  0.00    -0.359 OA
BRANCH  27  31
HETATM   31  C15 UNL     1      -7.430   2.547  -8.507  1.00  0.00     0.172 C
BRANCH  31  32
HETATM   32  O2  UNL     1      -6.545   2.656  -9.575  1.00  0.00    -0.391 OA
BRANCH  32  33
HETATM   33  C16 UNL     1      -6.140   1.415 -10.047  1.00  0.00     0.163 C
HETATM   34  C17 UNL     1      -7.304   0.597 -10.562  1.00  0.00     0.033 C
ENDBRANCH  32  33
ENDBRANCH  31  32
ENDBRANCH  27  31
BRANCH  29  35
HETATM   35  C20 UNL     1      -9.167   3.612 -12.203  1.00  0.00     0.196 C
BRANCH  35  36
HETATM   36  O3  UNL     1      -8.200   4.493 -12.632  1.00  0.00    -0.398 OA
ATOM     37  H3  UNL     1      -7.441   4.044 -12.987  1.00  0.00     0.209 HD
ENDBRANCH  35  36
ENDBRANCH  29  35
ENDBRANCH  17  25
ENDBRANCH   4   6
ENDBRANCH   3   4
TORSDOF 9
ENDMDL