MODEL 4
REMARK VINA RESULT: -6.863297382      0.804      1.230
REMARK  5 active torsions:
REMARK  status: ('A' for Active; 'I' for Inactive)
REMARK    1  A    between atoms: C2_2  and  O1_3
REMARK    2  A    between atoms: O1_3  and  C3_4
REMARK    3  A    between atoms: C4_5  and  N1_6
REMARK    4  A    between atoms: C11_15  and  O3_16
REMARK    5  A    between atoms: C13_18  and  N2_19
ROOT
HETATM    1  C3  UNL     1      26.875   6.272  11.838  1.00  0.00     0.127 A
HETATM    2  C4  UNL     1      27.278   6.097  10.510  1.00  0.00     0.105 A
HETATM    3  C9  UNL     1      26.469   5.284   9.730  1.00  0.00     0.148 A
HETATM    4  F1  UNL     1      26.740   5.046   8.431  1.00  0.00    -0.203 F
HETATM    5  C10 UNL     1      25.335   4.689  10.233  1.00  0.00     0.083 A
HETATM    6  C11 UNL     1      24.980   4.899  11.532  1.00  0.00     0.100 A
HETATM    7  C13 UNL     1      25.743   5.711  12.395  1.00  0.00     0.100 A
ENDROOT
BRANCH   7   8
HETATM    8  N2  UNL     1      25.230   6.008  13.664  1.00  0.00    -0.373 N
HETATM    9  C14 UNL     1      24.221   7.040  13.855  1.00  0.00     0.142 C
HETATM   10  C15 UNL     1      23.376   6.676  15.118  1.00  0.00     0.133 C
HETATM   11  N3  UNL     1      23.217   5.284  15.286  1.00  0.00    -0.418 N
HETATM   12  C16 UNL     1      24.447   4.528  15.353  1.00  0.00     0.133 C
ATOM     13  H3  UNL     1      22.300   4.843  15.355  1.00  0.00     0.153 HD
HETATM   14  C17 UNL     1      25.571   5.426  14.923  1.00  0.00     0.142 C
ENDBRANCH   7   8
BRANCH   1  15
HETATM   15  O1  UNL     1      27.714   7.070  12.664  1.00  0.00    -0.347 OA
BRANCH  15  16
HETATM   16  C2  UNL     1      27.215   8.435  12.783  1.00  0.00     0.171 C
HETATM   17  C1  UNL     1      27.423   8.974  14.174  1.00  0.00     0.034 C
ENDBRANCH  15  16
ENDBRANCH   1  15
BRANCH   6  18
HETATM   18  O3  UNL     1      23.856   4.303  12.000  1.00  0.00    -0.353 OA
HETATM   19  C12 UNL     1      23.058   3.474  11.183  1.00  0.00     0.210 C
ENDBRANCH   6  18
BRANCH   2  20
HETATM   20  N1  UNL     1      28.327   6.821   9.915  1.00  0.00    -0.372 N
HETATM   21  C5  UNL     1      29.765   6.594  10.149  1.00  0.00     0.149 C
HETATM   22  C6  UNL     1      30.411   7.987  10.011  1.00  0.00     0.187 C
HETATM   23  O2  UNL     1      29.546   8.996  10.443  1.00  0.00    -0.388 OA
HETATM   24  C7  UNL     1      28.510   9.174   9.510  1.00  0.00     0.187 C
HETATM   25  C8  UNL     1      28.109   7.870   8.914  1.00  0.00     0.149 C
ENDBRANCH   2  20
TORSDOF 5
ENDMDL