MODEL 4
REMARK VINA RESULT: -6.879495967      2.278      5.317
REMARK  7 active torsions:
REMARK  status: ('A' for Active; 'I' for Inactive)
REMARK    1  A    between atoms: C2_2  and  N1_3
REMARK    2  A    between atoms: C4_5  and  C5_6
REMARK    3  A    between atoms: C5_6  and  C6_7
REMARK    4  A    between atoms: C6_7  and  O1_8
REMARK    5  A    between atoms: C7_12  and  N3_13
REMARK    6  A    between atoms: C10_16  and  O2_17
REMARK    7  A    between atoms: C17_24  and  N4_25
ROOT
HETATM    1  N1  UNL     1      24.426   3.972  10.424  1.00  0.00    -0.339 N
HETATM    2  C3  UNL     1      23.938   4.043  11.703  1.00  0.00     0.117 A
HETATM    3  C4  UNL     1      24.529   4.840  12.628  1.00  0.00     0.028 A
HETATM    4  N2  UNL     1      25.587   5.547  12.264  1.00  0.00    -0.342 N
ATOM      5  H2  UNL     1      26.019   6.140  12.973  1.00  0.00     0.167 HD
HETATM    6  C7  UNL     1      26.136   5.548  11.050  1.00  0.00     0.149 A
HETATM    7  C17 UNL     1      25.504   4.707  10.087  1.00  0.00     0.151 A
ENDROOT
BRANCH   6   8
HETATM    8  N3  UNL     1      27.256   6.321  10.734  1.00  0.00    -0.351 N
HETATM    9  C8  UNL     1      28.565   5.962  10.168  1.00  0.00     0.089 C
HETATM   10  C9  UNL     1      28.656   6.920   9.014  1.00  0.00     0.059 C
HETATM   11  C16 UNL     1      29.452   6.474  11.298  1.00  0.00     0.036 C
HETATM   12  C10 UNL     1      27.780   8.076   9.427  1.00  0.00     0.146 C
HETATM   13  C12 UNL     1      27.486   7.777  10.872  1.00  0.00     0.123 C
HETATM   14  C13 UNL     1      28.744   7.763  11.705  1.00  0.00    -0.023 C
HETATM   15  C14 UNL     1      29.667   8.940  11.370  1.00  0.00     0.017 C
HETATM   16  C15 UNL     1      28.506   7.845  13.169  1.00  0.00     0.017 C
BRANCH  12  17
HETATM   17  O2  UNL     1      28.277   9.307   9.163  1.00  0.00    -0.389 OA
HETATM   18  C11 UNL     1      27.274  10.276   9.056  1.00  0.00     0.202 C
ENDBRANCH  12  17
ENDBRANCH   6   8
BRANCH   7  19
HETATM   19  N4  UNL     1      25.989   4.696   8.962  1.00  0.00    -0.359 N
HETATM   20  C18 UNL     1      26.497   3.999   7.905  1.00  0.00     0.120 C
ATOM     21  H4  UNL     1      26.033   5.676   8.681  1.00  0.00     0.166 HD
ENDBRANCH   7  19
BRANCH   3  22
HETATM   22  C5  UNL     1      24.029   4.944  14.027  1.00  0.00     0.084 C
BRANCH  22  23
HETATM   23  C6  UNL     1      25.117   5.400  14.973  1.00  0.00     0.170 C
BRANCH  23  24
HETATM   24  O1  UNL     1      26.122   4.466  15.122  1.00  0.00    -0.400 OA
ATOM     25  H1  UNL     1      26.112   3.802  14.443  1.00  0.00     0.209 HD
ENDBRANCH  23  24
ENDBRANCH  22  23
ENDBRANCH   3  22
BRANCH   1  26
HETATM   26  C2  UNL     1      23.705   3.091   9.559  1.00  0.00     0.126 C
HETATM   27  C1  UNL     1      24.255   1.666   9.668  1.00  0.00     0.027 C
ENDBRANCH   1  26
TORSDOF 7
ENDMDL