MODEL 3
REMARK VINA RESULT: -6.375586032      2.875      5.876
REMARK  7 active torsions:
REMARK  status: ('A' for Active; 'I' for Inactive)
REMARK    1  A    between atoms: C3_5  and  C4_6
REMARK    2  A    between atoms: C4_6  and  C5_7
REMARK    3  A    between atoms: C5_7  and  N2_9
REMARK    4  A    between atoms: N2_9  and  C7_11
REMARK    5  A    between atoms: C8_16  and  C9_17
REMARK    6  A    between atoms: C9_17  and  C10_18
REMARK    7  A    between atoms: C10_18  and  C11_19
ROOT
HETATM    1  N2  UNL     1      26.689   7.067  12.449  1.00  0.00    -0.365 N
ATOM      2  H2  UNL     1      27.515   7.271  13.013  1.00  0.00     0.162 HD
ENDROOT
BRANCH   1   3
HETATM    3  C5  UNL     1      25.364   7.410  12.925  1.00  0.00     0.086 C
HETATM    4  C6  UNL     1      25.019   8.834  12.559  1.00  0.00     0.032 C
BRANCH   3   5
HETATM    5  C4  UNL     1      25.352   7.184  14.416  1.00  0.00     0.103 C
BRANCH   5   6
HETATM    6  C3  UNL     1      24.456   6.004  14.659  1.00  0.00     0.105 A
HETATM    7  N1  UNL     1      23.410   5.930  15.514  1.00  0.00    -0.327 N
HETATM    8  C2  UNL     1      22.862   4.707  15.443  1.00  0.00     0.144 A
ATOM      9  H1  UNL     1      23.088   6.687  16.118  1.00  0.00     0.169 HD
HETATM   10  C1  UNL     1      21.698   4.173  16.195  1.00  0.00     0.100 C
HETATM   11  O1  UNL     1      23.569   4.050  14.556  1.00  0.00    -0.223 OA
HETATM   12  N5  UNL     1      24.520   4.793  14.076  1.00  0.00    -0.247 N
ATOM     13  H5  UNL     1      25.201   4.507  13.372  1.00  0.00     0.196 HD
ENDBRANCH   5   6
ENDBRANCH   3   5
ENDBRANCH   1   3
BRANCH   1  14
HETATM   14  C7  UNL     1      26.801   6.494  11.293  1.00  0.00     0.161 A
HETATM   15  N3  UNL     1      27.649   6.790  10.301  1.00  0.00    -0.279 N
HETATM   16  N4  UNL     1      27.603   6.105   9.231  1.00  0.00    -0.296 N
ATOM     17  H3  UNL     1      28.320   7.552  10.402  1.00  0.00     0.189 HD
HETATM   18  C8  UNL     1      26.749   5.126   9.088  1.00  0.00     0.069 A
ATOM     19  H4  UNL     1      28.245   6.324   8.470  1.00  0.00     0.187 HD
HETATM   20  S1  UNL     1      25.935   5.184  10.615  1.00  0.00    -0.038 SA
BRANCH  18  21
HETATM   21  C9  UNL     1      26.490   4.181   7.958  1.00  0.00     0.067 C
BRANCH  21  22
HETATM   22  C10 UNL     1      25.875   2.940   8.549  1.00  0.00     0.017 C
BRANCH  22  23
HETATM   23  C11 UNL     1      24.428   2.829   8.091  1.00  0.00     0.085 C
HETATM   24 BR1  UNL     1      23.308   2.169   9.520  1.00  0.00    -0.097 Br
ENDBRANCH  22  23
ENDBRANCH  21  22
ENDBRANCH  18  21
ENDBRANCH   1  14
TORSDOF 7
ENDMDL