MODEL 5
REMARK VINA RESULT: -6.691719209      2.961      5.017
REMARK  8 active torsions:
REMARK  status: ('A' for Active; 'I' for Inactive)
REMARK    1  A    between atoms: C2_2  and  N1_3
REMARK    2  A    between atoms: N2_6  and  C4_7
REMARK    3  A    between atoms: C8_13  and  N4_14
REMARK    4  A    between atoms: N4_14  and  C9_16
REMARK    5  A    between atoms: C9_16  and  C10_17
REMARK    6  A    between atoms: C10_17  and  N5_18
REMARK    7  A    between atoms: C13_23  and  C14_24
REMARK    8  A    between atoms: C15_25  and  C16_26
ROOT
HETATM    1  N1  UNL     1      24.725   4.467  11.878  1.00  0.00    -0.294 N
HETATM    2  C3  UNL     1      24.205   4.597  13.140  1.00  0.00     0.331 A
HETATM    3  O1  UNL     1      23.282   3.901  13.653  1.00  0.00    -0.246 OA
HETATM    4  N2  UNL     1      24.820   5.592  13.793  1.00  0.00    -0.279 N
HETATM    5  C7  UNL     1      25.738   6.115  12.966  1.00  0.00     0.157 A
HETATM    6  N3  UNL     1      26.596   7.120  13.157  1.00  0.00    -0.174 N
ATOM      7  H3  UNL     1      26.617   7.618  14.048  1.00  0.00     0.186 HD
HETATM    8  C8  UNL     1      27.429   7.467  12.168  1.00  0.00     0.680 A
HETATM    9  N6  UNL     1      27.376   6.793  11.011  1.00  0.00    -0.181 N
ATOM     10  H6  UNL     1      28.014   7.065  10.264  1.00  0.00     0.185 HD
HETATM   11  C13 UNL     1      26.510   5.759  10.779  1.00  0.00     0.133 A
HETATM   12  C17 UNL     1      25.676   5.413  11.778  1.00  0.00     0.120 A
ENDROOT
BRANCH   8  13
HETATM   13  N4  UNL     1      28.252   8.439  12.365  1.00  0.00    -0.224 N
ATOM     14  H4  UNL     1      28.359   9.171  11.663  1.00  0.00     0.177 HD
BRANCH  13  15
HETATM   15  C9  UNL     1      29.022   8.487  13.587  1.00  0.00     0.168 C
BRANCH  15  16
HETATM   16  C10 UNL     1      30.506   8.601  13.311  1.00  0.00     0.291 C
BRANCH  16  17
HETATM   17  N5  UNL     1      31.020   7.261  13.126  1.00  0.00     0.081 N
HETATM   18  C11 UNL     1      31.383   7.008  11.751  1.00  0.00     0.309 C
HETATM   19  C12 UNL     1      32.123   7.046  14.026  1.00  0.00     0.309 C
ENDBRANCH  16  17
ENDBRANCH  15  16
ENDBRANCH  13  15
ENDBRANCH   8  13
BRANCH  11  20
HETATM   20  C14 UNL     1      26.512   5.092   9.509  1.00  0.00    -0.043 C
HETATM   21  C15 UNL     1      26.511   4.482   8.444  1.00  0.00    -0.068 C
BRANCH  21  22
HETATM   22  C16 UNL     1      26.490   3.745   7.192  1.00  0.00     0.316 C
HETATM   23  F1  UNL     1      25.263   3.161   6.954  1.00  0.00    -0.242 F
ENDBRANCH  21  22
ENDBRANCH  11  20
BRANCH   4  24
HETATM   24  C4  UNL     1      24.559   6.044  15.149  1.00  0.00     0.088 C
HETATM   25  C5  UNL     1      23.117   6.462  15.297  1.00  0.00     0.032 C
HETATM   26  C6  UNL     1      24.880   4.859  16.061  1.00  0.00     0.032 C
ENDBRANCH   4  24
BRANCH   1  27
HETATM   27  C2  UNL     1      24.265   3.488  10.952  1.00  0.00     0.130 C
HETATM   28  C1  UNL     1      23.128   4.071  10.132  1.00  0.00     0.027 C
ENDBRANCH   1  27
TORSDOF 8
ENDMDL