MODEL 3
REMARK VINA RESULT: -5.777450224      1.631      1.718
REMARK  6 active torsions:
REMARK  status: ('A' for Active; 'I' for Inactive)
REMARK    1  A    between atoms: C4_5  and  O1_6
REMARK    2  A    between atoms: O1_6  and  C5_7
REMARK    3  A    between atoms: N2_10  and  C8_11
REMARK    4  A    between atoms: C8_11  and  C9_12
REMARK    5  A    between atoms: C13_19  and  C14_20
REMARK    6  A    between atoms: C14_20  and  O2_23
ROOT
HETATM    1  C5  UNL     1      27.216   5.313  10.355  1.00  0.00     0.152 C
HETATM    2  C6  UNL     1      27.268   5.631   8.894  1.00  0.00     0.064 C
HETATM    3  C7  UNL     1      28.480   6.518   8.733  1.00  0.00     0.275 C
HETATM    4  N2  UNL     1      29.223   6.511   9.944  1.00  0.00     0.097 N
HETATM    5  C12 UNL     1      28.591   5.606  10.877  1.00  0.00     0.304 C
ENDROOT
BRANCH   1   6
HETATM    6  O1  UNL     1      26.180   5.855  11.048  1.00  0.00    -0.376 OA
BRANCH   6   7
HETATM    7  C4  UNL     1      25.719   5.278  12.147  1.00  0.00     0.160 C
HETATM    8  C3  UNL     1      24.327   4.694  12.087  1.00  0.00     0.064 C
HETATM    9  C2  UNL     1      24.023   4.547  13.562  1.00  0.00     0.275 C
HETATM   10  N1  UNL     1      24.682   5.646  14.235  1.00  0.00     0.094 N
HETATM   11  C1  UNL     1      25.360   5.247  15.430  1.00  0.00     0.310 C
HETATM   12  C13 UNL     1      25.597   6.249  13.288  1.00  0.00     0.284 C
BRANCH  12  13
HETATM   13  C14 UNL     1      25.121   7.610  12.982  1.00  0.00     0.084 C
HETATM   14  C15 UNL     1      26.360   8.521  13.114  1.00  0.00     0.047 C
HETATM   15  C16 UNL     1      24.131   8.188  13.971  1.00  0.00     0.047 C
BRANCH  13  16
HETATM   16  O2  UNL     1      24.670   7.831  11.698  1.00  0.00    -0.388 OA
ATOM     17  H2  UNL     1      23.988   8.484  11.594  1.00  0.00     0.210 HD
ENDBRANCH  13  16
ENDBRANCH  12  13
ENDBRANCH   6   7
ENDBRANCH   1   6
BRANCH   4  18
HETATM   18  C8  UNL     1      29.453   7.801  10.528  1.00  0.00     0.337 C
BRANCH  18  19
HETATM   19  C9  UNL     1      30.383   7.615  11.699  1.00  0.00     0.079 A
HETATM   20  N3  UNL     1      31.606   7.136  11.728  1.00  0.00    -0.362 N
HETATM   21  C10 UNL     1      32.248   7.058  12.862  1.00  0.00     0.096 A
ATOM     22  H3  UNL     1      32.054   6.826  10.866  1.00  0.00     0.165 HD
HETATM   23  C11 UNL     1      31.600   7.490  13.986  1.00  0.00     0.068 A
HETATM   24  S1  UNL     1      30.092   7.987  13.342  1.00  0.00    -0.086 SA
ENDBRANCH  18  19
ENDBRANCH   4  18
TORSDOF 6
ENDMDL