MODEL 4
REMARK VINA RESULT: -6.287585812      1.127      2.190
REMARK  6 active torsions:
REMARK  status: ('A' for Active; 'I' for Inactive)
REMARK    1  A    between atoms: O1_1  and  C1_3
REMARK    2  A    between atoms: C2_5  and  C3_6
REMARK    3  A    between atoms: C4_10  and  C5_11
REMARK    4  A    between atoms: C5_11  and  C6_12
REMARK    5  A    between atoms: C6_12  and  C7_13
REMARK    6  A    between atoms: C7_13  and  N2_14
ROOT
HETATM    1  C5  UNL     1      26.509   7.170  12.488  1.00  0.00     0.067 C
ENDROOT
BRANCH   1   2
HETATM    2  C4  UNL     1      25.447   6.890  13.520  1.00  0.00     0.070 A
HETATM    3  C1  UNL     1      24.275   7.591  13.629  1.00  0.00     0.208 A
HETATM    4  O2  UNL     1      23.586   7.088  14.625  1.00  0.00    -0.272 OA
HETATM    5  C2  UNL     1      24.273   6.091  15.159  1.00  0.00     0.137 A
HETATM    6  N1  UNL     1      25.437   5.959  14.477  1.00  0.00    -0.339 N
ATOM      7  H1  UNL     1      26.169   5.274  14.661  1.00  0.00     0.167 HD
BRANCH   3   8
HETATM    8  O1  UNL     1      23.858   8.658  12.834  1.00  0.00    -0.339 OA
ATOM      9  H1  UNL     1      24.409   9.388  12.575  1.00  0.00     0.220 HD
ENDBRANCH   3   8
BRANCH   5  10
HETATM   10  C3  UNL     1      23.778   5.296  16.316  1.00  0.00     0.169 C
HETATM   11 BR1  UNL     1      22.072   4.501  15.918  1.00  0.00    -0.088 Br
ENDBRANCH   5  10
ENDBRANCH   1   2
BRANCH   1  12
HETATM   12  C6  UNL     1      26.154   6.506  11.181  1.00  0.00     0.050 C
BRANCH  12  13
HETATM   13  C7  UNL     1      26.402   5.046  11.127  1.00  0.00     0.059 C
BRANCH  13  14
HETATM   14  N2  UNL     1      25.373   4.182  10.748  1.00  0.00    -0.382 N
HETATM   15  C8  UNL     1      24.149   4.166  11.439  1.00  0.00     0.149 C
HETATM   16  C9  UNL     1      23.019   4.196  10.405  1.00  0.00     0.191 C
HETATM   17  O3  UNL     1      23.183   3.277   9.406  1.00  0.00    -0.358 OA
HETATM   18  C10 UNL     1      24.276   2.455   9.523  1.00  0.00     0.282 C
HETATM   19  O4  UNL     1      24.528   1.886   8.270  1.00  0.00    -0.359 OA
HETATM   20  C13 UNL     1      25.584   3.243   9.719  1.00  0.00     0.140 C
HETATM   21  C11 UNL     1      24.981   2.930   7.465  1.00  0.00     0.173 C
HETATM   22  C12 UNL     1      25.632   3.953   8.372  1.00  0.00     0.056 C
ENDBRANCH  13  14
ENDBRANCH  12  13
ENDBRANCH   1  12
TORSDOF 6
ENDMDL