MODEL 2
REMARK VINA RESULT: -6.948300976      2.982      7.116
REMARK  6 active torsions:
REMARK  status: ('A' for Active; 'I' for Inactive)
REMARK    1  A    between atoms: N3_8  and  C5_10
REMARK    2  A    between atoms: C5_10  and  C6_11
REMARK    3  A    between atoms: C6_11  and  O1_12
REMARK    4  A    between atoms: O1_12  and  C7_13
REMARK    5  A    between atoms: C10_19  and  C11_20
REMARK    6  A    between atoms: C11_20  and  N5_21
ROOT
HETATM    1  C1  UNL     1      24.070  11.507  13.542  1.00  0.00     0.229 C
HETATM    2  N1  UNL     1      24.644  10.671  12.946  1.00  0.00    -0.426 NA
HETATM    3  C2  UNL     1      25.361   9.700  12.264  1.00  0.00     0.149 A
HETATM    4  C3  UNL     1      26.248  10.022  11.285  1.00  0.00     0.153 A
HETATM    5  N2  UNL     1      26.879   9.082  10.566  1.00  0.00    -0.198 N
ATOM      6  H2  UNL     1      27.525   9.371   9.831  1.00  0.00     0.183 HD
HETATM    7  C4  UNL     1      26.681   7.737  10.789  1.00  0.00     0.682 A
HETATM    8  N3  UNL     1      27.372   6.925  10.176  1.00  0.00    -0.203 N
ATOM      9  H3  UNL     1      28.014   7.437   9.571  1.00  0.00     0.183 HD
HETATM   10  N4  UNL     1      25.791   7.423  11.775  1.00  0.00    -0.187 N
ATOM     11  H4  UNL     1      25.613   6.437  11.967  1.00  0.00     0.184 HD
HETATM   12  C10 UNL     1      25.141   8.336  12.500  1.00  0.00     0.101 A
ENDROOT
BRANCH  12  13
HETATM   13  C11 UNL     1      24.342   8.029  13.692  1.00  0.00     0.093 C
BRANCH  13  14
HETATM   14  N5  UNL     1      24.447   6.806  14.313  1.00  0.00    -0.286 NA
HETATM   15  C12 UNL     1      23.428   6.802  15.380  1.00  0.00     0.121 C
HETATM   16  C13 UNL     1      23.132   5.368  15.669  1.00  0.00     0.182 C
HETATM   17  O2  UNL     1      24.267   4.715  16.171  1.00  0.00    -0.389 OA
HETATM   18  C14 UNL     1      25.272   4.802  15.236  1.00  0.00     0.182 C
HETATM   19  C15 UNL     1      25.616   6.287  14.885  1.00  0.00     0.121 C
ENDBRANCH  13  14
ENDBRANCH  12  13
BRANCH   8  20
HETATM   20  C5  UNL     1      27.593   5.563  10.010  1.00  0.00     0.105 C
BRANCH  20  21
HETATM   21  C6  UNL     1      26.563   4.837   9.137  1.00  0.00     0.215 C
BRANCH  21  22
HETATM   22  O1  UNL     1      25.884   3.891   9.889  1.00  0.00    -0.361 OA
BRANCH  22  23
HETATM   23  C7  UNL     1      24.839   3.242   9.340  1.00  0.00     0.130 C
HETATM   24  C8  UNL     1      25.024   3.276   7.815  1.00  0.00     0.064 C
HETATM   25  C9  UNL     1      23.451   3.674   9.654  1.00  0.00     0.064 C
HETATM   26 CL1  UNL     1      24.908   1.470   9.711  1.00  0.00    -0.089 Cl
ENDBRANCH  22  23
ENDBRANCH  21  22
ENDBRANCH  20  21
ENDBRANCH   8  20
TORSDOF 6
ENDMDL