MODEL 1
REMARK VINA RESULT: -7.405806766      0.000      0.000
REMARK  5 active torsions:
REMARK  status: ('A' for Active; 'I' for Inactive)
REMARK    1  A    between atoms: C5_7  and  C6_8
REMARK    2  A    between atoms: C6_8  and  N1_9
REMARK    3  A    between atoms: N1_9  and  C7_12
REMARK    4  A    between atoms: C7_12  and  C8_13
REMARK    5  A    between atoms: C9_17  and  C10_18
ROOT
HETATM    1  N1  UNL     1      24.451   5.994  12.952  1.00  0.00    -0.068 N
ATOM      2  H11 UNL     1      24.761   6.238  12.012  1.00  0.00     0.277 HD
ATOM      3  H12 UNL     1      23.696   6.673  13.051  1.00  0.00     0.277 HD
ENDROOT
BRANCH   1   4
HETATM    4  C6  UNL     1      25.500   6.217  13.936  1.00  0.00     0.242 C
BRANCH   4   5
HETATM    5  C5  UNL     1      26.232   7.446  13.406  1.00  0.00     0.067 C
HETATM    6  C4  UNL     1      27.111   7.229  12.243  1.00  0.00     0.229 C
HETATM    7  O1  UNL     1      27.105   6.015  11.614  1.00  0.00    -0.363 OA
HETATM    8  N4  UNL     1      26.829   8.251  11.257  1.00  0.00    -0.345 N
HETATM    9  C3  UNL     1      28.367   5.975  10.954  1.00  0.00     0.215 C
HETATM   10  C2  UNL     1      28.426   6.988   9.853  1.00  0.00     0.137 C
HETATM   11  C1  UNL     1      28.234   6.248   8.513  1.00  0.00     0.055 C
HETATM   12  F1  UNL     1      29.713   7.493   9.819  1.00  0.00    -0.239 F
HETATM   13  C15 UNL     1      27.465   8.132   9.968  1.00  0.00     0.171 C
HETATM   14  C14 UNL     1      25.958   9.167  11.855  1.00  0.00     0.078 C
HETATM   15  C13 UNL     1      25.150   8.407  12.855  1.00  0.00     0.080 C
HETATM   16  S1  UNL     1      25.850  10.770  11.539  1.00  0.00    -0.065 SA
ENDBRANCH   4   5
ENDBRANCH   1   4
BRANCH   1  17
HETATM   17  C7  UNL     1      23.951   4.624  13.011  1.00  0.00     0.310 C
BRANCH  17  18
HETATM   18  C8  UNL     1      23.854   4.075  11.641  1.00  0.00     0.129 A
HETATM   19  N2  UNL     1      22.720   3.801  10.988  1.00  0.00    -0.245 N
HETATM   20  O2  UNL     1      23.017   3.246   9.834  1.00  0.00    -0.222 OA
ATOM     21  H2  UNL     1      21.778   3.992  11.329  1.00  0.00     0.196 HD
HETATM   22  C9  UNL     1      24.337   3.167   9.746  1.00  0.00     0.152 A
HETATM   23  N3  UNL     1      24.873   3.684  10.872  1.00  0.00    -0.325 N
ATOM     24  H3  UNL     1      25.866   3.762  11.092  1.00  0.00     0.169 HD
BRANCH  22  25
HETATM   25  C10 UNL     1      25.063   2.601   8.594  1.00  0.00     0.063 A
HETATM   26  C11 UNL     1      24.550   2.819   7.213  1.00  0.00     0.013 A
HETATM   27  C12 UNL     1      25.715   3.617   7.670  1.00  0.00     0.013 A
ENDBRANCH  22  25
ENDBRANCH  17  18
ENDBRANCH   1  17
TORSDOF 5
ENDMDL