MODEL 4
REMARK VINA RESULT: -7.446796035      1.615      2.876
REMARK  5 active torsions:
REMARK  status: ('A' for Active; 'I' for Inactive)
REMARK    1  A    between atoms: C3_5  and  C4_6
REMARK    2  A    between atoms: N2_7  and  C5_9
REMARK    3  A    between atoms: C5_9  and  C6_10
REMARK    4  A    between atoms: C12_18  and  C13_19
REMARK    5  A    between atoms: C16_23  and  O2_24
ROOT
HETATM    1  C1  UNL     1      30.299   6.648  10.670  1.00  0.00     0.098 C
HETATM    2  C2  UNL     1      28.833   6.354  10.958  1.00  0.00     0.121 A
HETATM    3  N1  UNL     1      27.971   7.303  11.319  1.00  0.00    -0.337 N
ATOM      4  H1  UNL     1      28.203   8.290  11.426  1.00  0.00     0.168 HD
HETATM    5  C3  UNL     1      26.787   6.791  11.516  1.00  0.00     0.084 A
HETATM    6  C12 UNL     1      26.954   5.379  11.239  1.00  0.00     0.120 A
HETATM    7  O3  UNL     1      28.186   5.235  10.926  1.00  0.00    -0.294 OA
ENDROOT
BRANCH   5   8
HETATM    8  C4  UNL     1      25.398   7.270  11.589  1.00  0.00     0.116 C
HETATM    9  N2  UNL     1      24.756   7.560  12.613  1.00  0.00    -0.391 N
ATOM     10  H2  UNL     1      23.793   7.864  12.468  1.00  0.00     0.159 HD
BRANCH   9  11
HETATM   11  C5  UNL     1      25.192   7.519  13.932  1.00  0.00     0.193 C
BRANCH  11  12
HETATM   12  C6  UNL     1      24.692   8.762  14.678  1.00  0.00     0.221 C
HETATM   13  F1  UNL     1      23.662   8.369  15.495  1.00  0.00    -0.210 F
HETATM   14  C7  UNL     1      24.130   9.766  13.702  1.00  0.00     0.079 C
HETATM   15  C8  UNL     1      24.765  11.104  13.778  1.00  0.00    -0.011 C
HETATM   16  C9  UNL     1      23.647  12.129  13.534  1.00  0.00     0.010 C
HETATM   17  C10 UNL     1      25.401  11.448  15.089  1.00  0.00     0.031 C
HETATM   18  C11 UNL     1      25.321  10.361  16.132  1.00  0.00     0.172 C
HETATM   19  O1  UNL     1      25.735   9.204  15.442  1.00  0.00    -0.350 OA
ENDBRANCH  11  12
ENDBRANCH   9  11
ENDBRANCH   5   8
BRANCH   6  20
HETATM   20  C13 UNL     1      25.807   4.490  11.373  1.00  0.00     0.125 C
HETATM   21  N3  UNL     1      25.204   4.115  10.216  1.00  0.00    -0.385 N
HETATM   22  C14 UNL     1      25.726   3.485   9.118  1.00  0.00     0.125 C
HETATM   23  C17 UNL     1      23.789   3.797  10.353  1.00  0.00     0.153 C
HETATM   24  C15 UNL     1      24.768   2.347   8.750  1.00  0.00     0.053 C
HETATM   25  C16 UNL     1      23.665   2.397   9.803  1.00  0.00     0.137 C
BRANCH  25  26
HETATM   26  O2  UNL     1      22.450   2.259   9.170  1.00  0.00    -0.394 OA
ATOM     27  H2  UNL     1      21.765   2.261   9.828  1.00  0.00     0.210 HD
ENDBRANCH  25  26
ENDBRANCH   6  20
TORSDOF 5
ENDMDL