MODEL 2
REMARK VINA RESULT: -7.761192496      5.285      6.656
REMARK  5 active torsions:
REMARK  status: ('A' for Active; 'I' for Inactive)
REMARK    1  A    between atoms: N1_2  and  C2_5
REMARK    2  A    between atoms: C2_5  and  C3_6
REMARK    3  A    between atoms: N5_12  and  C4_13
REMARK       I    between atoms: N6_16  and  C7_17
REMARK    4  A    between atoms: C7_17  and  C8_19
REMARK    5  A    between atoms: C8_19  and  C9_20
ROOT
HETATM    1  C4  UNL     1      30.841   7.944  12.122  1.00  0.00     0.111 C
HETATM    2  C5  UNL     1      29.784   7.597  13.101  1.00  0.00     0.047 C
HETATM    3  C6  UNL     1      28.413   7.601  12.477  1.00  0.00     0.128 C
HETATM    4  N6  UNL     1      28.293   6.980  11.181  1.00  0.00    -0.352 N
HETATM    5  C7  UNL     1      27.338   5.976  10.926  1.00  0.00     0.220 C
HETATM    6  O1  UNL     1      26.775   5.489  11.985  1.00  0.00    -0.273 OA
HETATM    7  C16 UNL     1      29.267   7.455  10.215  1.00  0.00     0.128 C
HETATM    8  C17 UNL     1      30.604   7.161  10.851  1.00  0.00     0.047 C
ENDROOT
BRANCH   1   9
HETATM    9  N5  UNL     1      32.163   7.800  12.539  1.00  0.00    -0.255 N
HETATM   10  C3  UNL     1      33.257   8.464  12.183  1.00  0.00     0.138 A
HETATM   11  N2  UNL     1      34.271   7.853  12.906  1.00  0.00    -0.274 N
HETATM   12  N3  UNL     1      33.810   6.897  13.640  1.00  0.00    -0.225 N
ATOM     13  H2  UNL     1      35.253   8.125  12.864  1.00  0.00     0.189 HD
HETATM   14  N4  UNL     1      32.510   6.869  13.410  1.00  0.00    -0.003 NA
ATOM     15  H3  UNL     1      34.339   6.290  14.267  1.00  0.00     0.205 HD
BRANCH  10  16
HETATM   16  C2  UNL     1      33.509   9.565  11.289  1.00  0.00     0.310 C
BRANCH  16  17
HETATM   17  N1  UNL     1      34.884   9.565  10.794  1.00  0.00    -0.072 N
HETATM   18  C1  UNL     1      35.464  10.866  10.905  1.00  0.00     0.267 C
ATOM     19  H12 UNL     1      34.942   9.207   9.840  1.00  0.00     0.277 HD
ATOM     20  H11 UNL     1      35.453   8.858  11.259  1.00  0.00     0.277 HD
ENDBRANCH  16  17
ENDBRANCH  10  16
ENDBRANCH   1   9
BRANCH   5  21
HETATM   21  C8  UNL     1      26.927   5.461   9.627  1.00  0.00     0.108 C
BRANCH  21  22
HETATM   22  C9  UNL     1      25.961   4.308   9.775  1.00  0.00    -0.002 C
HETATM   23  C10 UNL     1      24.623   4.847  10.323  1.00  0.00     0.005 C
HETATM   24  C11 UNL     1      23.826   3.575  10.675  1.00  0.00     0.000 C
HETATM   25  C12 UNL     1      23.442   2.876   9.387  1.00  0.00     0.000 C
HETATM   26  C13 UNL     1      24.666   2.597   8.527  1.00  0.00     0.004 C
HETATM   27  C14 UNL     1      25.541   3.794   8.409  1.00  0.00    -0.014 C
HETATM   28  C15 UNL     1      26.635   3.585   7.436  1.00  0.00     0.010 C
ENDBRANCH  21  22
ENDBRANCH   5  21
TORSDOF 5
ENDMDL