MODEL 5
REMARK VINA RESULT: -6.506461441      9.196     11.502
REMARK  5 active torsions:
REMARK  status: ('A' for Active; 'I' for Inactive)
REMARK    1  A    between atoms: C5_9  and  C6_10
REMARK    2  A    between atoms: C6_10  and  N3_11
REMARK    3  A    between atoms: N3_11  and  C7_13
REMARK    4  A    between atoms: C7_13  and  C8_14
REMARK    5  A    between atoms: C8_14  and  N4_15
ROOT
HETATM    1  C8  UNL     1      14.436  21.046  32.131  1.00  0.00     0.175 C
HETATM    2  C13 UNL     1      13.454  21.507  33.275  1.00  0.00     0.043 C
HETATM    3  C14 UNL     1      12.594  22.476  32.494  1.00  0.00     0.003 C
HETATM    4  C15 UNL     1      12.628  22.011  31.040  1.00  0.00     0.003 C
HETATM    5  C16 UNL     1      13.430  20.694  31.112  1.00  0.00     0.043 C
ENDROOT
BRANCH   1   6
HETATM    6  C7  UNL     1      15.262  22.261  31.883  1.00  0.00     0.161 C
BRANCH   6   7
HETATM    7  N3  UNL     1      16.060  22.774  32.928  1.00  0.00    -0.395 N
ATOM      8  H3  UNL     1      16.585  22.135  33.524  1.00  0.00     0.159 HD
BRANCH   7   9
HETATM    9  C6  UNL     1      16.135  24.159  33.153  1.00  0.00     0.098 C
BRANCH   9  10
HETATM   10  C5  UNL     1      16.619  24.547  34.505  1.00  0.00     0.026 A
HETATM   11  C2  UNL     1      17.898  25.090  34.659  1.00  0.00     0.035 A
HETATM   12  C1  UNL     1      18.909  25.348  33.599  1.00  0.00     0.070 C
HETATM   13  N1  UNL     1      18.029  25.336  35.975  1.00  0.00    -0.304 N
HETATM   14  N2  UNL     1      16.946  24.991  36.636  1.00  0.00    -0.304 N
ATOM     15  H1  UNL     1      18.862  25.738  36.405  1.00  0.00     0.186 HD
HETATM   16  C3  UNL     1      16.065  24.501  35.738  1.00  0.00     0.035 A
ATOM     17  H2  UNL     1      16.799  25.078  37.642  1.00  0.00     0.186 HD
HETATM   18  C4  UNL     1      14.702  23.999  36.046  1.00  0.00     0.070 C
ENDBRANCH   9  10
ENDBRANCH   7   9
ENDBRANCH   6   7
ENDBRANCH   1   6
BRANCH   1  19
HETATM   19  N4  UNL     1      15.235  19.968  32.656  1.00  0.00     0.103 N
HETATM   20  C9  UNL     1      14.966  18.757  31.912  1.00  0.00     0.301 C
HETATM   21  C10 UNL     1      15.727  17.568  32.396  1.00  0.00     0.262 C
HETATM   22  N5  UNL     1      15.771  17.432  33.828  1.00  0.00    -0.072 N
HETATM   23  C11 UNL     1      15.818  18.661  34.541  1.00  0.00     0.262 C
ATOM     24  H52 UNL     1      14.989  16.864  34.154  1.00  0.00     0.277 HD
ATOM     25  H51 UNL     1      16.550  16.835  34.102  1.00  0.00     0.277 HD
HETATM   26  C12 UNL     1      14.847  19.709  34.018  1.00  0.00     0.301 C
ENDBRANCH   1  19
TORSDOF 5
ENDMDL