MODEL 4
REMARK VINA RESULT: -6.339439436      7.487      9.952
REMARK  6 active torsions:
REMARK  status: ('A' for Active; 'I' for Inactive)
REMARK    1  A    between atoms: C2_2  and  C3_3
REMARK    2  A    between atoms: C3_3  and  C4_4
REMARK    3  A    between atoms: C4_4  and  C5_5
REMARK    4  A    between atoms: C5_5  and  C6_6
REMARK    5  A    between atoms: C7_9  and  O1_10
REMARK    6  A    between atoms: C10_14  and  O2_15
ROOT
HETATM    1  C6  UNL     1      14.593  20.920  33.684  1.00  0.00     0.136 C
HETATM    2  N1  UNL     1      13.639  21.881  33.253  1.00  0.00    -0.361 N
ATOM      3  H1  UNL     1      14.024  22.565  32.601  1.00  0.00     0.162 HD
HETATM    4  C7  UNL     1      12.296  22.087  33.530  1.00  0.00     0.132 C
HETATM    5  C8  UNL     1      11.472  22.264  34.693  1.00  0.00     0.033 C
HETATM    6  C9  UNL     1      11.978  22.496  36.043  1.00  0.00     0.085 C
HETATM    7  C10 UNL     1      12.765  23.716  36.308  1.00  0.00     0.223 C
HETATM    8  N2  UNL     1      13.776  24.096  35.435  1.00  0.00    -0.371 N
ATOM      9  H2  UNL     1      13.583  24.866  34.793  1.00  0.00     0.161 HD
HETATM   10  C12 UNL     1      15.020  23.507  35.373  1.00  0.00     0.117 C
HETATM   11  C13 UNL     1      15.165  22.107  35.827  1.00  0.00     0.073 A
HETATM   12  N3  UNL     1      15.513  21.713  37.070  1.00  0.00    -0.350 N
ATOM     13  H3  UNL     1      15.716  22.343  37.845  1.00  0.00     0.166 HD
HETATM   14  C14 UNL     1      15.552  20.406  37.139  1.00  0.00     0.181 A
HETATM   15  N4  UNL     1      15.228  19.935  35.931  1.00  0.00    -0.352 N
ATOM     16  H4  UNL     1      15.173  18.950  35.671  1.00  0.00     0.166 HD
HETATM   17  C15 UNL     1      14.988  20.979  35.115  1.00  0.00     0.061 A
ENDROOT
BRANCH   1  18
HETATM   18  C5  UNL     1      14.312  19.506  33.227  1.00  0.00     0.031 C
BRANCH  18  19
HETATM   19  C4  UNL     1      14.942  19.101  31.950  1.00  0.00     0.002 C
BRANCH  19  20
HETATM   20  C3  UNL     1      15.621  17.764  32.117  1.00  0.00    -0.000 C
BRANCH  20  21
HETATM   21  C2  UNL     1      15.749  17.318  33.531  1.00  0.00    -0.005 C
HETATM   22  C1  UNL     1      17.236  17.346  33.907  1.00  0.00     0.005 C
ENDBRANCH  20  21
ENDBRANCH  19  20
ENDBRANCH  18  19
ENDBRANCH   1  18
BRANCH   4  23
HETATM   23  O1  UNL     1      11.560  22.138  32.447  1.00  0.00    -0.347 OA
ATOM     24  H1  UNL     1      12.016  21.815  31.680  1.00  0.00     0.219 HD
ENDBRANCH   4  23
BRANCH   7  25
HETATM   25  O2  UNL     1      13.245  23.657  37.615  1.00  0.00    -0.371 OA
HETATM   26  C11 UNL     1      13.037  24.845  38.314  1.00  0.00     0.204 C
ENDBRANCH   7  25
TORSDOF 6
ENDMDL