MODEL 5
REMARK VINA RESULT: -6.714704240      1.895      6.386
REMARK  6 active torsions:
REMARK  status: ('A' for Active; 'I' for Inactive)
REMARK    1  A    between atoms: C3_3  and  C4_4
REMARK    2  A    between atoms: C3_3  and  N1_6
REMARK       I    between atoms: N1_6  and  C6_8
REMARK    3  A    between atoms: C6_8  and  C7_10
REMARK    4  A    between atoms: C7_10  and  N2_11
REMARK    5  A    between atoms: N2_11  and  C8_13
REMARK    6  A    between atoms: C8_13  and  C10_18
ROOT
HETATM    1  C8  UNL     1      11.472  22.987  34.398  1.00  0.00     0.118 C
HETATM    2  N3  UNL     1      12.360  22.814  35.269  1.00  0.00    -0.281 N
ATOM      3  H3  UNL     1      13.035  22.091  35.023  1.00  0.00     0.179 HD
HETATM    4  C9  UNL     1      12.603  23.396  36.474  1.00  0.00     0.183 C
HETATM    5  N4  UNL     1      12.830  23.880  37.488  1.00  0.00    -0.172 NA
ENDROOT
BRANCH   1   6
HETATM    6  N2  UNL     1      11.528  22.175  33.217  1.00  0.00    -0.360 N
ATOM      7  H2  UNL     1      10.791  21.484  33.077  1.00  0.00     0.162 HD
BRANCH   6   8
HETATM    8  C7  UNL     1      12.546  22.273  32.229  1.00  0.00     0.113 C
HETATM    9  C14 UNL     1      13.134  23.665  32.048  1.00  0.00     0.041 C
HETATM   10  C15 UNL     1      12.345  23.747  30.746  1.00  0.00     0.006 C
HETATM   11  C16 UNL     1      12.097  22.254  30.788  1.00  0.00     0.041 C
BRANCH   8  12
HETATM   12  C6  UNL     1      13.649  21.302  32.414  1.00  0.00     0.250 C
HETATM   13  N1  UNL     1      13.566  20.320  33.417  1.00  0.00    -0.329 N
ATOM     14  H1  UNL     1      12.735  20.292  34.008  1.00  0.00     0.168 HD
HETATM   15  O1  UNL     1      14.647  21.369  31.673  1.00  0.00    -0.270 OA
BRANCH  13  16
HETATM   16  C3  UNL     1      14.601  19.355  33.643  1.00  0.00     0.007 C
HETATM   17  C2  UNL     1      14.509  18.143  33.142  1.00  0.00    -0.006 C
HETATM   18  C1  UNL     1      15.580  17.156  33.378  1.00  0.00     0.038 C
BRANCH  16  19
HETATM   19  C4  UNL     1      15.765  19.746  34.440  1.00  0.00     0.052 C
HETATM   20  C5  UNL     1      15.295  20.702  35.523  1.00  0.00     0.011 C
ENDBRANCH  16  19
ENDBRANCH  13  16
ENDBRANCH   8  12
ENDBRANCH   6   8
ENDBRANCH   1   6
BRANCH   1  21
HETATM   21  C10 UNL     1      10.400  23.968  34.525  1.00  0.00     0.253 C
HETATM   22  C11 UNL     1       9.019  23.394  34.722  1.00  0.00     0.042 C
HETATM   23  C12 UNL     1       8.143  24.602  34.375  1.00  0.00     0.030 C
HETATM   24  C13 UNL     1       9.123  25.705  33.955  1.00  0.00     0.233 C
HETATM   25  N5  UNL     1      10.247  24.893  33.447  1.00  0.00    -0.064 N
ATOM     26  H52 UNL     1      11.085  25.411  33.185  1.00  0.00     0.278 HD
ATOM     27  H51 UNL     1      10.113  24.479  32.524  1.00  0.00     0.278 HD
ENDBRANCH   1  21
TORSDOF 6
ENDMDL