MODEL 3
REMARK VINA RESULT: -6.867191205      2.177      7.015
REMARK  7 active torsions:
REMARK  status: ('A' for Active; 'I' for Inactive)
REMARK    1  A    between atoms: N1_2  and  C3_4
REMARK    2  A    between atoms: C3_4  and  C4_5
REMARK    3  A    between atoms: C4_5  and  C5_6
REMARK    4  A    between atoms: C5_6  and  C6_7
REMARK    5  A    between atoms: C7_10  and  N3_11
REMARK    6  A    between atoms: C8_16  and  N5_17
REMARK    7  A    between atoms: N5_17  and  C9_19
ROOT
HETATM    1  C6  UNL     1      13.062  23.046  36.559  1.00  0.00     0.113 A
HETATM    2  N2  UNL     1      14.016  23.993  36.566  1.00  0.00    -0.180 N
ATOM      3  H2  UNL     1      13.730  24.960  36.723  1.00  0.00     0.185 HD
HETATM    4  C7  UNL     1      15.311  23.747  36.381  1.00  0.00     0.691 A
HETATM    5  N4  UNL     1      15.699  22.467  36.174  1.00  0.00    -0.023 N
ATOM      6  H4  UNL     1      16.685  22.252  36.030  1.00  0.00     0.203 HD
HETATM    7  C8  UNL     1      14.776  21.466  36.157  1.00  0.00     0.694 A
HETATM    8  N6  UNL     1      13.462  21.781  36.352  1.00  0.00    -0.180 N
ATOM      9  H6  UNL     1      12.767  21.036  36.340  1.00  0.00     0.185 HD
ENDROOT
BRANCH   7  10
HETATM   10  N5  UNL     1      15.103  20.234  35.963  1.00  0.00    -0.221 N
ATOM     11  H5  UNL     1      15.144  19.604  36.764  1.00  0.00     0.178 HD
BRANCH  10  12
HETATM   12  C9  UNL     1      15.411  19.719  34.666  1.00  0.00     0.099 C
HETATM   13  C10 UNL     1      14.283  19.995  33.665  1.00  0.00     0.026 C
HETATM   14  C11 UNL     1      14.840  20.314  32.302  1.00  0.00     0.002 C
HETATM   15  C12 UNL     1      15.127  19.104  31.479  1.00  0.00     0.000 C
HETATM   16  C13 UNL     1      15.207  17.833  32.288  1.00  0.00     0.000 C
HETATM   17  C14 UNL     1      16.304  17.893  33.329  1.00  0.00     0.002 C
HETATM   18  C15 UNL     1      15.640  18.230  34.647  1.00  0.00     0.026 C
ENDBRANCH  10  12
ENDBRANCH   7  10
BRANCH   4  19
HETATM   19  N3  UNL     1      16.206  24.675  36.392  1.00  0.00    -0.234 N
ATOM     20  H32 UNL     1      16.276  25.282  37.208  1.00  0.00     0.174 HD
ATOM     21  H31 UNL     1      16.849  24.831  35.616  1.00  0.00     0.174 HD
ENDBRANCH   4  19
BRANCH   1  22
HETATM   22  C5  UNL     1      11.659  23.391  36.770  1.00  0.00     0.079 C
BRANCH  22  23
HETATM   23  C4  UNL     1      10.706  22.888  35.710  1.00  0.00     0.027 C
BRANCH  23  24
HETATM   24  C3  UNL     1      10.489  23.929  34.697  1.00  0.00     0.116 C
BRANCH  24  25
HETATM   25  N1  UNL     1      11.340  23.939  33.569  1.00  0.00    -0.421 N
HETATM   26  C1  UNL     1      11.171  25.041  32.683  1.00  0.00     0.142 C
HETATM   27  C2  UNL     1      11.748  22.725  33.009  1.00  0.00     0.142 C
ENDBRANCH  24  25
ENDBRANCH  23  24
ENDBRANCH  22  23
ENDBRANCH   1  22
TORSDOF 7
ENDMDL