MODEL 2
REMARK VINA RESULT: -6.505872272      0.550      1.183
REMARK  7 active torsions:
REMARK  status: ('A' for Active; 'I' for Inactive)
REMARK    1  A    between atoms: C2_2  and  N1_5
REMARK    2  A    between atoms: N1_5  and  C5_7
REMARK    3  A    between atoms: C5_7  and  C6_8
REMARK    4  A    between atoms: C5_7  and  C7_11
REMARK    5  A    between atoms: C6_8  and  O1_9
REMARK    6  A    between atoms: C10_15  and  N3_16
REMARK    7  A    between atoms: N3_16  and  C11_19
ROOT
HETATM    1  C7  UNL     1       9.309  22.550  34.732  1.00  0.00     0.085 C
HETATM    2  N2  UNL     1       8.571  23.611  35.142  1.00  0.00    -0.391 N
HETATM    3  C8  UNL     1       8.566  24.937  34.787  1.00  0.00     0.124 C
HETATM    4  C9  UNL     1       7.229  25.653  35.022  1.00  0.00     0.052 C
HETATM    5  C10 UNL     1       6.561  25.199  36.300  1.00  0.00     0.189 C
HETATM    6  C16 UNL     1       6.503  23.670  36.366  1.00  0.00     0.052 C
HETATM    7  C17 UNL     1       7.115  23.172  35.082  1.00  0.00     0.124 C
ENDROOT
BRANCH   1   8
HETATM    8  C5  UNL     1      10.762  22.316  34.919  1.00  0.00     0.139 C
BRANCH   8   9
HETATM    9  N1  UNL     1      11.536  22.916  33.887  1.00  0.00    -0.403 N
ATOM     10  H1  UNL     1      11.122  23.784  33.547  1.00  0.00     0.154 HD
BRANCH   9  11
HETATM   11  C2  UNL     1      12.668  22.618  33.256  1.00  0.00     0.015 C
HETATM   12  C1  UNL     1      12.310  22.387  31.754  1.00  0.00     0.037 C
HETATM   13  C3  UNL     1      13.613  21.535  33.567  1.00  0.00     0.037 C
HETATM   14  C4  UNL     1      13.537  23.916  33.213  1.00  0.00     0.037 C
ENDBRANCH   9  11
ENDBRANCH   8   9
BRANCH   8  15
HETATM   15  C6  UNL     1      11.354  22.777  36.253  1.00  0.00     0.194 C
BRANCH  15  16
HETATM   16  O1  UNL     1      10.725  22.379  37.384  1.00  0.00    -0.398 OA
ATOM     17  H1  UNL     1      10.690  22.998  38.104  1.00  0.00     0.209 HD
ENDBRANCH  15  16
ENDBRANCH   8  15
ENDBRANCH   1   8
BRANCH   5  18
HETATM   18  N3  UNL     1       5.221  25.684  36.376  1.00  0.00    -0.067 N
ATOM     19  H32 UNL     1       4.813  25.754  35.444  1.00  0.00     0.278 HD
ATOM     20  H31 UNL     1       4.607  24.978  36.781  1.00  0.00     0.278 HD
BRANCH  18  21
HETATM   21  C11 UNL     1       5.087  26.935  37.082  1.00  0.00     0.186 C
HETATM   22  C12 UNL     1       3.668  27.007  37.596  1.00  0.00     0.033 C
HETATM   23  C13 UNL     1       3.691  26.547  39.028  1.00  0.00     0.002 C
HETATM   24  C14 UNL     1       5.076  25.995  39.249  1.00  0.00     0.002 C
HETATM   25  C15 UNL     1       5.907  26.905  38.354  1.00  0.00     0.033 C
ENDBRANCH  18  21
ENDBRANCH   5  18
TORSDOF 7
ENDMDL