MODEL 4
REMARK VINA RESULT: -6.604400652      2.504      3.533
REMARK  7 active torsions:
REMARK  status: ('A' for Active; 'I' for Inactive)
REMARK    1  A    between atoms: N1_2  and  C2_5
REMARK    2  A    between atoms: C2_5  and  C3_6
REMARK    3  A    between atoms: C3_6  and  C4_7
REMARK    4  A    between atoms: C4_7  and  C5_8
REMARK    5  A    between atoms: C5_8  and  N2_9
REMARK    6  A    between atoms: N2_9  and  C6_11
REMARK    7  A    between atoms: C8_15  and  N4_16
ROOT
HETATM    1  C6  UNL     1       7.756  23.546  35.514  1.00  0.00     0.117 C
HETATM    2  C7  UNL     1       6.637  23.119  36.184  1.00  0.00     0.138 C
HETATM    3  N3  UNL     1       5.423  23.734  36.313  1.00  0.00    -0.349 N
ATOM      4  H3  UNL     1       4.601  23.135  36.396  1.00  0.00     0.167 HD
HETATM    5  C8  UNL     1       5.224  25.084  36.340  1.00  0.00     0.106 C
HETATM    6  C9  UNL     1       6.099  26.103  35.966  1.00  0.00     0.008 C
HETATM    7  C10 UNL     1       7.304  25.931  35.318  1.00  0.00     0.021 C
HETATM    8  N5  UNL     1       8.095  24.822  35.249  1.00  0.00    -0.344 N
ATOM      9  H5  UNL     1       9.061  24.979  34.962  1.00  0.00     0.167 HD
HETATM   10  C11 UNL     1       8.181  26.764  34.504  1.00  0.00     0.057 C
HETATM   11  C12 UNL     1       8.053  28.236  34.695  1.00  0.00     0.006 C
HETATM   12  C13 UNL     1       7.840  28.653  36.120  1.00  0.00     0.000 C
HETATM   13  C14 UNL     1       6.504  29.340  36.293  1.00  0.00     0.000 C
HETATM   14  C15 UNL     1       5.364  28.483  35.789  1.00  0.00     0.005 C
HETATM   15  C16 UNL     1       5.268  27.179  36.495  1.00  0.00     0.044 C
ENDROOT
BRANCH   1  16
HETATM   16  N2  UNL     1       8.570  22.645  35.089  1.00  0.00    -0.375 N
ATOM     17  H2  UNL     1       8.236  21.711  34.854  1.00  0.00     0.161 HD
BRANCH  16  18
HETATM   18  C5  UNL     1       9.962  22.985  34.955  1.00  0.00     0.121 C
BRANCH  18  19
HETATM   19  C4  UNL     1      10.716  22.812  36.261  1.00  0.00     0.021 C
BRANCH  19  20
HETATM   20  C3  UNL     1      12.109  22.311  35.914  1.00  0.00     0.029 C
BRANCH  20  21
HETATM   21  C2  UNL     1      12.260  22.202  34.400  1.00  0.00     0.231 C
BRANCH  21  22
HETATM   22  N1  UNL     1      12.983  20.947  34.163  1.00  0.00    -0.079 N
HETATM   23  C1  UNL     1      14.075  21.238  33.273  1.00  0.00     0.266 C
ATOM     24  H12 UNL     1      12.379  20.200  33.821  1.00  0.00     0.276 HD
ATOM     25  H11 UNL     1      13.283  20.492  35.025  1.00  0.00     0.276 HD
ENDBRANCH  21  22
ENDBRANCH  20  21
ENDBRANCH  19  20
ENDBRANCH  18  19
ENDBRANCH  16  18
ENDBRANCH   1  16
BRANCH   5  26
HETATM   26  N4  UNL     1       4.079  25.508  36.765  1.00  0.00    -0.385 N
ATOM     27  H42 UNL     1       3.567  24.824  37.322  1.00  0.00     0.157 HD
ATOM     28  H41 UNL     1       3.807  26.458  36.511  1.00  0.00     0.157 HD
ENDBRANCH   5  26
TORSDOF 7
ENDMDL