MODEL 1
REMARK VINA RESULT: -6.711928892      0.000      0.000
REMARK  7 active torsions:
REMARK  status: ('A' for Active; 'I' for Inactive)
REMARK    1  A    between atoms: C2_2  and  C3_3
REMARK    2  A    between atoms: C3_3  and  O1_4
REMARK    3  A    between atoms: O1_4  and  C4_5
REMARK    4  A    between atoms: C5_6  and  C6_7
REMARK    5  A    between atoms: C9_12  and  N2_13
REMARK    6  A    between atoms: C10_18  and  N4_19
REMARK    7  A    between atoms: N4_19  and  C11_21
ROOT
HETATM    1  C4  UNL     1      14.191  21.928  36.036  1.00  0.00     0.136 A
HETATM    2  C5  UNL     1      14.223  22.906  36.993  1.00  0.00     0.068 A
HETATM    3  N1  UNL     1      15.051  22.755  38.056  1.00  0.00    -0.193 N
ATOM      4  H1  UNL     1      15.084  23.480  38.773  1.00  0.00     0.184 HD
HETATM    5  C9  UNL     1      15.832  21.665  38.181  1.00  0.00     0.677 A
HETATM    6  N3  UNL     1      15.829  20.680  37.267  1.00  0.00    -0.174 N
ATOM      7  H3  UNL     1      16.428  19.863  37.382  1.00  0.00     0.186 HD
HETATM    8  C10 UNL     1      15.032  20.792  36.209  1.00  0.00     0.153 A
ENDROOT
BRANCH   8   9
HETATM    9  N4  UNL     1      14.956  19.940  35.319  1.00  0.00    -0.369 N
ATOM     10  H4  UNL     1      13.984  19.646  35.231  1.00  0.00     0.161 HD
BRANCH   9  11
HETATM   11  C11 UNL     1      15.711  19.246  34.406  1.00  0.00     0.087 C
HETATM   12  C12 UNL     1      15.227  19.644  32.998  1.00  0.00     0.051 C
HETATM   13  C13 UNL     1      14.801  18.423  32.210  1.00  0.00     0.169 C
HETATM   14  O2  UNL     1      15.853  17.524  32.029  1.00  0.00    -0.391 OA
HETATM   15  C14 UNL     1      16.572  17.341  33.187  1.00  0.00     0.169 C
HETATM   16  C15 UNL     1      15.741  17.759  34.415  1.00  0.00     0.051 C
ENDBRANCH   9  11
ENDBRANCH   8   9
BRANCH   1  17
HETATM   17  O1  UNL     1      13.396  21.973  34.896  1.00  0.00    -0.345 OA
BRANCH  17  18
HETATM   18  C3  UNL     1      13.576  22.795  33.786  1.00  0.00     0.175 C
BRANCH  18  19
HETATM   19  C2  UNL     1      12.597  22.680  32.661  1.00  0.00     0.022 C
HETATM   20  C1  UNL     1      13.291  22.424  31.337  1.00  0.00     0.007 C
ENDBRANCH  18  19
ENDBRANCH  17  18
ENDBRANCH   1  17
BRANCH   2  21
HETATM   21  C6  UNL     1      13.351  24.103  36.945  1.00  0.00     0.039 A
HETATM   22  C7  UNL     1      12.874  24.746  38.200  1.00  0.00     0.011 A
HETATM   23  C8  UNL     1      11.899  24.031  37.260  1.00  0.00     0.011 A
ENDBRANCH   2  21
BRANCH   5  24
HETATM   24  N2  UNL     1      16.619  21.535  39.201  1.00  0.00    -0.234 N
ATOM     25  H22 UNL     1      16.405  20.798  39.873  1.00  0.00     0.174 HD
ATOM     26  H21 UNL     1      17.422  22.152  39.316  1.00  0.00     0.174 HD
ENDBRANCH   5  24
TORSDOF 7
ENDMDL