MODEL 1
REMARK VINA RESULT: -6.884213920      0.000      0.000
REMARK  7 active torsions:
REMARK  status: ('A' for Active; 'I' for Inactive)
REMARK    1  A    between atoms: C2_2  and  N1_5
REMARK    2  A    between atoms: N1_5  and  C5_7
REMARK    3  A    between atoms: C6_10  and  C7_11
REMARK    4  A    between atoms: C7_11  and  O1_12
REMARK    5  A    between atoms: O1_12  and  C8_13
REMARK    6  A    between atoms: C8_13  and  C9_14
REMARK    7  A    between atoms: C15_22  and  N4_23
ROOT
HETATM    1  C5  UNL     1      13.645  20.840  34.351  1.00  0.00     0.694 A
HETATM    2  N2  UNL     1      12.550  21.550  34.643  1.00  0.00    -0.177 N
ATOM      3  H2  UNL     1      11.765  21.548  33.992  1.00  0.00     0.185 HD
HETATM    4  C6  UNL     1      12.460  22.279  35.799  1.00  0.00     0.137 A
HETATM    5  N3  UNL     1      13.478  22.278  36.640  1.00  0.00    -0.178 N
ATOM      6  H3  UNL     1      13.416  22.819  37.503  1.00  0.00     0.185 HD
HETATM    7  C15 UNL     1      14.590  21.580  36.381  1.00  0.00     0.691 A
HETATM    8  N5  UNL     1      14.665  20.860  35.227  1.00  0.00    -0.023 N
ATOM      9  H5  UNL     1      15.510  20.326  35.025  1.00  0.00     0.203 HD
ENDROOT
BRANCH   4  10
HETATM   10  C7  UNL     1      11.233  23.056  36.106  1.00  0.00     0.245 C
BRANCH  10  11
HETATM   11  O1  UNL     1      10.070  22.395  35.775  1.00  0.00    -0.383 OA
BRANCH  11  12
HETATM   12  C8  UNL     1       9.255  23.034  34.874  1.00  0.00     0.172 C
BRANCH  12  13
HETATM   13  C9  UNL     1       8.225  23.946  35.488  1.00  0.00     0.009 C
HETATM   14  C10 UNL     1       6.831  23.532  35.053  1.00  0.00     0.007 C
HETATM   15  C11 UNL     1       5.822  24.344  35.837  1.00  0.00     0.000 C
HETATM   16  C12 UNL     1       6.313  25.760  36.045  1.00  0.00     0.000 C
HETATM   17  C13 UNL     1       7.186  26.107  34.862  1.00  0.00     0.000 C
HETATM   18  C14 UNL     1       8.496  25.371  35.035  1.00  0.00     0.007 C
ENDBRANCH  12  13
ENDBRANCH  11  12
ENDBRANCH  10  11
ENDBRANCH   4  10
BRANCH   1  19
HETATM   19  N1  UNL     1      13.741  20.173  33.304  1.00  0.00    -0.217 N
ATOM     20  H1  UNL     1      13.464  19.197  33.412  1.00  0.00     0.178 HD
BRANCH  19  21
HETATM   21  C2  UNL     1      14.163  20.507  31.989  1.00  0.00     0.036 C
HETATM   22  C1  UNL     1      15.179  21.640  31.982  1.00  0.00     0.038 C
HETATM   23  C3  UNL     1      13.056  20.880  31.059  1.00  0.00     0.038 C
HETATM   24  C4  UNL     1      14.890  19.305  31.415  1.00  0.00     0.038 C
ENDBRANCH  19  21
ENDBRANCH   1  19
BRANCH   7  25
HETATM   25  N4  UNL     1      15.554  21.612  37.234  1.00  0.00    -0.234 N
ATOM     26  H42 UNL     1      15.946  20.764  37.643  1.00  0.00     0.174 HD
ATOM     27  H41 UNL     1      15.935  22.518  37.508  1.00  0.00     0.174 HD
ENDBRANCH   7  25
TORSDOF 7
ENDMDL