MODEL 2
REMARK VINA RESULT: -7.512914302      1.012      1.087
REMARK  5 active torsions:
REMARK  status: ('A' for Active; 'I' for Inactive)
REMARK    1  A    between atoms: C4_8  and  C5_9
REMARK    2  A    between atoms: N3_12  and  C8_13
REMARK    3  A    between atoms: C8_13  and  C9_14
REMARK    4  A    between atoms: C9_14  and  C10_15
REMARK    5  A    between atoms: C10_15  and  C11_16
ROOT
HETATM    1  C5  UNL     1       7.857  24.584  35.084  1.00  0.00    -0.008 C
HETATM    2  C6  UNL     1       7.572  25.848  35.167  1.00  0.00     0.028 C
HETATM    3  C7  UNL     1       6.284  26.345  35.670  1.00  0.00     0.090 C
HETATM    4  N3  UNL     1       5.407  25.333  36.009  1.00  0.00    -0.370 N
HETATM    5  C15 UNL     1       5.462  24.064  35.421  1.00  0.00     0.068 C
HETATM    6  C16 UNL     1       6.882  23.514  35.493  1.00  0.00     0.087 C
ENDROOT
BRANCH   1   7
HETATM    7  C4  UNL     1       9.156  24.140  34.575  1.00  0.00     0.116 A
HETATM    8  N2  UNL     1       9.646  22.929  34.987  1.00  0.00    -0.309 N
HETATM    9  C3  UNL     1      10.826  22.492  34.540  1.00  0.00     0.250 A
ATOM     10  H2  UNL     1       9.108  22.358  35.639  1.00  0.00     0.170 HD
HETATM   11  C2  UNL     1      11.608  23.209  33.659  1.00  0.00     0.119 A
HETATM   12  O1  UNL     1      11.278  21.360  34.929  1.00  0.00    -0.268 OA
HETATM   13  C1  UNL     1      11.113  24.417  33.251  1.00  0.00     0.123 A
HETATM   14  N1  UNL     1      11.795  25.267  32.346  1.00  0.00    -0.083 NA
HETATM   15  N5  UNL     1       9.920  24.828  33.722  1.00  0.00    -0.330 N
ATOM     16  H5  UNL     1       9.573  25.732  33.403  1.00  0.00     0.168 HD
ENDBRANCH   1   7
BRANCH   4  17
HETATM   17  C8  UNL     1       4.549  25.517  37.125  1.00  0.00     0.127 C
BRANCH  17  18
HETATM   18  C9  UNL     1       5.414  25.251  38.373  1.00  0.00     0.022 C
BRANCH  18  19
HETATM   19  C10 UNL     1       4.869  25.938  39.569  1.00  0.00     0.034 C
BRANCH  19  20
HETATM   20  C11 UNL     1       5.813  26.951  40.098  1.00  0.00     0.186 C
HETATM   21  C12 UNL     1       6.236  28.017  39.122  1.00  0.00     0.034 C
HETATM   22  C13 UNL     1       6.297  29.313  39.930  1.00  0.00     0.029 C
HETATM   23  C14 UNL     1       6.223  28.792  41.347  1.00  0.00     0.233 C
HETATM   24  N4  UNL     1       5.270  27.699  41.220  1.00  0.00    -0.071 N
ATOM     25  H42 UNL     1       4.296  27.985  41.117  1.00  0.00     0.277 HD
ATOM     26  H41 UNL     1       5.122  27.154  42.070  1.00  0.00     0.277 HD
ENDBRANCH  19  20
ENDBRANCH  18  19
ENDBRANCH  17  18
ENDBRANCH   4  17
TORSDOF 5
ENDMDL