MODEL 5
REMARK VINA RESULT: -6.364245999      3.548      4.718
REMARK  6 active torsions:
REMARK  status: ('A' for Active; 'I' for Inactive)
REMARK    1  A    between atoms: O1_2  and  C2_3
REMARK    2  A    between atoms: C2_3  and  C3_5
REMARK    3  A    between atoms: C3_5  and  C4_6
REMARK    4  A    between atoms: C4_6  and  C5_7
REMARK    5  A    between atoms: C5_7  and  C6_8
REMARK    6  A    between atoms: C6_8  and  C7_9
ROOT
HETATM    1  C7  UNL     1      -3.275  20.582  -2.944  1.00  0.00     0.123 C
HETATM    2  C8  UNL     1      -3.574  20.275  -1.533  1.00  0.00     0.058 C
HETATM    3  C9  UNL     1      -4.826  21.080  -1.145  1.00  0.00     0.170 C
HETATM    4  O3  UNL     1      -4.685  21.682   0.101  1.00  0.00    -0.389 OA
HETATM    5  C10 UNL     1      -3.819  22.775   0.055  1.00  0.00     0.193 C
HETATM    6  C11 UNL     1      -2.814  22.735   1.152  1.00  0.00     0.193 C
HETATM    7  O4  UNL     1      -1.506  22.657   0.771  1.00  0.00    -0.387 OA
HETATM    8  C12 UNL     1      -1.076  23.548  -0.165  1.00  0.00     0.193 C
HETATM    9  C13 UNL     1      -0.069  22.870  -1.090  1.00  0.00     0.193 C
HETATM   10  O5  UNL     1      -0.678  22.093  -2.069  1.00  0.00    -0.387 OA
HETATM   11  C14 UNL     1      -0.278  20.787  -1.896  1.00  0.00     0.193 C
HETATM   12  C15 UNL     1      -1.110  19.759  -2.593  1.00  0.00     0.194 C
HETATM   13  O6  UNL     1      -2.063  20.218  -3.442  1.00  0.00    -0.384 OA
ENDROOT
BRANCH   1  14
HETATM   14  C6  UNL     1      -4.359  20.024  -3.827  1.00  0.00     0.032 C
BRANCH  14  15
HETATM   15  C5  UNL     1      -4.721  18.603  -3.571  1.00  0.00     0.003 C
BRANCH  15  16
HETATM   16  C4  UNL     1      -4.035  17.642  -4.518  1.00  0.00     0.010 C
BRANCH  16  17
HETATM   17  C3  UNL     1      -4.426  16.204  -4.284  1.00  0.00     0.111 C
BRANCH  17  18
HETATM   18  C2  UNL     1      -3.551  15.371  -5.166  1.00  0.00     0.258 C
HETATM   19  O2  UNL     1      -2.295  15.345  -4.960  1.00  0.00    -0.265 OA
BRANCH  18  20
HETATM   20  O1  UNL     1      -4.037  14.615  -6.213  1.00  0.00    -0.326 OA
HETATM   21  C1  UNL     1      -4.904  15.203  -7.163  1.00  0.00     0.213 C
ENDBRANCH  18  20
ENDBRANCH  17  18
ENDBRANCH  16  17
ENDBRANCH  15  16
ENDBRANCH  14  15
ENDBRANCH   1  14
TORSDOF 6
ENDMDL