MODEL 1
REMARK VINA RESULT: -6.875130661      0.000      0.000
REMARK  6 active torsions:
REMARK  status: ('A' for Active; 'I' for Inactive)
REMARK    1  A    between atoms: O1_2  and  C2_3
REMARK    2  A    between atoms: N1_6  and  C5_7
REMARK    3  A    between atoms: C5_7  and  C6_8
REMARK    4  A    between atoms: C6_8  and  O2_9
REMARK    5  A    between atoms: O2_9  and  C7_10
REMARK    6  A    between atoms: C8_13  and  N3_14
ROOT
HETATM    1  N3  UNL     1       0.362  18.160  -4.590  1.00  0.00    -0.126 N
ATOM      2  H3  UNL     1       0.910  18.689  -5.267  1.00  0.00     0.197 HD
HETATM    3  C9  UNL     1       0.996  17.237  -3.754  1.00  0.00     0.196 C
HETATM    4  N4  UNL     1       1.516  16.456  -3.048  1.00  0.00    -0.171 NA
ENDROOT
BRANCH   1   5
HETATM    5  C8  UNL     1      -0.906  18.344  -4.511  1.00  0.00     0.693 A
HETATM    6  N2  UNL     1      -1.374  19.601  -4.442  1.00  0.00    -0.169 N
HETATM    7  C7  UNL     1      -2.678  19.909  -4.359  1.00  0.00     0.165 A
ATOM      8  H2  UNL     1      -0.699  20.367  -4.454  1.00  0.00     0.186 HD
HETATM    9  C12 UNL     1      -3.586  18.877  -4.342  1.00  0.00     0.012 A
HETATM   10  C10 UNL     1      -3.117  17.591  -4.411  1.00  0.00     0.033 A
HETATM   11  C13 UNL     1      -5.052  19.087  -4.251  1.00  0.00     0.055 C
HETATM   12  N5  UNL     1      -1.800  17.352  -4.493  1.00  0.00    -0.194 N
HETATM   13  C11 UNL     1      -4.030  16.415  -4.401  1.00  0.00     0.069 C
ATOM     14  H5  UNL     1      -1.472  16.388  -4.543  1.00  0.00     0.184 HD
BRANCH   7  15
HETATM   15  O2  UNL     1      -3.117  21.243  -4.289  1.00  0.00    -0.330 OA
BRANCH  15  16
HETATM   16  C6  UNL     1      -2.483  22.088  -3.376  1.00  0.00     0.221 C
BRANCH  16  17
HETATM   17  C5  UNL     1      -3.256  22.233  -2.115  1.00  0.00     0.084 C
BRANCH  17  18
HETATM   18  N1  UNL     1      -2.853  21.392  -1.074  1.00  0.00    -0.391 N
HETATM   19  C4  UNL     1      -1.564  20.859  -0.984  1.00  0.00     0.124 C
HETATM   20  C3  UNL     1      -0.588  21.792  -0.243  1.00  0.00     0.051 C
HETATM   21  C2  UNL     1      -1.172  22.187   1.082  1.00  0.00     0.123 C
HETATM   22  C15 UNL     1      -2.480  21.483   1.334  1.00  0.00     0.051 C
HETATM   23  C14 UNL     1      -3.440  21.729   0.218  1.00  0.00     0.124 C
BRANCH  21  24
HETATM   24  O1  UNL     1      -0.279  22.043   2.132  1.00  0.00    -0.391 OA
HETATM   25  C1  UNL     1       0.085  23.212   2.748  1.00  0.00     0.202 C
ENDBRANCH  21  24
ENDBRANCH  17  18
ENDBRANCH  16  17
ENDBRANCH  15  16
ENDBRANCH   7  15
ENDBRANCH   1   5
TORSDOF 6
ENDMDL