MODEL 3
REMARK VINA RESULT: -6.815744903      2.282      5.607
REMARK  7 active torsions:
REMARK  status: ('A' for Active; 'I' for Inactive)
REMARK    1  A    between atoms: C2_2  and  O1_3
REMARK    2  A    between atoms: O1_3  and  C3_4
REMARK    3  A    between atoms: C3_4  and  C4_6
REMARK    4  A    between atoms: C4_6  and  C6_9
REMARK    5  A    between atoms: C6_9  and  N2_10
REMARK    6  A    between atoms: C11_15  and  C12_16
REMARK    7  A    between atoms: C12_16  and  O4_18
ROOT
HETATM    1  C4  UNL     1      -3.442  17.220  -4.255  1.00  0.00     0.230 C
HETATM    2  C5  UNL     1      -2.104  17.795  -4.560  1.00  0.00     0.079 C
HETATM    3  N1  UNL     1      -1.066  18.254  -4.784  1.00  0.00    -0.196 NA
ENDROOT
BRANCH   1   4
HETATM    4  C3  UNL     1      -3.416  15.851  -4.771  1.00  0.00     0.281 C
HETATM    5  O2  UNL     1      -2.330  15.304  -5.047  1.00  0.00    -0.263 OA
BRANCH   4   6
HETATM    6  O1  UNL     1      -4.570  15.119  -4.972  1.00  0.00    -0.321 OA
BRANCH   6   7
HETATM    7  C2  UNL     1      -4.903  14.472  -6.172  1.00  0.00     0.174 C
HETATM    8  C1  UNL     1      -5.173  15.406  -7.308  1.00  0.00     0.034 C
ENDBRANCH   6   7
ENDBRANCH   4   6
ENDBRANCH   1   4
BRANCH   1   9
HETATM    9  C6  UNL     1      -4.479  18.138  -4.786  1.00  0.00     0.093 C
BRANCH   9  10
HETATM   10  N2  UNL     1      -4.924  19.202  -3.998  1.00  0.00    -0.367 N
HETATM   11  C7  UNL     1      -5.850  20.085  -4.545  1.00  0.00     0.063 C
HETATM   12  C8  UNL     1      -5.628  21.543  -4.217  1.00  0.00     0.045 C
HETATM   13  C9  UNL     1      -4.225  21.908  -3.928  1.00  0.00     0.013 C
HETATM   14  C10 UNL     1      -3.481  20.953  -3.053  1.00  0.00     0.023 C
HETATM   15  C11 UNL     1      -3.338  21.490  -1.664  1.00  0.00     0.091 C
HETATM   16  C16 UNL     1      -4.127  19.614  -2.911  1.00  0.00     0.093 C
HETATM   17  C14 UNL     1      -4.573  20.988  -0.971  1.00  0.00     0.017 C
HETATM   18  C15 UNL     1      -4.929  19.678  -1.633  1.00  0.00     0.027 C
BRANCH  15  19
HETATM   19  C12 UNL     1      -2.127  20.948  -0.978  1.00  0.00     0.263 C
HETATM   20  O3  UNL     1      -1.187  20.536  -1.677  1.00  0.00    -0.265 OA
BRANCH  19  21
HETATM   21  O4  UNL     1      -2.017  20.891   0.391  1.00  0.00    -0.326 OA
HETATM   22  C13 UNL     1      -1.414  21.910   1.162  1.00  0.00     0.213 C
ENDBRANCH  19  21
ENDBRANCH  15  19
ENDBRANCH   9  10
ENDBRANCH   1   9
TORSDOF 7
ENDMDL