MODEL 4
REMARK VINA RESULT: -6.392383426      2.741      4.609
REMARK  7 active torsions:
REMARK  status: ('A' for Active; 'I' for Inactive)
REMARK    1  A    between atoms: C2_2  and  C4_4
REMARK    2  A    between atoms: C4_4  and  N1_5
REMARK    3  A    between atoms: C4_4  and  C8_13
REMARK       I    between atoms: N1_5  and  C5_7
REMARK    4  A    between atoms: C5_7  and  O2_9
REMARK    5  A    between atoms: O2_9  and  C6_10
REMARK    6  A    between atoms: C8_13  and  O4_15
REMARK    7  A    between atoms: O4_15  and  C9_16
ROOT
HETATM    1  C6  UNL     1      -5.300  14.460  -5.695  1.00  0.00     0.304 C
HETATM    2  C7  UNL     1      -5.072  15.071  -7.022  1.00  0.00     0.086 C
HETATM    3  N2  UNL     1      -4.889  15.565  -8.049  1.00  0.00    -0.195 NA
ENDROOT
BRANCH   1   4
HETATM    4  O2  UNL     1      -4.238  14.892  -4.872  1.00  0.00    -0.290 OA
BRANCH   4   5
HETATM    5  C5  UNL     1      -4.208  16.129  -4.248  1.00  0.00     0.362 C
HETATM    6  N1  UNL     1      -3.605  17.258  -4.862  1.00  0.00    -0.323 N
ATOM      7  H1  UNL     1      -3.188  17.140  -5.785  1.00  0.00     0.165 HD
HETATM    8  O1  UNL     1      -4.743  16.201  -3.109  1.00  0.00    -0.238 OA
BRANCH   6   9
HETATM    9  C4  UNL     1      -3.551  18.565  -4.249  1.00  0.00     0.190 C
BRANCH   9  10
HETATM   10  C2  UNL     1      -4.629  19.444  -4.832  1.00  0.00     0.010 C
HETATM   11  C1  UNL     1      -5.683  19.801  -3.840  1.00  0.00     0.012 C
HETATM   12  C3  UNL     1      -5.283  18.817  -6.039  1.00  0.00     0.012 C
ENDBRANCH   9  10
BRANCH   9  13
HETATM   13  C8  UNL     1      -2.250  19.221  -4.420  1.00  0.00     0.282 C
HETATM   14  O3  UNL     1      -1.823  19.670  -5.520  1.00  0.00    -0.263 OA
BRANCH  13  15
HETATM   15  O4  UNL     1      -1.400  19.383  -3.339  1.00  0.00    -0.312 OA
BRANCH  15  16
HETATM   16  C9  UNL     1      -1.127  20.646  -2.769  1.00  0.00     0.164 C
HETATM   17  C10 UNL     1      -0.315  20.539  -1.501  1.00  0.00     0.305 C
HETATM   18  N3  UNL     1      -0.656  21.713  -0.684  1.00  0.00     0.090 N
HETATM   19  C11 UNL     1      -0.866  22.871  -1.510  1.00  0.00     0.273 C
HETATM   20  C15 UNL     1      -1.909  21.383  -0.026  1.00  0.00     0.273 C
HETATM   21  C12 UNL     1      -2.198  22.766  -2.262  1.00  0.00     0.037 C
HETATM   22  C13 UNL     1      -2.459  21.261  -2.393  1.00  0.00     0.020 C
HETATM   23  C14 UNL     1      -2.835  20.693  -1.038  1.00  0.00     0.037 C
ENDBRANCH  15  16
ENDBRANCH  13  15
ENDBRANCH   9  13
ENDBRANCH   6   9
ENDBRANCH   4   5
ENDBRANCH   1   4
TORSDOF 7
ENDMDL