MODEL 1
REMARK VINA RESULT: -6.814493706      0.000      0.000
REMARK  6 active torsions:
REMARK  status: ('A' for Active; 'I' for Inactive)
REMARK    1  A    between atoms: C5_10  and  O1_11
REMARK    2  A    between atoms: O1_11  and  C6_12
REMARK    3  A    between atoms: C6_12  and  C7_13
REMARK    4  A    between atoms: C7_13  and  O2_14
REMARK    5  A    between atoms: C7_13  and  C8_16
REMARK    6  A    between atoms: C8_16  and  N4_17
ROOT
HETATM    1  C1  UNL     1       0.800  17.597  -4.461  1.00  0.00     0.090 C
HETATM    2  C2  UNL     1      -0.621  18.000  -4.157  1.00  0.00     0.093 A
HETATM    3  N1  UNL     1      -1.713  17.348  -4.514  1.00  0.00    -0.333 N
ATOM      4  H1  UNL     1      -1.760  16.478  -5.045  1.00  0.00     0.168 HD
HETATM    5  C3  UNL     1      -2.763  18.066  -4.033  1.00  0.00     0.107 A
HETATM    6  N2  UNL     1      -2.292  19.130  -3.400  1.00  0.00    -0.276 N
HETATM    7  N3  UNL     1      -0.960  19.083  -3.481  1.00  0.00    -0.286 N
ATOM      8  H3  UNL     1      -0.313  19.767  -3.087  1.00  0.00     0.188 HD
HETATM    9  C4  UNL     1      -3.070  20.156  -2.742  1.00  0.00     0.182 C
HETATM   10  C5  UNL     1      -4.511  19.811  -2.604  1.00  0.00     0.142 C
HETATM   11  C13 UNL     1      -4.815  18.351  -2.794  1.00  0.00     0.050 C
HETATM   12  C14 UNL     1      -4.238  17.871  -4.095  1.00  0.00     0.015 C
HETATM   13  C15 UNL     1      -4.512  16.399  -4.298  1.00  0.00     0.023 C
HETATM   14  C16 UNL     1      -4.777  18.600  -5.288  1.00  0.00     0.023 C
ENDROOT
BRANCH  10  15
HETATM   15  O1  UNL     1      -5.001  20.329  -1.433  1.00  0.00    -0.381 OA
BRANCH  15  16
HETATM   16  C6  UNL     1      -5.353  21.673  -1.521  1.00  0.00     0.205 C
BRANCH  16  17
HETATM   17  C7  UNL     1      -6.871  21.718  -1.566  1.00  0.00     0.180 C
BRANCH  17  18
HETATM   18  O2  UNL     1      -7.271  22.191  -0.319  1.00  0.00    -0.388 OA
ATOM     19  H2  UNL     1      -7.193  21.452   0.274  1.00  0.00     0.210 HD
ENDBRANCH  17  18
BRANCH  17  20
HETATM   20  C8  UNL     1      -7.242  22.633  -2.705  1.00  0.00     0.101 C
BRANCH  20  21
HETATM   21  N4  UNL     1      -7.827  22.070  -3.813  1.00  0.00    -0.352 N
HETATM   22  C9  UNL     1      -8.455  22.836  -4.807  1.00  0.00     0.068 C
HETATM   23  C10 UNL     1      -8.573  21.952  -6.021  1.00  0.00     0.050 C
HETATM   24  C11 UNL     1      -7.937  20.639  -5.663  1.00  0.00     0.050 C
HETATM   25  C12 UNL     1      -7.761  20.727  -4.162  1.00  0.00     0.068 C
ENDBRANCH  20  21
ENDBRANCH  17  20
ENDBRANCH  16  17
ENDBRANCH  15  16
ENDBRANCH  10  15
TORSDOF 6
ENDMDL