MODEL 3
REMARK VINA RESULT: -6.781393359      0.884      1.225
REMARK  6 active torsions:
REMARK  status: ('A' for Active; 'I' for Inactive)
REMARK    1  A    between atoms: O1_2  and  C2_3
REMARK    2  A    between atoms: C2_3  and  C3_4
REMARK    3  A    between atoms: C3_4  and  N1_5
REMARK       I    between atoms: N1_5  and  C4_7
REMARK    4  A    between atoms: C4_7  and  C5_9
REMARK    5  A    between atoms: N2_14  and  C10_15
REMARK    6  A    between atoms: C10_15  and  C11_16
ROOT
HETATM    1  C5  UNL     1      -1.621  19.305  -3.538  1.00  0.00     0.255 C
HETATM    2  C6  UNL     1      -2.946  19.587  -2.883  1.00  0.00     0.086 C
HETATM    3  C7  UNL     1      -3.549  20.562  -3.850  1.00  0.00     0.105 C
HETATM    4  C8  UNL     1      -4.210  21.751  -3.167  1.00  0.00     0.062 C
HETATM    5  C9  UNL     1      -4.653  22.667  -4.326  1.00  0.00     0.130 C
HETATM    6  N2  UNL     1      -5.714  22.071  -4.964  1.00  0.00    -0.373 N
HETATM    7  C15 UNL     1      -5.822  20.685  -4.938  1.00  0.00     0.066 C
HETATM    8  C16 UNL     1      -4.522  19.918  -4.792  1.00  0.00     0.086 C
HETATM    9  O3  UNL     1      -2.447  21.061  -4.506  1.00  0.00    -0.228 OA
HETATM   10  O4  UNL     1      -1.462  20.259  -4.483  1.00  0.00    -0.225 OA
ENDROOT
BRANCH   1  11
HETATM   11  C4  UNL     1      -1.635  17.983  -4.240  1.00  0.00     0.249 C
HETATM   12  N1  UNL     1      -2.804  17.203  -4.191  1.00  0.00    -0.357 N
ATOM     13  H1  UNL     1      -3.622  17.541  -3.685  1.00  0.00     0.162 HD
HETATM   14  O2  UNL     1      -0.632  17.548  -4.865  1.00  0.00    -0.271 OA
BRANCH  12  15
HETATM   15  C3  UNL     1      -2.845  15.921  -4.860  1.00  0.00     0.148 C
BRANCH  15  16
HETATM   16  C2  UNL     1      -4.179  15.799  -5.559  1.00  0.00     0.186 C
BRANCH  16  17
HETATM   17  O1  UNL     1      -4.113  15.115  -6.755  1.00  0.00    -0.394 OA
HETATM   18  C1  UNL     1      -5.162  15.444  -7.612  1.00  0.00     0.201 C
ENDBRANCH  16  17
ENDBRANCH  15  16
ENDBRANCH  12  15
ENDBRANCH   1  11
BRANCH   6  19
HETATM   19  C10 UNL     1      -6.783  22.776  -5.477  1.00  0.00     0.071 C
BRANCH  19  20
HETATM   20  C11 UNL     1      -7.964  23.059  -4.594  1.00  0.00    -0.019 C
HETATM   21  C12 UNL     1      -9.240  22.488  -5.142  1.00  0.00     0.020 C
HETATM   22  C13 UNL     1      -8.134  24.594  -4.639  1.00  0.00     0.020 C
HETATM   23  C14 UNL     1      -7.818  22.691  -3.161  1.00  0.00     0.020 C
ENDBRANCH  19  20
ENDBRANCH   6  19
TORSDOF 6
ENDMDL