MODEL 4
REMARK VINA RESULT: -5.740609666      2.169      6.930
REMARK  9 active torsions:
REMARK  status: ('A' for Active; 'I' for Inactive)
REMARK    1  A    between atoms: C2_2  and  O1_3
REMARK    2  A    between atoms: O1_3  and  C3_4
REMARK    3  A    between atoms: C3_4  and  C4_5
REMARK    4  A    between atoms: C4_5  and  N1_6
REMARK    5  A    between atoms: C7_9  and  C8_10
REMARK    6  A    between atoms: C8_10  and  O2_11
REMARK    7  A    between atoms: C8_10  and  N2_13
REMARK       I    between atoms: N2_13  and  C9_15
REMARK    8  A    between atoms: C9_15  and  O4_17
REMARK    9  A    between atoms: O4_17  and  C10_18
ROOT
HETATM    1  C8  UNL     1      -2.509  18.141  -4.139  1.00  0.00     0.150 C
ENDROOT
BRANCH   1   2
HETATM    2  C7  UNL     1      -2.666  19.505  -3.626  1.00  0.00     0.203 C
HETATM    3  C6  UNL     1      -3.820  19.519  -2.599  1.00  0.00     0.085 C
HETATM    4  C5  UNL     1      -3.446  20.487  -1.476  1.00  0.00     0.063 C
HETATM    5  N1  UNL     1      -2.816  21.650  -1.943  1.00  0.00    -0.370 N
HETATM    6  C14 UNL     1      -1.634  21.352  -2.753  1.00  0.00     0.293 C
HETATM    7  O5  UNL     1      -1.554  19.982  -3.013  1.00  0.00    -0.358 OA
BRANCH   5   8
HETATM    8  C4  UNL     1      -3.560  22.713  -2.497  1.00  0.00     0.150 C
BRANCH   8   9
HETATM    9  C3  UNL     1      -3.241  23.120  -3.897  1.00  0.00     0.187 C
BRANCH   9  10
HETATM   10  O1  UNL     1      -4.082  22.714  -4.887  1.00  0.00    -0.390 OA
BRANCH  10  11
HETATM   11  C2  UNL     1      -5.364  22.368  -4.404  1.00  0.00     0.163 C
HETATM   12  C1  UNL     1      -5.920  21.209  -5.218  1.00  0.00     0.033 C
ENDBRANCH  10  11
ENDBRANCH   9  10
ENDBRANCH   8   9
ENDBRANCH   5   8
ENDBRANCH   1   2
BRANCH   1  13
HETATM   13  O2  UNL     1      -1.243  17.737  -4.247  1.00  0.00    -0.347 OA
ATOM     14  H2  UNL     1      -0.974  17.113  -3.583  1.00  0.00     0.219 HD
ENDBRANCH   1  13
BRANCH   1  15
HETATM   15  N2  UNL     1      -3.456  17.229  -4.522  1.00  0.00    -0.284 N
HETATM   16  C9  UNL     1      -3.410  15.895  -4.914  1.00  0.00     0.367 C
HETATM   17  O3  UNL     1      -2.446  15.124  -5.033  1.00  0.00    -0.238 OA
ATOM     18  H2  UNL     1      -4.401  17.611  -4.519  1.00  0.00     0.173 HD
BRANCH  16  19
HETATM   19  O4  UNL     1      -4.635  15.213  -5.256  1.00  0.00    -0.294 OA
BRANCH  19  20
HETATM   20  C10 UNL     1      -5.368  15.585  -6.371  1.00  0.00     0.061 C
HETATM   21  C11 UNL     1      -6.722  14.875  -6.248  1.00  0.00     0.046 C
HETATM   22  C12 UNL     1      -5.693  17.081  -6.389  1.00  0.00     0.046 C
HETATM   23  C13 UNL     1      -4.776  15.225  -7.684  1.00  0.00     0.046 C
ENDBRANCH  19  20
ENDBRANCH  16  19
ENDBRANCH   1  15
TORSDOF 9
ENDMDL