MODEL 4
REMARK VINA RESULT: -6.624162900      1.360      1.893
REMARK  5 active torsions:
REMARK  status: ('A' for Active; 'I' for Inactive)
REMARK    1  A    between atoms: O1_2  and  C2_3
REMARK    2  A    between atoms: C3_4  and  C4_5
REMARK    3  A    between atoms: C4_5  and  C5_6
REMARK    4  A    between atoms: N1_12  and  C10_13
REMARK    5  A    between atoms: C10_13  and  C11_14
ROOT
HETATM    1  C2  UNL     1      -5.205  21.153  -3.804  1.00  0.00     0.156 C
HETATM    2  C3  UNL     1      -4.104  20.146  -3.702  1.00  0.00     0.119 C
HETATM    3  N1  UNL     1      -4.561  19.079  -4.520  1.00  0.00    -0.358 N
HETATM    4  C12 UNL     1      -5.296  19.576  -5.602  1.00  0.00     0.075 C
HETATM    5  C13 UNL     1      -6.039  20.758  -5.008  1.00  0.00     0.013 C
HETATM    6  C14 UNL     1      -6.166  21.894  -5.993  1.00  0.00     0.023 C
HETATM    7  C15 UNL     1      -7.420  20.269  -4.601  1.00  0.00     0.023 C
ENDROOT
BRANCH   3   8
HETATM    8  C10 UNL     1      -4.891  17.875  -3.925  1.00  0.00     0.141 C
BRANCH   8   9
HETATM    9  C11 UNL     1      -4.352  16.646  -4.480  1.00  0.00     0.152 A
HETATM   10  N2  UNL     1      -4.900  15.657  -5.218  1.00  0.00    -0.268 N
HETATM   11  N3  UNL     1      -4.008  14.746  -5.485  1.00  0.00    -0.227 N
ATOM     12  H2  UNL     1      -5.873  15.628  -5.523  1.00  0.00     0.190 HD
HETATM   13  N4  UNL     1      -2.883  15.126  -4.931  1.00  0.00    -0.227 N
ATOM     14  H3  UNL     1      -4.158  13.894  -6.026  1.00  0.00     0.210 HD
HETATM   15  N5  UNL     1      -3.070  16.262  -4.325  1.00  0.00    -0.268 N
ATOM     16  H4  UNL     1      -2.002  14.614  -4.970  1.00  0.00     0.210 HD
ATOM     17  H5  UNL     1      -2.357  16.780  -3.811  1.00  0.00     0.190 HD
ENDBRANCH   8   9
ENDBRANCH   3   8
BRANCH   2  18
HETATM   18  C4  UNL     1      -2.785  20.639  -4.245  1.00  0.00     0.033 C
BRANCH  18  19
HETATM   19  C5  UNL     1      -1.838  19.521  -4.594  1.00  0.00    -0.009 C
HETATM   20  C6  UNL     1      -1.289  18.993  -3.267  1.00  0.00     0.031 C
HETATM   21  C7  UNL     1      -0.076  19.849  -2.909  1.00  0.00     0.168 C
HETATM   22  O2  UNL     1       0.986  19.592  -3.755  1.00  0.00    -0.391 OA
HETATM   23  C8  UNL     1       0.580  19.227  -5.037  1.00  0.00     0.168 C
HETATM   24  C9  UNL     1      -0.644  20.033  -5.373  1.00  0.00     0.031 C
ENDBRANCH  18  19
ENDBRANCH   2  18
BRANCH   1  25
HETATM   25  O1  UNL     1      -6.053  21.167  -2.712  1.00  0.00    -0.388 OA
HETATM   26  C1  UNL     1      -5.425  20.887  -1.512  1.00  0.00     0.202 C
ENDBRANCH   1  25
TORSDOF 5
ENDMDL