MODEL 5
REMARK VINA RESULT: -6.363810893      1.418      1.605
REMARK  5 active torsions:
REMARK  status: ('A' for Active; 'I' for Inactive)
REMARK    1  A    between atoms: C2_2  and  N1_3
REMARK    2  A    between atoms: C4_7  and  C5_8
REMARK    3  A    between atoms: C5_8  and  N3_9
REMARK    4  A    between atoms: N3_9  and  C6_11
REMARK    5  A    between atoms: C12_20  and  N5_21
ROOT
HETATM    1  N1  UNL     1      -2.322  18.763  -4.390  1.00  0.00    -0.277 N
HETATM    2  N2  UNL     1      -2.106  20.031  -3.996  1.00  0.00    -0.307 N
ATOM      3  H2  UNL     1      -1.193  20.426  -3.773  1.00  0.00     0.186 HD
HETATM    4  C3  UNL     1      -3.267  20.698  -3.940  1.00  0.00     0.120 A
HETATM    5  C4  UNL     1      -4.229  19.781  -4.321  1.00  0.00     0.021 A
HETATM    6  C12 UNL     1      -3.634  18.574  -4.601  1.00  0.00     0.129 A
ENDROOT
BRANCH   5   7
HETATM    7  C5  UNL     1      -5.673  20.117  -4.403  1.00  0.00     0.158 C
BRANCH   7   8
HETATM    8  N3  UNL     1      -6.001  20.596  -5.720  1.00  0.00    -0.413 N
ATOM      9  H3  UNL     1      -5.615  20.177  -6.566  1.00  0.00     0.153 HD
BRANCH   8  10
HETATM   10  C6  UNL     1      -6.906  21.699  -5.756  1.00  0.00     0.078 C
HETATM   11  C7  UNL     1      -6.264  22.941  -5.204  1.00  0.00     0.026 C
HETATM   12  C8  UNL     1      -7.243  24.108  -5.196  1.00  0.00     0.029 C
HETATM   13  C9  UNL     1      -8.140  23.957  -3.993  1.00  0.00     0.232 C
HETATM   14  N4  UNL     1      -9.424  23.382  -4.346  1.00  0.00    -0.075 N
HETATM   15  C10 UNL     1      -9.297  22.242  -5.234  1.00  0.00     0.234 C
ATOM     16  H42 UNL     1      -9.959  23.140  -3.513  1.00  0.00     0.277 HD
ATOM     17  H41 UNL     1     -10.045  24.088  -4.742  1.00  0.00     0.277 HD
HETATM   18  C11 UNL     1      -8.113  21.386  -4.879  1.00  0.00     0.052 C
ENDBRANCH   8  10
ENDBRANCH   7   8
ENDBRANCH   5   7
BRANCH   6  19
HETATM   19  N5  UNL     1      -4.286  17.409  -5.020  1.00  0.00    -0.362 N
HETATM   20  C13 UNL     1      -4.984  17.291  -6.315  1.00  0.00     0.150 C
HETATM   21  C14 UNL     1      -5.019  15.818  -6.685  1.00  0.00     0.187 C
HETATM   22  O1  UNL     1      -3.812  15.193  -6.391  1.00  0.00    -0.388 OA
HETATM   23  C15 UNL     1      -3.800  14.986  -5.009  1.00  0.00     0.187 C
HETATM   24  C16 UNL     1      -4.351  16.163  -4.237  1.00  0.00     0.150 C
ENDBRANCH   6  19
BRANCH   1  25
HETATM   25  C2  UNL     1      -1.277  17.805  -4.550  1.00  0.00     0.146 C
HETATM   26  C1  UNL     1       0.091  18.486  -4.674  1.00  0.00     0.028 C
ENDBRANCH   1  25
TORSDOF 5
ENDMDL