MODEL 4
REMARK VINA RESULT: -6.541029155      3.757      6.253
REMARK  6 active torsions:
REMARK  status: ('A' for Active; 'I' for Inactive)
REMARK    1  A    between atoms: C2_2  and  C3_3
REMARK    2  A    between atoms: C5_10  and  N4_11
REMARK    3  A    between atoms: C10_16  and  O1_17
REMARK    4  A    between atoms: O1_17  and  C11_18
REMARK    5  A    between atoms: C11_18  and  C12_19
REMARK    6  A    between atoms: C12_19  and  O2_20
ROOT
HETATM    1  C3  UNL     1      -4.362  16.225  -4.927  1.00  0.00     0.097 A
HETATM    2  N1  UNL     1      -4.887  16.410  -3.700  1.00  0.00    -0.333 N
ATOM      3  H1  UNL     1      -5.445  15.734  -3.179  1.00  0.00     0.168 HD
HETATM    4  C4  UNL     1      -4.545  17.641  -3.284  1.00  0.00     0.102 A
HETATM    5  N2  UNL     1      -3.807  18.236  -4.235  1.00  0.00    -0.255 N
HETATM    6  N3  UNL     1      -3.710  17.354  -5.225  1.00  0.00    -0.283 N
ATOM      7  H3  UNL     1      -3.206  17.517  -6.097  1.00  0.00     0.188 HD
HETATM    8  C5  UNL     1      -3.262  19.575  -4.136  1.00  0.00     0.208 C
HETATM    9  C14 UNL     1      -3.831  20.354  -2.995  1.00  0.00     0.049 C
HETATM   10  C15 UNL     1      -5.134  19.808  -2.458  1.00  0.00     0.011 C
HETATM   11  C16 UNL     1      -4.840  18.377  -2.029  1.00  0.00     0.078 C
ENDROOT
BRANCH   8  12
HETATM   12  N4  UNL     1      -1.858  19.637  -4.109  1.00  0.00    -0.368 N
HETATM   13  C6  UNL     1      -1.100  18.768  -4.901  1.00  0.00     0.060 C
HETATM   14  C7  UNL     1       0.338  19.173  -5.073  1.00  0.00     0.044 C
HETATM   15  C8  UNL     1       1.059  19.435  -3.788  1.00  0.00     0.008 C
HETATM   16  C9  UNL     1       0.298  19.093  -2.555  1.00  0.00     0.034 C
HETATM   17  C10 UNL     1      -0.589  20.254  -2.190  1.00  0.00     0.139 C
HETATM   18  C13 UNL     1      -1.236  20.735  -3.477  1.00  0.00     0.155 C
BRANCH  17  19
HETATM   19  O1  UNL     1       0.088  21.314  -1.646  1.00  0.00    -0.382 OA
BRANCH  19  20
HETATM   20  C11 UNL     1      -0.630  22.127  -0.819  1.00  0.00     0.194 C
BRANCH  20  21
HETATM   21  C12 UNL     1      -1.283  21.461   0.349  1.00  0.00     0.190 C
BRANCH  21  22
HETATM   22  O2  UNL     1      -0.473  21.696   1.485  1.00  0.00    -0.399 OA
ATOM     23  H2  UNL     1      -0.431  22.635   1.621  1.00  0.00     0.209 HD
ENDBRANCH  21  22
ENDBRANCH  20  21
ENDBRANCH  19  20
ENDBRANCH  17  19
ENDBRANCH   8  12
BRANCH   1  24
HETATM   24  C2  UNL     1      -4.485  15.001  -5.787  1.00  0.00     0.073 C
HETATM   25  C1  UNL     1      -4.939  15.352  -7.175  1.00  0.00     0.013 C
ENDBRANCH   1  24
TORSDOF 6
ENDMDL