MODEL 3
REMARK VINA RESULT: -6.680253969      2.894      3.893
REMARK  7 active torsions:
REMARK  status: ('A' for Active; 'I' for Inactive)
REMARK    1  A    between atoms: N1_4  and  C4_5
REMARK    2  A    between atoms: C4_5  and  C5_6
REMARK    3  A    between atoms: C5_6  and  C6_7
REMARK    4  A    between atoms: C6_7  and  C7_8
REMARK    5  A    between atoms: C7_8  and  C8_9
REMARK    6  A    between atoms: C8_9  and  N2_10
REMARK    7  A    between atoms: C14_16  and  O1_17
ROOT
HETATM    1  C1  UNL     1     -28.731 -18.331 -11.620  1.00  0.00     0.021 C
HETATM    2  C2  UNL     1     -28.356 -19.159 -10.839  1.00  0.00    -0.041 C
HETATM    3  C3  UNL     1     -27.912 -20.166  -9.919  1.00  0.00     0.168 A
HETATM    4  N1  UNL     1     -27.527 -21.409 -10.233  1.00  0.00    -0.304 N
HETATM    5  C14 UNL     1     -27.189 -22.030  -9.088  1.00  0.00     0.187 A
HETATM    6  C15 UNL     1     -27.377 -21.125  -8.040  1.00  0.00     0.171 A
HETATM    7  N3  UNL     1     -27.134 -21.388  -6.666  1.00  0.00    -0.078 NA
HETATM    8  N4  UNL     1     -27.824 -19.978  -8.574  1.00  0.00    -0.315 N
HETATM    9  C16 UNL     1     -28.159 -18.753  -7.871  1.00  0.00     0.160 C
ENDROOT
BRANCH   4  10
HETATM   10  C4  UNL     1     -27.497 -21.946 -11.574  1.00  0.00     0.133 C
BRANCH  10  11
HETATM   11  C5  UNL     1     -26.091 -22.086 -12.113  1.00  0.00     0.020 C
BRANCH  11  12
HETATM   12  C6  UNL     1     -26.100 -21.530 -13.517  1.00  0.00     0.003 C
BRANCH  12  13
HETATM   13  C7  UNL     1     -26.068 -20.051 -13.614  1.00  0.00     0.020 C
BRANCH  13  14
HETATM   14  C8  UNL     1     -25.156 -19.334 -12.688  1.00  0.00     0.128 C
BRANCH  14  15
HETATM   15  N2  UNL     1     -25.316 -17.927 -12.588  1.00  0.00    -0.366 N
HETATM   16  C9  UNL     1     -25.701 -17.250 -13.692  1.00  0.00     0.090 A
HETATM   17  C10 UNL     1     -25.890 -15.881 -13.682  1.00  0.00     0.017 A
HETATM   18  C11 UNL     1     -25.676 -15.196 -12.509  1.00  0.00     0.003 A
HETATM   19  C12 UNL     1     -25.286 -15.883 -11.389  1.00  0.00     0.017 A
HETATM   20  C13 UNL     1     -25.108 -17.271 -11.449  1.00  0.00     0.090 A
ENDBRANCH  14  15
ENDBRANCH  13  14
ENDBRANCH  12  13
ENDBRANCH  11  12
ENDBRANCH  10  11
ENDBRANCH   4  10
BRANCH   5  21
HETATM   21  O1  UNL     1     -26.738 -23.340  -9.012  1.00  0.00    -0.343 OA
ATOM     22  H1  UNL     1     -25.827 -23.598  -9.083  1.00  0.00     0.219 HD
ENDBRANCH   5  21
TORSDOF 7
ENDMDL