MODEL 4
REMARK VINA RESULT: -6.234856276      0.770      1.543
REMARK  7 active torsions:
REMARK  status: ('A' for Active; 'I' for Inactive)
REMARK       I    between atoms: C1_2  and  N4_16
REMARK    1  A    between atoms: N2_3  and  C2_5
REMARK    2  A    between atoms: C2_5  and  C3_6
REMARK    3  A    between atoms: C3_6  and  C4_7
REMARK    4  A    between atoms: C4_7  and  C5_8
REMARK    5  A    between atoms: C5_8  and  C6_9
REMARK    6  A    between atoms: C6_9  and  N3_10
REMARK    7  A    between atoms: N4_16  and  C11_18
ROOT
HETATM    1  N1  UNL     1     -22.630 -18.672 -12.353  1.00  0.00    -0.063 NA
HETATM    2  C1  UNL     1     -22.285 -18.165 -11.081  1.00  0.00     0.202 C
HETATM    3  N2  UNL     1     -22.353 -16.908 -10.860  1.00  0.00    -0.364 N
ATOM      4  H2  UNL     1     -22.105 -16.532  -9.945  1.00  0.00     0.162 HD
HETATM    5  N4  UNL     1     -21.861 -19.048 -10.063  1.00  0.00    -0.163 N
ATOM      6  H4  UNL     1     -20.883 -19.043  -9.772  1.00  0.00     0.187 HD
ENDROOT
BRANCH   3   7
HETATM    7  C2  UNL     1     -22.785 -16.026 -11.919  1.00  0.00     0.122 C
BRANCH   7   8
HETATM    8  C3  UNL     1     -24.142 -15.464 -11.526  1.00  0.00     0.020 C
BRANCH   8   9
HETATM    9  C4  UNL     1     -25.101 -15.774 -12.644  1.00  0.00     0.003 C
BRANCH   9  10
HETATM   10  C5  UNL     1     -26.465 -16.060 -12.083  1.00  0.00     0.030 C
BRANCH  10  11
HETATM   11  C6  UNL     1     -26.873 -17.484 -12.231  1.00  0.00     0.272 C
BRANCH  11  12
HETATM   12  N3  UNL     1     -26.012 -18.422 -11.583  1.00  0.00     0.092 N
HETATM   13  C7  UNL     1     -26.103 -18.493 -10.171  1.00  0.00     0.298 C
HETATM   14  C8  UNL     1     -27.213 -19.376  -9.648  1.00  0.00     0.198 C
HETATM   15  O1  UNL     1     -27.335 -20.574 -10.311  1.00  0.00    -0.388 OA
HETATM   16  C9  UNL     1     -27.457 -20.406 -11.671  1.00  0.00     0.198 C
HETATM   17  C10 UNL     1     -26.209 -19.720 -12.174  1.00  0.00     0.298 C
ENDBRANCH  11  12
ENDBRANCH  10  11
ENDBRANCH   9  10
ENDBRANCH   8   9
ENDBRANCH   7   8
ENDBRANCH   3   7
BRANCH   5  18
HETATM   18  C11 UNL     1     -22.691 -19.867  -9.492  1.00  0.00     0.684 A
HETATM   19  N5  UNL     1     -23.099 -19.863  -8.204  1.00  0.00    -0.200 N
HETATM   20  C12 UNL     1     -23.970 -20.869  -7.990  1.00  0.00     0.123 A
ATOM     21  H5  UNL     1     -22.793 -19.195  -7.497  1.00  0.00     0.183 HD
HETATM   22  C13 UNL     1     -24.108 -21.521  -9.190  1.00  0.00     0.123 A
HETATM   23  N6  UNL     1     -23.334 -20.902 -10.067  1.00  0.00    -0.200 N
ATOM     24  H6  UNL     1     -23.237 -21.172 -11.046  1.00  0.00     0.183 HD
ENDBRANCH   5  18
TORSDOF 7
ENDMDL