MODEL 2
REMARK VINA RESULT: -7.317932244      0.050      1.022
REMARK  7 active torsions:
REMARK  status: ('A' for Active; 'I' for Inactive)
REMARK    1  A    between atoms: C1_4  and  C2_6
REMARK    2  A    between atoms: N3_9  and  C5_10
REMARK    3  A    between atoms: C5_10  and  C6_11
REMARK    4  A    between atoms: C6_11  and  C7_12
REMARK    5  A    between atoms: C7_12  and  N4_13
REMARK    6  A    between atoms: C10_16  and  C11_17
REMARK    7  A    between atoms: N5_18  and  O1_20
ROOT
HETATM    1  C6  UNL     1     -26.488 -21.998 -11.608  1.00  0.00     0.040 C
ENDROOT
BRANCH   1   2
HETATM    2  C5  UNL     1     -26.764 -22.045 -10.155  1.00  0.00     0.129 C
BRANCH   2   3
HETATM    3  N3  UNL     1     -25.635 -21.671  -9.369  1.00  0.00    -0.366 N
HETATM    4  C4  UNL     1     -24.482 -21.320  -9.962  1.00  0.00     0.091 A
HETATM    5  C3  UNL     1     -23.343 -20.945  -9.284  1.00  0.00     0.032 A
HETATM    6  C2  UNL     1     -23.359 -20.921  -7.909  1.00  0.00     0.007 A
HETATM    7  C15 UNL     1     -24.541 -21.282  -7.305  1.00  0.00     0.032 A
HETATM    8  C14 UNL     1     -25.663 -21.651  -8.005  1.00  0.00     0.091 A
BRANCH   6   9
HETATM    9  C1  UNL     1     -22.192 -20.535  -7.107  1.00  0.00     0.120 C
HETATM   10  N1  UNL     1     -22.147 -19.446  -6.422  1.00  0.00    -0.387 N
ATOM     11  H12 UNL     1     -21.337 -19.178  -5.865  1.00  0.00     0.157 HD
ATOM     12  H11 UNL     1     -22.973 -18.848  -6.459  1.00  0.00     0.157 HD
HETATM   13  N2  UNL     1     -21.049 -21.363  -7.055  1.00  0.00    -0.082 NA
ENDBRANCH   6   9
ENDBRANCH   2   3
ENDBRANCH   1   2
BRANCH   1  14
HETATM   14  C7  UNL     1     -27.532 -21.222 -12.358  1.00  0.00     0.129 C
BRANCH  14  15
HETATM   15  N4  UNL     1     -26.962 -19.900 -12.646  1.00  0.00    -0.366 N
HETATM   16  C8  UNL     1     -27.364 -18.786 -12.026  1.00  0.00     0.091 A
HETATM   17  C9  UNL     1     -26.841 -17.545 -12.286  1.00  0.00     0.030 A
HETATM   18  C10 UNL     1     -25.828 -17.432 -13.258  1.00  0.00    -0.016 A
HETATM   19  C12 UNL     1     -25.442 -18.599 -13.871  1.00  0.00     0.030 A
HETATM   20  C13 UNL     1     -26.000 -19.837 -13.575  1.00  0.00     0.091 A
BRANCH  18  21
HETATM   21  C11 UNL     1     -25.257 -16.150 -13.558  1.00  0.00     0.125 C
HETATM   22  N5  UNL     1     -24.085 -15.712 -13.442  1.00  0.00    -0.280 N
ATOM     23  H5  UNL     1     -23.949 -14.744 -13.734  1.00  0.00     0.193 HD
BRANCH  22  24
HETATM   24  O1  UNL     1     -22.994 -16.327 -12.993  1.00  0.00    -0.290 OA
ATOM     25  H1  UNL     1     -22.174 -15.955 -12.691  1.00  0.00     0.244 HD
ENDBRANCH  22  24
ENDBRANCH  18  21
ENDBRANCH  14  15
ENDBRANCH   1  14
TORSDOF 7
ENDMDL