MODEL 4
REMARK VINA RESULT: -6.707745751      1.916      4.885
REMARK  7 active torsions:
REMARK  status: ('A' for Active; 'I' for Inactive)
REMARK    1  A    between atoms: C3_3  and  N1_4
REMARK    2  A    between atoms: C5_9  and  C6_10
REMARK    3  A    between atoms: C5_9  and  N3_15
REMARK    4  A    between atoms: C6_10  and  C7_11
REMARK    5  A    between atoms: C7_11  and  C8_12
REMARK    6  A    between atoms: C8_12  and  C9_13
REMARK    7  A    between atoms: N3_15  and  C11_17
ROOT
HETATM    1  C1  UNL     1     -26.403 -15.962 -12.925  1.00  0.00     0.098 C
HETATM    2  C2  UNL     1     -26.988 -16.787 -12.236  1.00  0.00    -0.167 C
HETATM    3  C3  UNL     1     -27.664 -17.771 -11.404  1.00  0.00     0.216 C
ENDROOT
BRANCH   3   4
HETATM    4  N1  UNL     1     -26.715 -18.596 -10.654  1.00  0.00    -0.256 N
HETATM    5  C4  UNL     1     -26.623 -18.562  -9.228  1.00  0.00     0.328 C
HETATM    6  O1  UNL     1     -27.330 -17.834  -8.454  1.00  0.00    -0.247 OA
HETATM    7  N2  UNL     1     -25.603 -19.489  -8.879  1.00  0.00    -0.308 N
HETATM    8  C5  UNL     1     -24.772 -19.716 -10.037  1.00  0.00     0.192 C
ATOM      9  H2  UNL     1     -25.479 -19.921  -7.964  1.00  0.00     0.167 HD
HETATM   10  C14 UNL     1     -25.767 -19.526 -11.155  1.00  0.00     0.278 C
HETATM   11  O2  UNL     1     -25.790 -20.048 -12.283  1.00  0.00    -0.268 OA
BRANCH   8  12
HETATM   12  C6  UNL     1     -24.163 -21.087 -10.108  1.00  0.00     0.065 C
BRANCH  12  13
HETATM   13  C7  UNL     1     -23.898 -21.678  -8.734  1.00  0.00     0.008 C
BRANCH  13  14
HETATM   14  C8  UNL     1     -22.372 -21.642  -8.563  1.00  0.00     0.026 C
BRANCH  14  15
HETATM   15  C9  UNL     1     -21.956 -20.646  -7.567  1.00  0.00    -0.037 C
HETATM   16  C10 UNL     1     -22.700 -20.417  -6.499  1.00  0.00     0.007 C
ENDBRANCH  14  15
ENDBRANCH  13  14
ENDBRANCH  12  13
ENDBRANCH   8  12
BRANCH   8  17
HETATM   17  N3  UNL     1     -23.762 -18.716 -10.085  1.00  0.00    -0.341 N
ATOM     18  H3  UNL     1     -23.446 -18.346  -9.189  1.00  0.00     0.164 HD
BRANCH  17  19
HETATM   19  C11 UNL     1     -23.210 -18.233 -11.122  1.00  0.00     0.119 A
HETATM   20  C12 UNL     1     -23.111 -16.835 -11.349  1.00  0.00     0.068 A
HETATM   21  C13 UNL     1     -22.464 -16.701 -12.550  1.00  0.00     0.111 A
HETATM   22  N4  UNL     1     -22.185 -17.932 -13.027  1.00  0.00    -0.310 N
HETATM   23  N5  UNL     1     -22.634 -18.841 -12.168  1.00  0.00    -0.286 N
ATOM     24  H4  UNL     1     -21.706 -18.132 -13.905  1.00  0.00     0.186 HD
ATOM     25  H5  UNL     1     -22.554 -19.850 -12.287  1.00  0.00     0.188 HD
ENDBRANCH  17  19
ENDBRANCH   8  17
ENDBRANCH   3   4
TORSDOF 7
ENDMDL