MODEL 4
REMARK VINA RESULT: -6.638642514      2.196      3.686
REMARK  6 active torsions:
REMARK  status: ('A' for Active; 'I' for Inactive)
REMARK    1  A    between atoms: N1_2  and  C3_4
REMARK    2  A    between atoms: C3_4  and  C4_5
REMARK    3  A    between atoms: C4_5  and  C5_6
REMARK    4  A    between atoms: C5_6  and  C6_7
REMARK    5  A    between atoms: C6_7  and  C7_8
REMARK    6  A    between atoms: C12_13  and  C13_14
ROOT
HETATM    1  C7  UNL     1     -25.406 -16.646 -12.287  1.00  0.00    -0.048 A
HETATM    2  C8  UNL     1     -24.728 -15.649 -11.579  1.00  0.00     0.008 A
HETATM    3  C9  UNL     1     -23.359 -15.646 -11.475  1.00  0.00     0.001 A
HETATM    4  C10 UNL     1     -22.629 -16.646 -12.078  1.00  0.00     0.001 A
HETATM    5  C11 UNL     1     -23.260 -17.642 -12.780  1.00  0.00     0.012 A
HETATM    6  C12 UNL     1     -24.653 -17.630 -12.875  1.00  0.00    -0.028 A
ENDROOT
BRANCH   6   7
HETATM    7  C13 UNL     1     -25.249 -18.774 -13.600  1.00  0.00     0.047 C
HETATM    8  C14 UNL     1     -25.537 -19.908 -12.963  1.00  0.00     0.104 A
HETATM    9  N2  UNL     1     -26.114 -21.092 -13.529  1.00  0.00    -0.324 N
HETATM   10  C16 UNL     1     -25.307 -20.209 -11.558  1.00  0.00     0.275 A
HETATM   11  C15 UNL     1     -26.249 -22.095 -12.548  1.00  0.00     0.180 A
ATOM     12  H2  UNL     1     -26.389 -21.194 -14.505  1.00  0.00     0.169 HD
HETATM   13  N3  UNL     1     -26.743 -23.262 -12.799  1.00  0.00    -0.371 N
HETATM   14  N4  UNL     1     -25.756 -21.547 -11.358  1.00  0.00    -0.293 N
ATOM     15  H32 UNL     1     -27.102 -23.661 -13.666  1.00  0.00     0.159 HD
ATOM     16  H31 UNL     1     -26.840 -23.988 -12.089  1.00  0.00     0.159 HD
ATOM     17  H4  UNL     1     -25.722 -22.040 -10.465  1.00  0.00     0.172 HD
HETATM   18  O1  UNL     1     -24.819 -19.485 -10.662  1.00  0.00    -0.266 OA
ENDBRANCH   6   7
BRANCH   1  19
HETATM   19  C6  UNL     1     -26.871 -16.577 -12.417  1.00  0.00     0.039 C
BRANCH  19  20
HETATM   20  C5  UNL     1     -27.576 -17.266 -11.259  1.00  0.00     0.006 C
BRANCH  20  21
HETATM   21  C4  UNL     1     -28.661 -18.168 -11.816  1.00  0.00     0.030 C
BRANCH  21  22
HETATM   22  C3  UNL     1     -28.714 -19.388 -10.920  1.00  0.00     0.271 C
BRANCH  22  23
HETATM   23  N1  UNL     1     -28.712 -19.040  -9.505  1.00  0.00     0.080 N
HETATM   24  C1  UNL     1     -30.075 -19.063  -8.983  1.00  0.00     0.309 C
HETATM   25  C2  UNL     1     -27.911 -20.057  -8.818  1.00  0.00     0.309 C
ENDBRANCH  22  23
ENDBRANCH  21  22
ENDBRANCH  20  21
ENDBRANCH  19  20
ENDBRANCH   1  19
TORSDOF 6
ENDMDL