MODEL 5
REMARK VINA RESULT: -7.257857737      1.623      4.645
REMARK  8 active torsions:
REMARK  status: ('A' for Active; 'I' for Inactive)
REMARK    1  A    between atoms: C3_3  and  C4_4
REMARK    2  A    between atoms: C4_4  and  C5_5
REMARK    3  A    between atoms: C5_5  and  C6_6
REMARK    4  A    between atoms: C6_6  and  C7_7
REMARK    5  A    between atoms: C13_15  and  N2_16
REMARK    6  A    between atoms: N2_16  and  C14_18
REMARK    7  A    between atoms: C14_18  and  C15_19
REMARK    8  A    between atoms: C15_19  and  O1_20
ROOT
HETATM    1  C1  UNL     1     -24.933 -15.285 -12.038  1.00  0.00     0.056 C
HETATM    2  C2  UNL     1     -24.370 -16.541 -11.478  1.00  0.00     0.030 A
HETATM    3  C3  UNL     1     -25.147 -17.531 -10.931  1.00  0.00     0.038 A
HETATM    4  N1  UNL     1     -24.531 -18.626 -10.453  1.00  0.00    -0.195 N
ATOM      5  H1  UNL     1     -25.099 -19.368 -10.044  1.00  0.00     0.184 HD
HETATM    6  C13 UNL     1     -23.182 -18.784 -10.493  1.00  0.00     0.681 A
HETATM    7  N3  UNL     1     -22.387 -17.834 -11.023  1.00  0.00    -0.156 N
ATOM      8  H3  UNL     1     -21.374 -17.944 -11.058  1.00  0.00     0.187 HD
HETATM    9  C16 UNL     1     -22.993 -16.734 -11.503  1.00  0.00     0.267 A
HETATM   10  O2  UNL     1     -22.283 -15.818 -12.009  1.00  0.00    -0.267 OA
ENDROOT
BRANCH   3  11
HETATM   11  C4  UNL     1     -26.603 -17.404 -10.861  1.00  0.00     0.058 C
BRANCH  11  12
HETATM   12  C5  UNL     1     -27.296 -17.842 -12.138  1.00  0.00     0.011 C
BRANCH  12  13
HETATM   13  C6  UNL     1     -28.175 -19.027 -11.784  1.00  0.00     0.039 C
BRANCH  13  14
HETATM   14  C7  UNL     1     -27.460 -20.270 -12.180  1.00  0.00    -0.058 A
HETATM   15  C8  UNL     1     -27.687 -21.398 -11.422  1.00  0.00     0.007 A
HETATM   16  C9  UNL     1     -27.074 -22.605 -11.701  1.00  0.00     0.001 A
HETATM   17  C10 UNL     1     -26.220 -22.644 -12.776  1.00  0.00     0.000 A
HETATM   18  C11 UNL     1     -25.994 -21.529 -13.527  1.00  0.00     0.001 A
HETATM   19  C12 UNL     1     -26.603 -20.314 -13.255  1.00  0.00     0.007 A
ENDBRANCH  13  14
ENDBRANCH  12  13
ENDBRANCH  11  12
ENDBRANCH   3  11
BRANCH   6  20
HETATM   20  N2  UNL     1     -22.616 -19.844 -10.028  1.00  0.00    -0.224 N
ATOM     21  H2  UNL     1     -22.017 -20.372 -10.664  1.00  0.00     0.177 HD
BRANCH  20  22
HETATM   22  C14 UNL     1     -22.758 -20.341  -8.699  1.00  0.00     0.164 C
BRANCH  22  23
HETATM   23  C15 UNL     1     -21.913 -21.606  -8.502  1.00  0.00     0.184 C
BRANCH  23  24
HETATM   24  O1  UNL     1     -22.643 -22.710  -8.939  1.00  0.00    -0.399 OA
ATOM     25  H1  UNL     1     -22.077 -23.474  -8.940  1.00  0.00     0.209 HD
ENDBRANCH  23  24
ENDBRANCH  22  23
ENDBRANCH  20  22
ENDBRANCH   6  20
TORSDOF 8
ENDMDL