MODEL 4
REMARK VINA RESULT: -6.972273263      0.880      3.407
REMARK  8 active torsions:
REMARK  status: ('A' for Active; 'I' for Inactive)
REMARK    1  A    between atoms: C2_2  and  C3_3
REMARK    2  A    between atoms: C3_3  and  N1_4
REMARK    3  A    between atoms: N1_4  and  C4_6
REMARK    4  A    between atoms: C5_9  and  N3_10
REMARK    5  A    between atoms: C7_15  and  N5_16
REMARK    6  A    between atoms: N5_16  and  C8_18
REMARK    7  A    between atoms: C8_18  and  C9_19
REMARK    8  A    between atoms: C9_19  and  C10_20
ROOT
HETATM    1  C4  UNL     1     -24.232 -20.719 -10.831  1.00  0.00     0.707 A
HETATM    2  N2  UNL     1     -24.003 -21.279  -9.635  1.00  0.00    -0.022 N
ATOM      3  H2  UNL     1     -24.498 -22.127  -9.361  1.00  0.00     0.203 HD
HETATM    4  C5  UNL     1     -23.105 -20.707  -8.788  1.00  0.00     0.706 A
HETATM    5  N4  UNL     1     -22.441 -19.591  -9.125  1.00  0.00    -0.022 N
ATOM      6  H4  UNL     1     -21.770 -19.172  -8.482  1.00  0.00     0.203 HD
HETATM    7  C7  UNL     1     -22.674 -19.035 -10.326  1.00  0.00     0.707 A
HETATM    8  N6  UNL     1     -23.571 -19.603 -11.175  1.00  0.00    -0.022 N
ATOM      9  H6  UNL     1     -23.744 -19.176 -12.085  1.00  0.00     0.203 HD
ENDROOT
BRANCH   7  10
HETATM   10  N5  UNL     1     -22.089 -17.965 -10.742  1.00  0.00    -0.225 N
ATOM     11  H5  UNL     1     -21.308 -17.612 -10.189  1.00  0.00     0.177 HD
BRANCH  10  12
HETATM   12  C8  UNL     1     -22.448 -17.233 -11.918  1.00  0.00     0.142 C
BRANCH  12  13
HETATM   13  C9  UNL     1     -23.187 -15.984 -11.474  1.00  0.00     0.058 C
BRANCH  13  14
HETATM   14  C10 UNL     1     -24.597 -16.141 -11.917  1.00  0.00    -0.057 A
HETATM   15  C11 UNL     1     -25.010 -15.696 -13.164  1.00  0.00     0.007 A
HETATM   16  C12 UNL     1     -26.318 -15.841 -13.577  1.00  0.00     0.001 A
HETATM   17  C13 UNL     1     -27.270 -16.432 -12.773  1.00  0.00     0.000 A
HETATM   18  C14 UNL     1     -26.857 -16.874 -11.532  1.00  0.00     0.001 A
HETATM   19  C15 UNL     1     -25.551 -16.732 -11.115  1.00  0.00     0.007 A
ENDBRANCH  13  14
ENDBRANCH  12  13
ENDBRANCH  10  12
ENDBRANCH   7  10
BRANCH   4  20
HETATM   20  N3  UNL     1     -22.925 -21.294  -7.646  1.00  0.00    -0.229 N
HETATM   21  C6  UNL     1     -22.293 -20.532  -6.583  1.00  0.00     0.165 C
ATOM     22  H3  UNL     1     -23.219 -22.260  -7.498  1.00  0.00     0.177 HD
ENDBRANCH   4  20
BRANCH   1  23
HETATM   23  N1  UNL     1     -25.077 -21.252 -11.637  1.00  0.00    -0.222 N
ATOM     24  H1  UNL     1     -24.945 -22.211 -11.959  1.00  0.00     0.178 HD
BRANCH  23  25
HETATM   25  C3  UNL     1     -26.215 -20.481 -12.083  1.00  0.00     0.164 C
BRANCH  25  26
HETATM   26  C2  UNL     1     -26.250 -20.380 -13.559  1.00  0.00    -0.017 C
HETATM   27  C1  UNL     1     -25.592 -19.410 -14.198  1.00  0.00     0.008 C
ENDBRANCH  25  26
ENDBRANCH  23  25
ENDBRANCH   1  23
TORSDOF 8
ENDMDL