MODEL 4
REMARK VINA RESULT: -6.585551495      0.966      1.768
REMARK  8 active torsions:
REMARK  status: ('A' for Active; 'I' for Inactive)
REMARK    1  A    between atoms: N1_2  and  C3_4
REMARK    2  A    between atoms: C3_4  and  C4_5
REMARK    3  A    between atoms: C4_5  and  C5_6
REMARK    4  A    between atoms: C5_6  and  N2_7
REMARK    5  A    between atoms: N2_7  and  C6_9
REMARK    6  A    between atoms: C9_14  and  N4_15
REMARK    7  A    between atoms: N4_15  and  C10_17
REMARK    8  A    between atoms: C10_17  and  C11_18
ROOT
HETATM    1  C6  UNL     1     -23.972 -20.975  -9.937  1.00  0.00     0.118 A
HETATM    2  C7  UNL     1     -23.080 -21.431  -8.982  1.00  0.00     0.066 A
HETATM    3  C8  UNL     1     -21.925 -20.742  -8.676  1.00  0.00     0.110 A
HETATM    4  N3  UNL     1     -21.697 -19.586  -9.357  1.00  0.00    -0.202 N
ATOM      5  H3  UNL     1     -20.850 -19.058  -9.149  1.00  0.00     0.183 HD
HETATM    6  C9  UNL     1     -22.532 -19.112 -10.286  1.00  0.00     0.679 A
HETATM    7  N5  UNL     1     -23.658 -19.824 -10.555  1.00  0.00    -0.177 N
ATOM      8  H5  UNL     1     -24.298 -19.465 -11.264  1.00  0.00     0.185 HD
ENDROOT
BRANCH   6   9
HETATM    9  N4  UNL     1     -22.272 -18.015 -10.900  1.00  0.00    -0.222 N
ATOM     10  H4  UNL     1     -21.886 -17.238 -10.364  1.00  0.00     0.178 HD
BRANCH   9  11
HETATM   11  C10 UNL     1     -22.500 -17.831 -12.309  1.00  0.00     0.176 C
BRANCH  11  12
HETATM   12  C11 UNL     1     -23.755 -17.078 -12.529  1.00  0.00    -0.040 A
HETATM   13  C12 UNL     1     -24.617 -17.498 -13.514  1.00  0.00     0.009 A
HETATM   14  C13 UNL     1     -25.814 -16.823 -13.768  1.00  0.00     0.001 A
HETATM   15  C14 UNL     1     -26.110 -15.720 -13.001  1.00  0.00     0.000 A
HETATM   16  C15 UNL     1     -25.249 -15.293 -12.011  1.00  0.00     0.001 A
HETATM   17  C16 UNL     1     -24.068 -15.954 -11.755  1.00  0.00     0.009 A
ENDBRANCH  11  12
ENDBRANCH   9  11
ENDBRANCH   6   9
BRANCH   1  18
HETATM   18  N2  UNL     1     -25.048 -21.632 -10.211  1.00  0.00    -0.376 N
ATOM     19  H2  UNL     1     -25.096 -22.211 -11.050  1.00  0.00     0.161 HD
BRANCH  18  20
HETATM   20  C5  UNL     1     -26.188 -21.544  -9.324  1.00  0.00     0.123 C
BRANCH  20  21
HETATM   21  C4  UNL     1     -27.485 -21.401 -10.042  1.00  0.00     0.050 C
BRANCH  21  22
HETATM   22  C3  UNL     1     -27.313 -21.917 -11.446  1.00  0.00     0.273 C
BRANCH  22  23
HETATM   23  N1  UNL     1     -27.621 -20.906 -12.439  1.00  0.00     0.080 N
HETATM   24  C1  UNL     1     -26.526 -20.638 -13.317  1.00  0.00     0.309 C
HETATM   25  C2  UNL     1     -28.183 -19.710 -11.890  1.00  0.00     0.309 C
ENDBRANCH  22  23
ENDBRANCH  21  22
ENDBRANCH  20  21
ENDBRANCH  18  20
ENDBRANCH   1  18
TORSDOF 8
ENDMDL