MODEL 4
REMARK VINA RESULT: -6.311336184      2.494      5.664
REMARK  8 active torsions:
REMARK  status: ('A' for Active; 'I' for Inactive)
REMARK    1  A    between atoms: N2_7  and  C6_8
REMARK    2  A    between atoms: C6_8  and  C7_9
REMARK    3  A    between atoms: C7_9  and  C8_10
REMARK    4  A    between atoms: C8_10  and  C9_11
REMARK    5  A    between atoms: C12_14  and  C13_15
REMARK    6  A    between atoms: C13_15  and  C14_16
REMARK    7  A    between atoms: C14_16  and  N3_17
REMARK    8  A    between atoms: N4_23  and  N5_24
ROOT
HETATM    1  C7  UNL     1     -28.087 -17.784 -11.668  1.00  0.00     0.026 C
ENDROOT
BRANCH   1   2
HETATM    2  C6  UNL     1     -27.018 -17.757 -12.690  1.00  0.00     0.150 C
BRANCH   2   3
HETATM    3  N2  UNL     1     -25.806 -17.080 -12.273  1.00  0.00    -0.283 N
HETATM    4  C5  UNL     1     -25.815 -15.830 -11.788  1.00  0.00     0.114 A
HETATM    5  C4  UNL     1     -24.629 -15.252 -11.410  1.00  0.00     0.047 A
HETATM    6  C3  UNL     1     -23.438 -15.937 -11.523  1.00  0.00     0.073 A
HETATM    7  C2  UNL     1     -23.473 -17.218 -12.025  1.00  0.00     0.072 A
HETATM    8  N1  UNL     1     -22.204 -15.319 -11.124  1.00  0.00    -0.100 NA
HETATM    9  C1  UNL     1     -22.198 -17.976 -12.156  1.00  0.00     0.074 C
HETATM   10  N4  UNL     1     -24.669 -17.743 -12.384  1.00  0.00    -0.204 N
BRANCH  10  11
HETATM   11  N5  UNL     1     -24.635 -19.044 -12.885  1.00  0.00    -0.324 N
ATOM     12  H52 UNL     1     -24.290 -19.241 -13.825  1.00  0.00     0.178 HD
ATOM     13  H51 UNL     1     -24.974 -19.771 -12.256  1.00  0.00     0.178 HD
ENDBRANCH  10  11
ENDBRANCH   2   3
ENDBRANCH   1   2
BRANCH   1  14
HETATM   14  C8  UNL     1     -28.432 -19.167 -11.205  1.00  0.00     0.040 C
BRANCH  14  15
HETATM   15  C9  UNL     1     -27.276 -19.828 -10.559  1.00  0.00    -0.058 A
HETATM   16  C10 UNL     1     -26.901 -21.079 -10.978  1.00  0.00     0.007 A
HETATM   17  C11 UNL     1     -25.812 -21.728 -10.384  1.00  0.00     0.007 A
HETATM   18  C12 UNL     1     -25.099 -21.128  -9.374  1.00  0.00    -0.057 A
HETATM   19  C15 UNL     1     -25.498 -19.878  -8.977  1.00  0.00     0.007 A
HETATM   20  C16 UNL     1     -26.565 -19.228  -9.549  1.00  0.00     0.007 A
BRANCH  18  21
HETATM   21  C13 UNL     1     -23.945 -21.763  -8.714  1.00  0.00     0.065 C
BRANCH  21  22
HETATM   22  C14 UNL     1     -22.776 -20.787  -8.745  1.00  0.00     0.234 C
BRANCH  22  23
HETATM   23  N3  UNL     1     -21.558 -21.475  -9.039  1.00  0.00    -0.079 N
ATOM     24  H33 UNL     1     -21.588 -22.448  -8.735  1.00  0.00     0.274 HD
ATOM     25  H32 UNL     1     -21.443 -21.632 -10.040  1.00  0.00     0.274 HD
ATOM     26  H31 UNL     1     -20.762 -20.978  -8.640  1.00  0.00     0.274 HD
ENDBRANCH  22  23
ENDBRANCH  21  22
ENDBRANCH  18  21
ENDBRANCH  14  15
ENDBRANCH   1  14
TORSDOF 8
ENDMDL