MODEL 5
REMARK VINA RESULT: -6.253897020      1.883      4.277
REMARK  8 active torsions:
REMARK  status: ('A' for Active; 'I' for Inactive)
REMARK    1  A    between atoms: C3_3  and  C4_4
REMARK    2  A    between atoms: C4_4  and  N1_5
REMARK    3  A    between atoms: N1_5  and  C5_7
REMARK    4  A    between atoms: C8_12  and  N3_13
REMARK    5  A    between atoms: N3_13  and  C9_15
REMARK    6  A    between atoms: C9_15  and  C10_16
REMARK    7  A    between atoms: C10_16  and  C11_17
REMARK    8  A    between atoms: C11_17  and  N4_18
ROOT
HETATM    1  C1  UNL     1     -26.292 -15.781 -13.070  1.00  0.00     0.012 C
HETATM    2  C2  UNL     1     -25.903 -16.635 -13.826  1.00  0.00    -0.116 C
HETATM    3  C3  UNL     1     -25.405 -17.679 -14.738  1.00  0.00     0.113 C
ENDROOT
BRANCH   3   4
HETATM    4  C4  UNL     1     -24.925 -18.858 -13.901  1.00  0.00     0.150 C
BRANCH   4   5
HETATM    5  N1  UNL     1     -25.867 -19.936 -14.058  1.00  0.00    -0.225 N
ATOM      6  H1  UNL     1     -26.321 -20.059 -14.963  1.00  0.00     0.177 HD
BRANCH   5   7
HETATM    7  C5  UNL     1     -26.160 -20.756 -13.102  1.00  0.00     0.679 A
HETATM    8  N2  UNL     1     -26.634 -21.999 -13.313  1.00  0.00    -0.202 N
HETATM    9  C6  UNL     1     -26.925 -22.814 -12.275  1.00  0.00     0.110 A
ATOM     10  H2  UNL     1     -26.774 -22.330 -14.268  1.00  0.00     0.183 HD
HETATM   11  C7  UNL     1     -26.747 -22.406 -10.969  1.00  0.00     0.066 A
HETATM   12  C8  UNL     1     -26.264 -21.138 -10.765  1.00  0.00     0.118 A
HETATM   13  N6  UNL     1     -25.993 -20.373 -11.830  1.00  0.00    -0.177 N
ATOM     14  H6  UNL     1     -25.633 -19.433 -11.661  1.00  0.00     0.185 HD
BRANCH  12  15
HETATM   15  N3  UNL     1     -26.088 -20.731  -9.547  1.00  0.00    -0.376 N
ATOM     16  H3  UNL     1     -26.407 -19.808  -9.250  1.00  0.00     0.161 HD
BRANCH  15  17
HETATM   17  C9  UNL     1     -25.428 -21.624  -8.627  1.00  0.00     0.123 C
BRANCH  17  18
HETATM   18  C10 UNL     1     -23.939 -21.472  -8.781  1.00  0.00     0.039 C
BRANCH  18  19
HETATM   19  C11 UNL     1     -23.590 -20.041  -8.999  1.00  0.00     0.122 C
BRANCH  19  20
HETATM   20  N4  UNL     1     -22.597 -19.885 -10.034  1.00  0.00    -0.380 N
HETATM   21  C12 UNL     1     -22.688 -18.862 -10.810  1.00  0.00     0.072 C
HETATM   22  C13 UNL     1     -23.711 -17.787 -10.780  1.00  0.00     0.077 C
HETATM   23  N5  UNL     1     -21.786 -18.556 -11.889  1.00  0.00    -0.380 N
HETATM   24  C14 UNL     1     -22.989 -16.646 -11.467  1.00  0.00     0.027 C
HETATM   25  C15 UNL     1     -22.292 -17.393 -12.606  1.00  0.00     0.121 C
ATOM     26  H5  UNL     1     -20.934 -19.070 -12.115  1.00  0.00     0.160 HD
ATOM     27  H4  UNL     1     -21.846 -20.565 -10.148  1.00  0.00     0.160 HD
ENDBRANCH  19  20
ENDBRANCH  18  19
ENDBRANCH  17  18
ENDBRANCH  15  17
ENDBRANCH  12  15
ENDBRANCH   5   7
ENDBRANCH   4   5
ENDBRANCH   3   4
TORSDOF 8
ENDMDL