MODEL 2
REMARK VINA RESULT: -7.162228852      2.985      5.145
REMARK  11 active torsions:
REMARK  status: ('A' for Active; 'I' for Inactive)
REMARK    1  A    between atoms: O1_2  and  C2_3
REMARK    2  A    between atoms: C2_3  and  C3_4
REMARK    3  A    between atoms: C3_4  and  O2_5
REMARK    4  A    between atoms: O2_5  and  C4_6
REMARK    5  A    between atoms: C4_6  and  C5_7
REMARK    6  A    between atoms: C7_9  and  O3_10
REMARK    7  A    between atoms: C9_12  and  O4_13
REMARK    8  A    between atoms: O4_13  and  C10_14
REMARK    9  A    between atoms: C10_14  and  C11_15
REMARK   10  A    between atoms: C19_23  and  N1_24
REMARK   11  A    between atoms: C20_29  and  N3_30
ROOT
HETATM    1  C5  UNL     1     209.576  72.005-124.139  1.00  0.00    -0.004 C
HETATM    2  C6  UNL     1     209.247  73.385-123.814  1.00  0.00     0.051 C
HETATM    3  C7  UNL     1     208.027  73.885-123.763  1.00  0.00     0.102 C
HETATM    4  C9  UNL     1     206.895  73.610-124.660  1.00  0.00     0.103 C
HETATM    5  C17 UNL     1     206.596  72.366-125.185  1.00  0.00     0.057 C
HETATM    6  C18 UNL     1     207.280  71.185-124.757  1.00  0.00     0.039 A
HETATM    7  C19 UNL     1     206.434  70.087-124.686  1.00  0.00     0.127 A
HETATM    8  N2  UNL     1     206.880  69.030-124.092  1.00  0.00    -0.176 N
ATOM      9  H2  UNL     1     206.244  68.233-124.049  1.00  0.00     0.186 HD
HETATM   10  C20 UNL     1     208.114  68.859-123.512  1.00  0.00     0.677 A
HETATM   11  N4  UNL     1     208.970  69.856-123.557  1.00  0.00    -0.191 N
ATOM     12  H4  UNL     1     209.898  69.754-123.147  1.00  0.00     0.184 HD
HETATM   13  C21 UNL     1     208.603  71.048-124.165  1.00  0.00     0.071 A
ENDROOT
BRANCH   4  14
HETATM   14  O4  UNL     1     206.287  74.734-124.819  1.00  0.00    -0.344 OA
BRANCH  14  15
HETATM   15  C10 UNL     1     205.661  75.879-124.996  1.00  0.00     0.214 C
BRANCH  15  16
HETATM   16  C11 UNL     1     204.364  75.837-125.676  1.00  0.00    -0.034 A
HETATM   17  C12 UNL     1     203.590  76.994-125.706  1.00  0.00     0.009 A
HETATM   18  C13 UNL     1     202.390  77.115-126.334  1.00  0.00     0.001 A
HETATM   19  C14 UNL     1     201.869  75.974-127.025  1.00  0.00     0.000 A
HETATM   20  C15 UNL     1     202.614  74.836-126.991  1.00  0.00     0.001 A
HETATM   21  C16 UNL     1     203.820  74.737-126.343  1.00  0.00     0.009 A
ENDBRANCH  15  16
ENDBRANCH  14  15
ENDBRANCH   4  14
BRANCH   3  22
HETATM   22  O3  UNL     1     207.416  74.734-122.815  1.00  0.00    -0.353 OA
HETATM   23  C8  UNL     1     207.189  74.158-121.585  1.00  0.00     0.210 C
ENDBRANCH   3  22
BRANCH   1  24
HETATM   24  C4  UNL     1     210.977  71.591-124.108  1.00  0.00     0.208 C
BRANCH  24  25
HETATM   25  O2  UNL     1     211.430  71.046-125.265  1.00  0.00    -0.385 OA
BRANCH  25  26
HETATM   26  C3  UNL     1     211.135  71.521-126.501  1.00  0.00     0.194 C
BRANCH  26  27
HETATM   27  C2  UNL     1     210.599  70.368-127.334  1.00  0.00     0.193 C
BRANCH  27  28
HETATM   28  O1  UNL     1     210.004  69.370-126.635  1.00  0.00    -0.394 OA
HETATM   29  C1  UNL     1     208.833  68.982-127.368  1.00  0.00     0.201 C
ENDBRANCH  27  28
ENDBRANCH  26  27
ENDBRANCH  25  26
ENDBRANCH  24  25
ENDBRANCH   1  24
BRANCH   7  30
HETATM   30  N1  UNL     1     205.199  70.242-125.090  1.00  0.00    -0.384 N
ATOM     31  H12 UNL     1     204.838  71.092-125.523  1.00  0.00     0.157 HD
ATOM     32  H11 UNL     1     204.590  69.424-125.079  1.00  0.00     0.157 HD
ENDBRANCH   7  30
BRANCH  10  33
HETATM   33  N3  UNL     1     208.240  67.630-123.030  1.00  0.00    -0.234 N
ATOM     34  H32 UNL     1     207.538  66.973-122.688  1.00  0.00     0.174 HD
ATOM     35  H31 UNL     1     209.223  67.362-122.975  1.00  0.00     0.174 HD
ENDBRANCH  10  33
TORSDOF 11
ENDMDL