MODEL 2
REMARK VINA RESULT: -7.083002992      1.200      1.815
REMARK  8 active torsions:
REMARK  status: ('A' for Active; 'I' for Inactive)
REMARK    1  A    between atoms: C6_8  and  O2_9
REMARK    2  A    between atoms: O2_9  and  C7_10
REMARK    3  A    between atoms: C7_10  and  C8_11
REMARK    4  A    between atoms: C8_11  and  C9_12
REMARK    5  A    between atoms: C9_12  and  N2_13
REMARK    6  A    between atoms: N2_13  and  C10_15
REMARK    7  A    between atoms: C13_18  and  N3_19
REMARK       I    between atoms: C14_21  and  N5_23
REMARK    8  A    between atoms: C19_30  and  O3_31
ROOT
HETATM    1  C1  UNL     1     208.048  68.817-126.675  1.00  0.00     0.210 C
HETATM    2  O1  UNL     1     207.343  69.863-126.791  1.00  0.00    -0.353 OA
HETATM    3  C2  UNL     1     206.557  70.872-126.864  1.00  0.00     0.103 A
HETATM    4  C3  UNL     1     205.220  70.757-126.318  1.00  0.00     0.065 A
HETATM    5  C4  UNL     1     204.364  71.806-126.378  1.00  0.00     0.080 A
HETATM    6  C5  UNL     1     203.008  71.656-125.840  1.00  0.00     0.102 C
HETATM    7  N1  UNL     1     201.952  71.512-125.404  1.00  0.00    -0.191 NA
HETATM    8  C6  UNL     1     204.767  73.015-126.959  1.00  0.00     0.092 A
HETATM    9  C18 UNL     1     206.070  73.080-127.469  1.00  0.00     0.077 A
HETATM   10  C19 UNL     1     206.962  72.060-127.444  1.00  0.00     0.104 A
ENDROOT
BRANCH  10  11
HETATM   11  O3  UNL     1     208.223  72.183-127.991  1.00  0.00    -0.353 OA
HETATM   12  C20 UNL     1     208.633  73.104-128.926  1.00  0.00     0.210 C
ENDBRANCH  10  11
BRANCH   8  13
HETATM   13  O2  UNL     1     203.951  74.034-127.021  1.00  0.00    -0.349 OA
BRANCH  13  14
HETATM   14  C7  UNL     1     203.153  74.957-126.755  1.00  0.00     0.177 C
BRANCH  14  15
HETATM   15  C8  UNL     1     203.391  76.361-126.345  1.00  0.00     0.046 C
BRANCH  15  16
HETATM   16  C9  UNL     1     204.440  76.656-125.320  1.00  0.00     0.122 C
BRANCH  16  17
HETATM   17  N2  UNL     1     204.434  75.717-124.255  1.00  0.00    -0.390 N
ATOM     18  H2  UNL     1     203.606  75.694-123.658  1.00  0.00     0.159 HD
BRANCH  17  19
HETATM   19  C10 UNL     1     205.468  74.817-123.953  1.00  0.00     0.028 A
HETATM   20  C11 UNL     1     206.793  75.035-124.318  1.00  0.00     0.031 A
HETATM   21  C12 UNL     1     207.772  74.093-124.072  1.00  0.00     0.032 A
HETATM   22  C13 UNL     1     207.488  72.898-123.450  1.00  0.00     0.034 A
HETATM   23  C16 UNL     1     206.167  72.703-123.088  1.00  0.00     0.032 A
HETATM   24  C17 UNL     1     205.176  73.605-123.317  1.00  0.00     0.031 A
BRANCH  22  25
HETATM   25  N3  UNL     1     208.446  71.890-123.280  1.00  0.00    -0.330 N
HETATM   26  C14 UNL     1     209.288  71.373-124.011  1.00  0.00     0.201 C
HETATM   27  N4  UNL     1     210.082  70.296-123.346  1.00  0.00    -0.062 NA
HETATM   28  N5  UNL     1     209.621  71.634-125.331  1.00  0.00    -0.267 N
HETATM   29  C15 UNL     1     210.875  71.464-125.903  1.00  0.00     0.184 C
ATOM     30  H5  UNL     1     208.877  71.983-125.937  1.00  0.00     0.180 HD
HETATM   31  N6  UNL     1     211.922  71.348-126.390  1.00  0.00    -0.172 NA
ATOM     32  H3  UNL     1     208.443  71.496-122.340  1.00  0.00     0.168 HD
ENDBRANCH  22  25
ENDBRANCH  17  19
ENDBRANCH  16  17
ENDBRANCH  15  16
ENDBRANCH  14  15
ENDBRANCH  13  14
ENDBRANCH   8  13
TORSDOF 8
ENDMDL