MODEL 3
REMARK VINA RESULT: -7.786741316      1.922      3.807
REMARK  11 active torsions:
REMARK  status: ('A' for Active; 'I' for Inactive)
REMARK    1  A    between atoms: C3_4  and  C4_5
REMARK    2  A    between atoms: C4_5  and  N1_6
REMARK    3  A    between atoms: N1_6  and  C5_8
REMARK    4  A    between atoms: C6_11  and  N3_12
REMARK    5  A    between atoms: C11_19  and  N5_20
REMARK    6  A    between atoms: N5_20  and  C12_22
REMARK    7  A    between atoms: C12_22  and  C13_23
REMARK    8  A    between atoms: C13_23  and  C14_24
REMARK    9  A    between atoms: C14_24  and  N6_25
REMARK   10  A    between atoms: N6_25  and  C15_28
REMARK   11  A    between atoms: C15_28  and  C16_29
ROOT
HETATM    1  C5  UNL     1     204.982  70.755-125.508  1.00  0.00     0.707 A
HETATM    2  N2  UNL     1     205.854  71.519-124.787  1.00  0.00    -0.021 N
ATOM      3  H2  UNL     1     206.726  71.104-124.461  1.00  0.00     0.203 HD
HETATM    4  C6  UNL     1     205.591  72.802-124.497  1.00  0.00     0.709 A
HETATM    5  N4  UNL     1     204.434  73.307-124.945  1.00  0.00    -0.021 N
ATOM      6  H4  UNL     1     204.226  74.283-124.729  1.00  0.00     0.203 HD
HETATM    7  C11 UNL     1     203.525  72.615-125.661  1.00  0.00     0.707 A
HETATM    8  N7  UNL     1     203.834  71.333-125.926  1.00  0.00    -0.022 N
ATOM      9  H7  UNL     1     203.173  70.772-126.465  1.00  0.00     0.203 HD
ENDROOT
BRANCH   7  10
HETATM   10  N5  UNL     1     202.450  73.208-126.034  1.00  0.00    -0.225 N
ATOM     11  H5  UNL     1     201.620  73.088-125.453  1.00  0.00     0.177 HD
BRANCH  10  12
HETATM   12  C12 UNL     1     202.328  74.029-127.207  1.00  0.00     0.139 C
BRANCH  12  13
HETATM   13  C13 UNL     1     202.833  75.427-126.828  1.00  0.00     0.048 C
BRANCH  13  14
HETATM   14  C14 UNL     1     201.782  76.411-127.275  1.00  0.00     0.234 C
BRANCH  14  15
HETATM   15  N6  UNL     1     201.633  76.378-128.693  1.00  0.00    -0.069 N
ATOM     16  H62 UNL     1     202.155  77.143-129.121  1.00  0.00     0.277 HD
ATOM     17  H61 UNL     1     202.135  75.581-129.084  1.00  0.00     0.277 HD
BRANCH  15  18
HETATM   18  C15 UNL     1     200.279  76.385-129.150  1.00  0.00     0.296 C
BRANCH  18  19
HETATM   19  C16 UNL     1     200.154  77.136-130.426  1.00  0.00     0.078 A
HETATM   20  C17 UNL     1     199.287  76.877-131.464  1.00  0.00     0.036 A
HETATM   21  C18 UNL     1     199.562  77.849-132.407  1.00  0.00     0.027 A
HETATM   22  C19 UNL     1     200.572  78.646-131.908  1.00  0.00     0.142 A
HETATM   23  O2  UNL     1     200.883  78.179-130.734  1.00  0.00    -0.325 OA
ENDBRANCH  18  19
ENDBRANCH  15  18
ENDBRANCH  14  15
ENDBRANCH  13  14
ENDBRANCH  12  13
ENDBRANCH  10  12
ENDBRANCH   7  10
BRANCH   4  24
HETATM   24  N3  UNL     1     206.522  73.577-123.738  1.00  0.00    -0.217 N
HETATM   25  C7  UNL     1     207.950  73.439-123.787  1.00  0.00     0.141 C
HETATM   26  C8  UNL     1     208.473  74.606-122.987  1.00  0.00     0.022 C
HETATM   27  C9  UNL     1     207.379  74.815-121.956  1.00  0.00     0.022 C
HETATM   28  C10 UNL     1     206.139  74.619-122.806  1.00  0.00     0.141 C
ENDBRANCH   4  24
BRANCH   1  29
HETATM   29  N1  UNL     1     205.273  69.544-125.760  1.00  0.00    -0.219 N
ATOM     30  H1  UNL     1     204.504  68.881-125.665  1.00  0.00     0.178 HD
BRANCH  29  31
HETATM   31  C4  UNL     1     206.515  68.982-126.156  1.00  0.00     0.203 C
BRANCH  31  32
HETATM   32  C3  UNL     1     207.300  68.507-124.954  1.00  0.00     0.070 A
HETATM   33  O1  UNL     1     206.990  68.629-123.696  1.00  0.00    -0.325 OA
HETATM   34  C2  UNL     1     207.907  68.099-122.927  1.00  0.00     0.142 A
HETATM   35  C1  UNL     1     208.922  67.574-123.730  1.00  0.00     0.027 A
HETATM   36  C20 UNL     1     208.518  67.843-125.017  1.00  0.00     0.036 A
ENDBRANCH  31  32
ENDBRANCH  29  31
ENDBRANCH   1  29
TORSDOF 11
ENDMDL