MODEL 1
REMARK VINA RESULT: -8.040480133      0.000      0.000
REMARK  10 active torsions:
REMARK  status: ('A' for Active; 'I' for Inactive)
REMARK    1  A    between atoms: N1_1  and  N2_4
REMARK    2  A    between atoms: N2_4  and  C1_5
REMARK    3  A    between atoms: C1_5  and  C2_6
REMARK    4  A    between atoms: C2_6  and  N3_7
REMARK    5  A    between atoms: C3_9  and  C4_10
REMARK    6  A    between atoms: C8_16  and  C9_17
REMARK    7  A    between atoms: C9_17  and  C10_18
REMARK    8  A    between atoms: C10_18  and  C11_19
REMARK    9  A    between atoms: N5_25  and  C17_26
REMARK   10  A    between atoms: C17_26  and  C18_27
ROOT
HETATM    1  C4  UNL     1     202.696  75.398-126.803  1.00  0.00     0.049 A
HETATM    2  C5  UNL     1     203.166  76.659-126.579  1.00  0.00     0.033 A
HETATM    3  C6  UNL     1     204.161  76.854-125.645  1.00  0.00     0.036 A
HETATM    4  C7  UNL     1     204.654  75.763-124.962  1.00  0.00     0.078 A
HETATM    5  N4  UNL     1     205.588  75.595-124.013  1.00  0.00    -0.343 N
ATOM      6  H4  UNL     1     206.148  76.344-123.604  1.00  0.00     0.167 HD
HETATM    7  C8  UNL     1     205.680  74.270-123.672  1.00  0.00     0.086 A
HETATM    8  N5  UNL     1     204.797  73.601-124.413  1.00  0.00    -0.315 N
HETATM    9  C23 UNL     1     204.148  74.510-125.223  1.00  0.00     0.137 A
HETATM   10  N7  UNL     1     203.183  74.314-126.127  1.00  0.00    -0.339 N
ATOM     11  H7  UNL     1     202.819  73.379-126.308  1.00  0.00     0.167 HD
ENDROOT
BRANCH   1  12
HETATM   12  C3  UNL     1     201.652  75.119-127.769  1.00  0.00     0.112 C
HETATM   13  N3  UNL     1     201.353  75.751-128.775  1.00  0.00    -0.396 N
ATOM     14  H3  UNL     1     200.571  75.270-129.220  1.00  0.00     0.159 HD
BRANCH  13  15
HETATM   15  C2  UNL     1     201.656  76.847-129.537  1.00  0.00     0.137 C
BRANCH  15  16
HETATM   16  C1  UNL     1     200.501  77.081-130.546  1.00  0.00     0.153 C
BRANCH  16  17
HETATM   17  N2  UNL     1     199.394  77.600-129.769  1.00  0.00    -0.147 NA
BRANCH  17  18
HETATM   18  N1  UNL     1     198.299  77.748-130.633  1.00  0.00    -0.348 N
ATOM     19  H12 UNL     1     198.255  78.388-131.426  1.00  0.00     0.172 HD
ATOM     20  H11 UNL     1     197.570  77.106-130.323  1.00  0.00     0.172 HD
ENDBRANCH  17  18
ENDBRANCH  16  17
ENDBRANCH  15  16
ENDBRANCH  13  15
ENDBRANCH   1  12
BRANCH   8  21
HETATM   21  C17 UNL     1     204.501  72.199-124.389  1.00  0.00     0.189 C
BRANCH  21  22
HETATM   22  C18 UNL     1     205.422  71.329-125.136  1.00  0.00     0.027 A
HETATM   23  C19 UNL     1     206.346  71.817-126.061  1.00  0.00     0.027 A
HETATM   24  C20 UNL     1     207.197  71.002-126.781  1.00  0.00     0.003 A
HETATM   25  C21 UNL     1     207.141  69.650-126.587  1.00  0.00     0.017 A
HETATM   26  C22 UNL     1     206.233  69.160-125.678  1.00  0.00     0.088 A
HETATM   27  N6  UNL     1     205.429  69.987-125.002  1.00  0.00    -0.368 N
ATOM     28  H6  UNL     1     204.775  69.574-124.339  1.00  0.00     0.165 HD
ENDBRANCH  21  22
ENDBRANCH   8  21
BRANCH   7  29
HETATM   29  C9  UNL     1     206.575  73.761-122.624  1.00  0.00     0.081 C
BRANCH  29  30
HETATM   30  C10 UNL     1     208.026  73.700-122.991  1.00  0.00     0.046 C
BRANCH  30  31
HETATM   31  C11 UNL     1     208.370  72.255-123.072  1.00  0.00    -0.058 A
HETATM   32  C12 UNL     1     209.408  71.781-123.834  1.00  0.00     0.007 A
HETATM   33  C13 UNL     1     209.731  70.438-123.912  1.00  0.00     0.001 A
HETATM   34  C14 UNL     1     208.946  69.565-123.172  1.00  0.00     0.000 A
HETATM   35  C15 UNL     1     207.895  69.987-122.392  1.00  0.00     0.001 A
HETATM   36  C16 UNL     1     207.623  71.346-122.357  1.00  0.00     0.007 A
ENDBRANCH  30  31
ENDBRANCH  29  30
ENDBRANCH   7  29
TORSDOF 10
ENDMDL