MODEL 1
REMARK VINA RESULT: -7.989150924      0.000      0.000
REMARK  11 active torsions:
REMARK  status: ('A' for Active; 'I' for Inactive)
REMARK    1  A    between atoms: C5_5  and  O1_6
REMARK    2  A    between atoms: O1_6  and  C6_7
REMARK    3  A    between atoms: C6_7  and  C7_8
REMARK    4  A    between atoms: C7_8  and  N1_9
REMARK    5  A    between atoms: N1_9  and  C8_10
REMARK    6  A    between atoms: N1_9  and  C12_20
REMARK    7  A    between atoms: C8_10  and  C9_11
REMARK    8  A    between atoms: C9_11  and  C10_12
REMARK    9  A    between atoms: N2_13  and  N3_15
REMARK   10  A    between atoms: C16_24  and  O2_25
REMARK   11  A    between atoms: C17_27  and  N6_28
ROOT
HETATM    1  N1  UNL     1     205.492  74.442-124.684  1.00  0.00    -0.376 N
ENDROOT
BRANCH   1   2
HETATM    2  C7  UNL     1     206.888  74.508-125.037  1.00  0.00     0.149 C
BRANCH   2   3
HETATM    3  C6  UNL     1     207.904  74.227-124.024  1.00  0.00     0.195 C
BRANCH   3   4
HETATM    4  O1  UNL     1     208.481  73.112-123.666  1.00  0.00    -0.350 OA
BRANCH   4   5
HETATM    5  C5  UNL     1     208.452  71.800-123.515  1.00  0.00     0.068 A
HETATM    6  C4  UNL     1     208.991  71.027-124.565  1.00  0.00     0.037 A
HETATM    7  C3  UNL     1     209.007  69.667-124.512  1.00  0.00     0.009 A
HETATM    8  C2  UNL     1     208.499  68.983-123.432  1.00  0.00    -0.062 A
HETATM    9  C1  UNL     1     208.540  67.509-123.446  1.00  0.00     0.048 C
HETATM   10  C19 UNL     1     207.975  69.727-122.408  1.00  0.00     0.009 A
HETATM   11  C18 UNL     1     207.945  71.096-122.434  1.00  0.00     0.037 A
ENDBRANCH   4   5
ENDBRANCH   3   4
ENDBRANCH   2   3
ENDBRANCH   1   2
BRANCH   1  12
HETATM   12  C8  UNL     1     205.130  73.819-123.400  1.00  0.00     0.128 C
BRANCH  12  13
HETATM   13  C9  UNL     1     204.456  72.522-123.597  1.00  0.00     0.066 C
BRANCH  13  14
HETATM   14  C10 UNL     1     205.329  71.588-124.406  1.00  0.00     0.081 C
HETATM   15  N2  UNL     1     204.830  70.669-125.107  1.00  0.00    -0.314 N
ATOM     16  H2  UNL     1     203.812  70.614-125.084  1.00  0.00     0.185 HD
BRANCH  15  17
HETATM   17  N3  UNL     1     205.422  69.760-125.871  1.00  0.00    -0.277 N
HETATM   18  C11 UNL     1     205.124  68.674-126.424  1.00  0.00     0.215 C
HETATM   19  N4  UNL     1     206.089  67.936-127.218  1.00  0.00    -0.065 NA
HETATM   20  N5  UNL     1     203.839  68.078-126.327  1.00  0.00    -0.065 NA
ATOM     21  H3  UNL     1     206.390  70.017-126.063  1.00  0.00     0.189 HD
ENDBRANCH  15  17
ENDBRANCH  13  14
ENDBRANCH  12  13
ENDBRANCH   1  12
BRANCH   1  22
HETATM   22  C12 UNL     1     204.497  75.082-125.420  1.00  0.00     0.066 A
HETATM   23  C13 UNL     1     204.315  76.459-125.058  1.00  0.00     0.032 A
HETATM   24  C14 UNL     1     203.405  77.273-125.662  1.00  0.00     0.005 A
HETATM   25  C15 UNL     1     202.613  76.768-126.671  1.00  0.00     0.039 A
HETATM   26  C16 UNL     1     202.744  75.463-127.056  1.00  0.00     0.101 A
HETATM   27  C17 UNL     1     203.692  74.663-126.407  1.00  0.00     0.162 A
BRANCH  26  28
HETATM   28  O2  UNL     1     201.937  74.988-128.069  1.00  0.00    -0.358 OA
ATOM     29  H2  UNL     1     201.701  75.577-128.777  1.00  0.00     0.217 HD
ENDBRANCH  26  28
BRANCH  27  30
HETATM   30  N6  UNL     1     203.693  73.331-126.866  1.00  0.00    -0.110 N
HETATM   31  O3  UNL     1     204.635  72.906-127.532  1.00  0.00    -0.532 OA
HETATM   32  O4  UNL     1     202.630  72.498-126.659  1.00  0.00    -0.532 OA
ENDBRANCH  27  30
ENDBRANCH   1  22
TORSDOF 11
ENDMDL