MODEL 5
REMARK VINA RESULT: -8.272779792      4.672     10.206
REMARK  11 active torsions:
REMARK  status: ('A' for Active; 'I' for Inactive)
REMARK    1  A    between atoms: C1_4  and  C2_5
REMARK    2  A    between atoms: N2_8  and  C5_9
REMARK    3  A    between atoms: C5_9  and  C6_10
REMARK    4  A    between atoms: C6_10  and  C7_11
REMARK    5  A    between atoms: C6_10  and  O2_32
REMARK    6  A    between atoms: C7_11  and  O1_12
REMARK    7  A    between atoms: O1_12  and  C8_13
REMARK    8  A    between atoms: C11_16  and  C12_17
REMARK    9  A    between atoms: N3_18  and  N4_20
REMARK   10  A    between atoms: N4_20  and  C13_22
REMARK   11  A    between atoms: O2_32  and  O3_33
ROOT
HETATM    1  C8  UNL     1     206.820  70.144-126.097  1.00  0.00     0.068 A
HETATM    2  C9  UNL     1     205.664  70.344-125.368  1.00  0.00     0.037 A
HETATM    3  C10 UNL     1     204.987  71.545-125.448  1.00  0.00     0.015 A
HETATM    4  C11 UNL     1     205.419  72.586-126.241  1.00  0.00    -0.019 A
HETATM    5  C17 UNL     1     206.581  72.379-126.970  1.00  0.00     0.015 A
HETATM    6  C18 UNL     1     207.259  71.182-126.894  1.00  0.00     0.037 A
ENDROOT
BRANCH   1   7
HETATM    7  O1  UNL     1     207.491  68.929-126.006  1.00  0.00    -0.348 OA
BRANCH   7   8
HETATM    8  C7  UNL     1     208.793  68.951-125.451  1.00  0.00     0.212 C
BRANCH   8   9
HETATM    9  C6  UNL     1     208.680  68.864-123.953  1.00  0.00     0.202 C
BRANCH   9  10
HETATM   10  C5  UNL     1     209.325  70.028-123.254  1.00  0.00     0.165 C
BRANCH  10  11
HETATM   11  N2  UNL     1     208.481  71.161-123.105  1.00  0.00    -0.364 N
HETATM   12  C4  UNL     1     207.397  71.136-122.320  1.00  0.00     0.091 A
HETATM   13  C3  UNL     1     206.579  72.267-122.187  1.00  0.00     0.030 A
HETATM   14  C2  UNL     1     206.880  73.425-122.863  1.00  0.00    -0.019 A
HETATM   15  C20 UNL     1     207.998  73.432-123.665  1.00  0.00     0.030 A
HETATM   16  C19 UNL     1     208.760  72.298-123.756  1.00  0.00     0.091 A
BRANCH  14  17
HETATM   17  C1  UNL     1     206.044  74.611-122.738  1.00  0.00     0.092 C
HETATM   18  N1  UNL     1     204.763  74.597-122.706  1.00  0.00    -0.407 N
ATOM     19  H12 UNL     1     204.314  73.684-122.773  1.00  0.00     0.155 HD
ATOM     20  H11 UNL     1     204.177  75.428-122.619  1.00  0.00     0.155 HD
ENDBRANCH  14  17
ENDBRANCH  10  11
ENDBRANCH   9  10
BRANCH   9  21
HETATM   21  O2  UNL     1     209.105  67.638-123.535  1.00  0.00    -0.234 OA
BRANCH  21  22
HETATM   22  O3  UNL     1     208.206  66.876-123.010  1.00  0.00    -0.250 OA
ATOM     23  H3  UNL     1     207.773  66.272-123.602  1.00  0.00     0.253 HD
ENDBRANCH  21  22
ENDBRANCH   9  21
ENDBRANCH   8   9
ENDBRANCH   7   8
ENDBRANCH   1   7
BRANCH   4  24
HETATM   24  C12 UNL     1     204.707  73.854-126.327  1.00  0.00     0.119 C
HETATM   25  N3  UNL     1     203.661  73.908-127.076  1.00  0.00    -0.297 N
ATOM     26  H3  UNL     1     203.370  73.069-127.577  1.00  0.00     0.186 HD
BRANCH  25  27
HETATM   27  N4  UNL     1     202.909  75.080-127.225  1.00  0.00    -0.132 N
ATOM     28  H4  UNL     1     203.078  75.874-126.606  1.00  0.00     0.205 HD
BRANCH  27  29
HETATM   29  C13 UNL     1     202.005  75.161-128.139  1.00  0.00     0.696 A
HETATM   30  N5  UNL     1     201.477  76.359-128.452  1.00  0.00    -0.200 N
HETATM   31  C14 UNL     1     200.533  76.488-129.399  1.00  0.00     0.107 A
ATOM     32  H5  UNL     1     201.802  77.190-127.958  1.00  0.00     0.183 HD
HETATM   33  C15 UNL     1     200.115  75.349-130.049  1.00  0.00     0.035 A
HETATM   34  C16 UNL     1     200.675  74.141-129.706  1.00  0.00     0.107 A
HETATM   35  N6  UNL     1     201.626  74.026-128.749  1.00  0.00    -0.200 N
ATOM     36  H6  UNL     1     202.033  73.123-128.502  1.00  0.00     0.183 HD
ENDBRANCH  27  29
ENDBRANCH  25  27
ENDBRANCH   4  24
TORSDOF 11
ENDMDL