MODEL 4
REMARK VINA RESULT: -7.442065705      2.163      3.132
REMARK  10 active torsions:
REMARK  status: ('A' for Active; 'I' for Inactive)
REMARK    1  A    between atoms: C3_10  and  C4_11
REMARK    2  A    between atoms: C4_11  and  C5_12
REMARK    3  A    between atoms: C5_12  and  N4_13
REMARK    4  A    between atoms: N4_13  and  C6_15
REMARK    5  A    between atoms: C9_20  and  O1_21
REMARK    6  A    between atoms: O1_21  and  C10_22
REMARK    7  A    between atoms: C10_22  and  C11_23
REMARK    8  A    between atoms: C11_23  and  C12_24
REMARK    9  A    between atoms: C12_24  and  C13_25
REMARK   10  A    between atoms: C19_31  and  N6_32
ROOT
HETATM    1  C6  UNL     1     205.893  71.674-126.609  1.00  0.00     0.067 A
HETATM    2  C7  UNL     1     206.473  72.920-126.631  1.00  0.00     0.049 A
HETATM    3  C8  UNL     1     207.717  73.157-126.042  1.00  0.00     0.092 A
HETATM    4  N5  UNL     1     208.352  72.146-125.446  1.00  0.00    -0.345 N
ATOM      5  H5  UNL     1     209.261  72.319-125.016  1.00  0.00     0.167 HD
HETATM    6  C9  UNL     1     207.826  70.890-125.392  1.00  0.00     0.178 A
HETATM    7  C19 UNL     1     206.603  70.640-125.967  1.00  0.00     0.179 A
ENDROOT
BRANCH   1   8
HETATM    8  N4  UNL     1     204.755  71.407-127.136  1.00  0.00    -0.387 N
ATOM      9  H4  UNL     1     204.389  70.456-127.110  1.00  0.00     0.159 HD
BRANCH   8  10
HETATM   10  C5  UNL     1     203.992  72.457-127.766  1.00  0.00     0.127 C
BRANCH  10  11
HETATM   11  C4  UNL     1     203.021  72.979-126.748  1.00  0.00     0.096 C
BRANCH  11  12
HETATM   12  C3  UNL     1     202.935  74.477-126.785  1.00  0.00     0.099 A
HETATM   13  N3  UNL     1     202.102  75.089-127.655  1.00  0.00    -0.341 N
HETATM   14  C2  UNL     1     202.023  76.432-127.691  1.00  0.00     0.199 A
ATOM     15  H3  UNL     1     201.530  74.529-128.287  1.00  0.00     0.167 HD
HETATM   16  N2  UNL     1     202.765  77.205-126.870  1.00  0.00    -0.188 N
HETATM   17  C1  UNL     1     203.600  76.618-125.996  1.00  0.00     0.678 A
ATOM     18  H2  UNL     1     202.692  78.222-126.913  1.00  0.00     0.185 HD
HETATM   19  N1  UNL     1     204.328  77.315-125.191  1.00  0.00    -0.234 N
HETATM   20  N7  UNL     1     203.660  75.262-125.980  1.00  0.00    -0.181 N
ATOM     21  H12 UNL     1     204.283  78.334-125.203  1.00  0.00     0.174 HD
ATOM     22  H11 UNL     1     204.962  76.869-124.528  1.00  0.00     0.174 HD
ATOM     23  H7  UNL     1     204.293  74.816-125.318  1.00  0.00     0.185 HD
ENDBRANCH  11  12
ENDBRANCH  10  11
ENDBRANCH   8  10
ENDBRANCH   1   8
BRANCH   7  24
HETATM   24  N6  UNL     1     206.018  69.347-125.931  1.00  0.00    -0.109 N
HETATM   25  O2  UNL     1     205.280  69.020-124.981  1.00  0.00    -0.532 OA
HETATM   26  O3  UNL     1     206.268  68.460-126.940  1.00  0.00    -0.532 OA
ENDBRANCH   7  24
BRANCH   6  27
HETATM   27  O1  UNL     1     208.568  69.920-124.751  1.00  0.00    -0.334 OA
BRANCH  27  28
HETATM   28  C10 UNL     1     208.855  69.948-123.368  1.00  0.00     0.178 C
BRANCH  28  29
HETATM   29  C11 UNL     1     207.590  69.862-122.540  1.00  0.00     0.031 C
BRANCH  29  30
HETATM   30  C12 UNL     1     207.594  71.012-121.573  1.00  0.00     0.041 C
BRANCH  30  31
HETATM   31  C13 UNL     1     206.996  72.241-122.116  1.00  0.00    -0.058 A
HETATM   32  C14 UNL     1     207.578  73.484-122.095  1.00  0.00     0.007 A
HETATM   33  C15 UNL     1     206.937  74.580-122.630  1.00  0.00     0.001 A
HETATM   34  C16 UNL     1     205.680  74.477-123.214  1.00  0.00     0.000 A
HETATM   35  C17 UNL     1     205.083  73.235-123.242  1.00  0.00     0.001 A
HETATM   36  C18 UNL     1     205.745  72.157-122.700  1.00  0.00     0.007 A
ENDBRANCH  30  31
ENDBRANCH  29  30
ENDBRANCH  28  29
ENDBRANCH  27  28
ENDBRANCH   6  27
TORSDOF 10
ENDMDL