MODEL 2
REMARK VINA RESULT: -7.709069923      2.248      4.722
REMARK  10 active torsions:
REMARK  status: ('A' for Active; 'I' for Inactive)
REMARK    1  A    between atoms: C2_7  and  C3_8
REMARK    2  A    between atoms: C3_8  and  O1_9
REMARK    3  A    between atoms: O1_9  and  C4_10
REMARK    4  A    between atoms: C9_16  and  C10_17
REMARK    5  A    between atoms: C10_17  and  C11_18
REMARK    6  A    between atoms: C10_17  and  C18_26
REMARK    7  A    between atoms: C11_18  and  C12_19
REMARK    8  A    between atoms: C12_19  and  N3_20
REMARK    9  A    between atoms: C18_26  and  O3_27
REMARK   10  A    between atoms: O3_27  and  N4_28
ROOT
HETATM    1  C4  UNL     1     206.619  69.302-125.149  1.00  0.00     0.070 A
HETATM    2  C5  UNL     1     207.842  68.710-124.940  1.00  0.00     0.039 A
HETATM    3  C6  UNL     1     208.984  69.404-124.535  1.00  0.00     0.041 A
HETATM    4  C7  UNL     1     208.897  70.769-124.331  1.00  0.00     0.086 A
HETATM    5  O2  UNL     1     209.725  71.692-123.976  1.00  0.00    -0.321 OA
HETATM    6  C8  UNL     1     209.138  72.893-123.933  1.00  0.00     0.151 A
HETATM    7  C9  UNL     1     207.827  72.747-124.283  1.00  0.00    -0.016 A
HETATM    8  C19 UNL     1     207.669  71.382-124.538  1.00  0.00     0.009 A
HETATM    9  C20 UNL     1     206.557  70.681-124.933  1.00  0.00     0.051 A
ENDROOT
BRANCH   7  10
HETATM   10  C10 UNL     1     206.711  73.727-124.345  1.00  0.00     0.049 C
BRANCH  10  11
HETATM   11  C11 UNL     1     206.627  74.376-125.725  1.00  0.00     0.032 C
BRANCH  11  12
HETATM   12  C12 UNL     1     205.257  73.979-126.274  1.00  0.00     0.128 C
BRANCH  12  13
HETATM   13  N3  UNL     1     204.332  75.062-126.221  1.00  0.00    -0.366 N
HETATM   14  C13 UNL     1     203.130  74.884-126.817  1.00  0.00     0.090 A
HETATM   15  C14 UNL     1     202.179  75.871-126.758  1.00  0.00     0.017 A
HETATM   16  C15 UNL     1     202.392  77.076-126.104  1.00  0.00     0.003 A
HETATM   17  C16 UNL     1     203.628  77.227-125.507  1.00  0.00     0.017 A
HETATM   18  C17 UNL     1     204.582  76.213-125.574  1.00  0.00     0.090 A
ENDBRANCH  12  13
ENDBRANCH  11  12
ENDBRANCH  10  11
BRANCH  10  19
HETATM   19  C18 UNL     1     206.911  74.829-123.307  1.00  0.00     0.210 C
BRANCH  19  20
HETATM   20  O3  UNL     1     206.018  74.620-122.255  1.00  0.00    -0.287 OA
BRANCH  20  21
HETATM   21  N4  UNL     1     204.754  74.637-122.622  1.00  0.00    -0.311 N
ATOM     22  H42 UNL     1     204.384  74.005-123.332  1.00  0.00     0.184 HD
ATOM     23  H41 UNL     1     204.194  75.335-122.132  1.00  0.00     0.184 HD
ENDBRANCH  20  21
ENDBRANCH  19  20
ENDBRANCH  10  19
ENDBRANCH   7  10
BRANCH   1  24
HETATM   24  O1  UNL     1     205.496  68.672-125.541  1.00  0.00    -0.344 OA
BRANCH  24  25
HETATM   25  C3  UNL     1     204.712  68.630-126.646  1.00  0.00     0.254 C
BRANCH  25  26
HETATM   26  C2  UNL     1     203.928  69.819-127.053  1.00  0.00     0.129 A
HETATM   27  N2  UNL     1     204.141  70.454-128.269  1.00  0.00    -0.307 N
HETATM   28  C1  UNL     1     203.314  71.488-128.399  1.00  0.00     0.242 A
ATOM     29  H2  UNL     1     204.833  70.169-128.963  1.00  0.00     0.171 HD
HETATM   30  N1  UNL     1     203.200  72.327-129.386  1.00  0.00    -0.364 N
HETATM   31  O4  UNL     1     202.595  71.523-127.310  1.00  0.00    -0.200 OA
ATOM     32  H12 UNL     1     203.763  72.299-130.237  1.00  0.00     0.159 HD
ATOM     33  H11 UNL     1     202.566  73.119-129.486  1.00  0.00     0.159 HD
HETATM   34  N5  UNL     1     202.958  70.531-126.505  1.00  0.00    -0.243 N
ATOM     35  H5  UNL     1     202.545  70.344-125.592  1.00  0.00     0.196 HD
ENDBRANCH  25  26
ENDBRANCH  24  25
ENDBRANCH   1  24
TORSDOF 10
ENDMDL