MODEL 2
REMARK VINA RESULT: -7.267954098      2.244      6.072
REMARK  10 active torsions:
REMARK  status: ('A' for Active; 'I' for Inactive)
REMARK    1  A    between atoms: C2_2  and  C3_3
REMARK    2  A    between atoms: N1_5  and  C5_6
REMARK    3  A    between atoms: C5_6  and  C6_7
REMARK    4  A    between atoms: C6_7  and  N2_8
REMARK    5  A    between atoms: N2_8  and  C7_11
REMARK    6  A    between atoms: C7_11  and  C8_12
REMARK    7  A    between atoms: C8_12  and  C9_13
REMARK    8  A    between atoms: C9_13  and  N3_14
REMARK    9  A    between atoms: C16_21  and  C17_22
REMARK   10  A    between atoms: C18_28  and  N6_29
ROOT
HETATM    1  C3  UNL     1     209.338  72.770-124.497  1.00  0.00     0.169 C
HETATM    2  C4  UNL     1     208.921  73.672-123.363  1.00  0.00     0.159 C
HETATM    3  N1  UNL     1     207.525  73.932-123.334  1.00  0.00    -0.374 N
HETATM    4  C14 UNL     1     206.774  73.836-124.567  1.00  0.00     0.065 A
HETATM    5  C15 UNL     1     205.712  74.635-124.793  1.00  0.00     0.046 A
HETATM    6  C16 UNL     1     204.959  74.562-125.976  1.00  0.00    -0.001 A
HETATM    7  C19 UNL     1     205.357  73.629-126.900  1.00  0.00     0.017 A
HETATM    8  C20 UNL     1     206.460  72.788-126.680  1.00  0.00     0.040 A
HETATM    9  C21 UNL     1     207.169  72.886-125.520  1.00  0.00     0.096 A
HETATM   10  O2  UNL     1     208.268  72.134-125.163  1.00  0.00    -0.338 OA
ENDROOT
BRANCH   3  11
HETATM   11  C5  UNL     1     206.775  74.230-122.176  1.00  0.00     0.150 C
BRANCH  11  12
HETATM   12  C6  UNL     1     207.103  73.108-121.179  1.00  0.00     0.252 C
BRANCH  12  13
HETATM   13  N2  UNL     1     206.364  71.910-121.468  1.00  0.00    -0.074 N
ATOM     14  H22 UNL     1     205.465  71.853-120.990  1.00  0.00     0.277 HD
ATOM     15  H21 UNL     1     205.995  71.872-122.418  1.00  0.00     0.277 HD
BRANCH  13  16
HETATM   16  C7  UNL     1     207.282  70.803-121.143  1.00  0.00     0.234 C
BRANCH  16  17
HETATM   17  C8  UNL     1     207.875  70.193-122.345  1.00  0.00     0.057 C
BRANCH  17  18
HETATM   18  C9  UNL     1     207.679  68.764-122.554  1.00  0.00     0.274 C
BRANCH  18  19
HETATM   19  N3  UNL     1     207.599  68.242-123.871  1.00  0.00     0.088 N
HETATM   20  C10 UNL     1     208.997  68.155-124.354  1.00  0.00     0.272 C
HETATM   21  C11 UNL     1     209.028  68.569-125.773  1.00  0.00     0.032 C
HETATM   22  C12 UNL     1     207.570  68.562-126.180  1.00  0.00     0.032 C
HETATM   23  C13 UNL     1     206.908  69.002-124.853  1.00  0.00     0.272 C
ENDBRANCH  18  19
ENDBRANCH  17  18
ENDBRANCH  16  17
ENDBRANCH  13  16
ENDBRANCH  12  13
ENDBRANCH  11  12
ENDBRANCH   3  11
BRANCH   1  24
HETATM   24  C2  UNL     1     210.207  71.713-123.929  1.00  0.00    -0.003 C
HETATM   25  C1  UNL     1     211.483  71.623-124.241  1.00  0.00     0.009 C
ENDBRANCH   1  24
BRANCH   6  26
HETATM   26  C17 UNL     1     203.818  75.457-126.137  1.00  0.00     0.112 A
HETATM   27  N4  UNL     1     202.637  75.055-126.711  1.00  0.00    -0.237 N
HETATM   28  O1  UNL     1     201.796  76.054-126.730  1.00  0.00    -0.155 OA
ATOM     29  H4  UNL     1     202.445  74.119-127.067  1.00  0.00     0.197 HD
HETATM   30  N5  UNL     1     202.389  77.088-126.192  1.00  0.00    -0.224 N
HETATM   31  C18 UNL     1     203.638  76.762-125.813  1.00  0.00     0.151 A
ATOM     32  H5  UNL     1     201.966  78.009-126.077  1.00  0.00     0.198 HD
BRANCH  31  33
HETATM   33  N6  UNL     1     204.541  77.500-125.247  1.00  0.00    -0.382 N
ATOM     34  H62 UNL     1     205.331  77.988-125.668  1.00  0.00     0.157 HD
ATOM     35  H61 UNL     1     204.573  77.694-124.246  1.00  0.00     0.157 HD
ENDBRANCH  31  33
ENDBRANCH   6  26
TORSDOF 10
ENDMDL