MODEL 5
REMARK VINA RESULT: -7.018923504      2.344      3.994
REMARK  10 active torsions:
REMARK  status: ('A' for Active; 'I' for Inactive)
REMARK    1  A    between atoms: C4_8  and  C5_9
REMARK    2  A    between atoms: C5_9  and  C6_10
REMARK    3  A    between atoms: C6_10  and  C7_11
REMARK    4  A    between atoms: C7_11  and  C8_12
REMARK    5  A    between atoms: C8_12  and  C9_13
REMARK    6  A    between atoms: C9_13  and  C10_14
REMARK    7  A    between atoms: C10_14  and  C11_15
REMARK    8  A    between atoms: C11_15  and  C12_16
REMARK    9  A    between atoms: C12_16  and  C13_17
REMARK   10  A    between atoms: C13_17  and  O2_18
ROOT
HETATM    1  C1  UNL     1     204.869  77.085-125.262  1.00  0.00     0.158 C
HETATM    2  N1  UNL     1     204.765  75.665-125.103  1.00  0.00    -0.329 N
HETATM    3  C2  UNL     1     205.439  74.943-124.170  1.00  0.00     0.139 A
HETATM    4  N2  UNL     1     206.307  75.232-123.216  1.00  0.00    -0.306 N
ATOM      5  H2  UNL     1     206.599  76.198-123.067  1.00  0.00     0.170 HD
HETATM    6  C3  UNL     1     206.818  74.232-122.425  1.00  0.00     0.269 A
HETATM    7  O1  UNL     1     207.631  74.588-121.537  1.00  0.00    -0.266 OA
HETATM    8  C4  UNL     1     206.474  72.929-122.571  1.00  0.00     0.078 A
HETATM    9  N3  UNL     1     205.564  72.681-123.580  1.00  0.00    -0.351 N
ATOM     10  H3  UNL     1     205.265  71.719-123.738  1.00  0.00     0.166 HD
HETATM   11  C14 UNL     1     205.057  73.640-124.359  1.00  0.00     0.096 A
HETATM   12  C15 UNL     1     204.132  73.563-125.425  1.00  0.00     0.097 A
HETATM   13  C16 UNL     1     203.470  72.494-125.989  1.00  0.00     0.264 A
HETATM   14  O3  UNL     1     203.743  71.355-125.444  1.00  0.00    -0.267 OA
HETATM   15  N4  UNL     1     202.610  72.546-127.007  1.00  0.00    -0.284 N
ATOM     16  H4  UNL     1     202.210  71.654-127.298  1.00  0.00     0.172 HD
HETATM   17  C17 UNL     1     202.209  73.614-127.691  1.00  0.00     0.292 A
HETATM   18  O4  UNL     1     201.381  73.469-128.634  1.00  0.00    -0.260 OA
HETATM   19  S1  UNL     1     202.900  75.076-127.170  1.00  0.00    -0.010 SA
HETATM   20  C18 UNL     1     203.990  74.866-125.849  1.00  0.00     0.101 A
ENDROOT
BRANCH   8  21
HETATM   21  C5  UNL     1     206.993  71.753-121.826  1.00  0.00     0.063 C
BRANCH  21  22
HETATM   22  C6  UNL     1     207.586  70.673-122.631  1.00  0.00     0.006 C
BRANCH  22  23
HETATM   23  C7  UNL     1     207.978  69.421-121.953  1.00  0.00     0.000 C
BRANCH  23  24
HETATM   24  C8  UNL     1     207.664  68.180-122.742  1.00  0.00     0.000 C
BRANCH  24  25
HETATM   25  C9  UNL     1     208.827  67.921-123.663  1.00  0.00     0.000 C
BRANCH  25  26
HETATM   26  C10 UNL     1     208.461  67.849-125.109  1.00  0.00     0.000 C
BRANCH  26  27
HETATM   27  C11 UNL     1     208.688  69.124-125.859  1.00  0.00     0.002 C
BRANCH  27  28
HETATM   28  C12 UNL     1     207.396  69.900-126.068  1.00  0.00     0.026 C
BRANCH  28  29
HETATM   29  C13 UNL     1     206.255  68.898-126.128  1.00  0.00     0.164 C
BRANCH  29  30
HETATM   30  O2  UNL     1     205.353  69.158-125.071  1.00  0.00    -0.401 OA
ATOM     31  H2  UNL     1     205.843  69.403-124.296  1.00  0.00     0.209 HD
ENDBRANCH  29  30
ENDBRANCH  28  29
ENDBRANCH  27  28
ENDBRANCH  26  27
ENDBRANCH  25  26
ENDBRANCH  24  25
ENDBRANCH  23  24
ENDBRANCH  22  23
ENDBRANCH  21  22
ENDBRANCH   8  21
TORSDOF 10
ENDMDL