MODEL 5
REMARK VINA RESULT: -1.786257322      6.534      9.802
REMARK  2 active torsions:
REMARK  status: ('A' for Active; 'I' for Inactive)
REMARK    1  A    between atoms: C7_8  and  C8_9
REMARK    2  A    between atoms: C7_8  and  C12_15
ROOT
HETATM    1  C8  UNL     1       1.434 -28.157  49.316  1.00  0.00     0.046 C
HETATM    2  C9  UNL     1       2.517 -28.504  48.736  1.00  0.00     0.123 C
HETATM    3  C10 UNL     1       2.462 -29.606  47.750  1.00  0.00     0.110 C
HETATM    4  N2  UNL     1       2.399 -30.467  46.984  1.00  0.00    -0.191 NA
HETATM    5  C11 UNL     1       3.802 -27.964  48.927  1.00  0.00     0.110 C
HETATM    6  N3  UNL     1       4.898 -27.538  49.066  1.00  0.00    -0.191 NA
ENDROOT
BRANCH   1   7
HETATM    7  C7  UNL     1       1.083 -27.132  50.329  1.00  0.00     0.152 C
HETATM    8  N1  UNL     1      -0.113 -27.549  51.076  1.00  0.00    -0.062 N
HETATM    9  C1  UNL     1      -0.335 -28.974  51.075  1.00  0.00     0.273 C
HETATM   10  C2  UNL     1      -0.064 -27.161  52.469  1.00  0.00     0.273 C
HETATM   11  C3  UNL     1      -1.295 -26.900  50.501  1.00  0.00     0.238 C
HETATM   12  C4  UNL     1      -1.285 -25.440  50.899  1.00  0.00     0.028 C
HETATM   13  C5  UNL     1      -0.005 -24.843  50.419  1.00  0.00     0.004 C
HETATM   14  C6  UNL     1       0.872 -25.824  49.667  1.00  0.00     0.044 C
BRANCH   7  15
HETATM   15  C12 UNL     1       2.190 -27.175  51.354  1.00  0.00     0.026 A
HETATM   16  C13 UNL     1       3.348 -26.204  51.297  1.00  0.00     0.008 A
HETATM   17  C14 UNL     1       2.368 -26.256  52.460  1.00  0.00     0.008 A
ENDBRANCH   7  15
ENDBRANCH   1   7
TORSDOF 2
ENDMDL