MODEL 3
REMARK VINA RESULT: -7.768530389      1.080      1.715
REMARK  2 active torsions:
REMARK  status: ('A' for Active; 'I' for Inactive)
REMARK    1  A    between atoms: C6_6  and  N1_7
REMARK    2  A    between atoms: N1_7  and  C8_9
ROOT
HETATM    1  C8  UNL     1       0.029 -26.870  50.068  1.00  0.00     0.226 C
HETATM    2  C9  UNL     1       0.545 -25.445  50.037  1.00  0.00     0.066 C
HETATM    3  C10 UNL     1      -0.547 -24.443  50.227  1.00  0.00     0.275 C
HETATM    4  N2  UNL     1      -1.440 -24.757  51.288  1.00  0.00     0.093 N
HETATM    5  C11 UNL     1      -1.768 -23.713  52.194  1.00  0.00     0.273 C
HETATM    6  C12 UNL     1      -1.590 -24.263  53.618  1.00  0.00     0.032 C
HETATM    7  C13 UNL     1      -1.645 -25.771  53.319  1.00  0.00     0.037 C
HETATM    8  C14 UNL     1      -0.781 -25.801  52.080  1.00  0.00     0.225 C
HETATM    9  C15 UNL     1      -0.917 -27.060  51.267  1.00  0.00     0.071 C
ENDROOT
BRANCH   1  10
HETATM   10  N1  UNL     1       1.078 -27.828  50.211  1.00  0.00     0.093 N
HETATM   11  C7  UNL     1       0.510 -29.147  50.350  1.00  0.00     0.310 C
BRANCH  10  12
HETATM   12  C6  UNL     1       2.071 -27.804  49.193  1.00  0.00     0.226 C
HETATM   13  C2  UNL     1       3.453 -27.648  49.801  1.00  0.00     0.015 C
HETATM   14  C1  UNL     1       3.810 -26.193  50.029  1.00  0.00     0.012 C
HETATM   15  C3  UNL     1       4.408 -28.245  48.773  1.00  0.00     0.006 C
HETATM   16  C4  UNL     1       3.550 -28.766  47.647  1.00  0.00     0.002 C
HETATM   17  C5  UNL     1       2.224 -29.032  48.372  1.00  0.00     0.036 C
ENDBRANCH  10  12
ENDBRANCH   1  10
TORSDOF 2
ENDMDL