MODEL 3
REMARK VINA RESULT: -3.744606073      9.377     11.226
REMARK  1 active torsions:
REMARK  status: ('A' for Active; 'I' for Inactive)
REMARK    1  A    between atoms: N1_3  and  C3_4
ROOT
HETATM    1  C3  UNL     1       9.071 -26.214  43.417  1.00  0.00    -0.003 C
HETATM    2  C4  UNL     1      10.381 -26.973  43.598  1.00  0.00     0.033 C
HETATM    3  C5  UNL     1      10.243 -28.244  42.763  1.00  0.00     0.015 C
HETATM    4  C6  UNL     1       9.027 -29.025  43.164  1.00  0.00    -0.013 C
HETATM    5  C7  UNL     1       9.301 -29.519  44.578  1.00  0.00     0.009 C
HETATM    6  C8  UNL     1       9.503 -28.317  45.472  1.00  0.00    -0.013 C
HETATM    7  C9  UNL     1      10.605 -27.411  45.012  1.00  0.00     0.015 C
HETATM    8  C10 UNL     1       8.204 -27.530  45.407  1.00  0.00     0.015 C
HETATM    9  C11 UNL     1       7.952 -26.968  44.045  1.00  0.00     0.033 C
HETATM   10  C12 UNL     1       7.757 -28.220  43.184  1.00  0.00     0.015 C
ENDROOT
BRANCH   1  11
HETATM   11  N1  UNL     1       9.148 -24.832  43.595  1.00  0.00    -0.365 N
HETATM   12  C2  UNL     1      10.214 -24.369  44.427  1.00  0.00     0.138 C
HETATM   13  C1  UNL     1      10.136 -22.919  44.794  1.00  0.00     0.094 C
HETATM   14  S1  UNL     1      10.518 -22.017  43.250  1.00  0.00    -0.162 SA
HETATM   15  C14 UNL     1       9.915 -23.171  41.963  1.00  0.00     0.118 C
HETATM   16  C13 UNL     1       8.755 -23.906  42.637  1.00  0.00     0.073 C
ENDBRANCH   1  11
TORSDOF 1
ENDMDL