MODEL 3
REMARK VINA RESULT: -5.534319648      0.976      1.616
REMARK  2 active torsions:
REMARK  status: ('A' for Active; 'I' for Inactive)
REMARK    1  A    between atoms: C8_8  and  C9_9
REMARK    2  A    between atoms: C9_9  and  N1_11
ROOT
HETATM    1  C9  UNL     1       1.029 -27.713  49.459  1.00  0.00     0.084 C
HETATM    2  C10 UNL     1       0.356 -29.073  49.366  1.00  0.00     0.033 C
ENDROOT
BRANCH   1   3
HETATM    3  C8  UNL     1       0.517 -26.998  50.681  1.00  0.00     0.017 A
HETATM    4  C6  UNL     1      -0.592 -27.482  51.525  1.00  0.00    -0.003 A
HETATM    5  C5  UNL     1      -0.447 -27.147  52.982  1.00  0.00     0.005 C
HETATM    6  C7  UNL     1      -0.868 -26.428  50.589  1.00  0.00     0.000 A
HETATM    7  C4  UNL     1      -0.886 -25.795  53.390  1.00  0.00     0.001 C
HETATM    8  C3  UNL     1      -0.520 -24.717  52.391  1.00  0.00     0.005 C
HETATM    9  C2  UNL     1      -1.240 -25.093  51.130  1.00  0.00    -0.014 C
HETATM   10  C1  UNL     1      -2.731 -25.160  51.477  1.00  0.00     0.010 C
ENDBRANCH   1   3
BRANCH   1  11
HETATM   11  N1  UNL     1       2.451 -27.817  49.407  1.00  0.00    -0.385 N
HETATM   12  C11 UNL     1       3.207 -26.843  50.075  1.00  0.00     0.088 C
HETATM   13  C12 UNL     1       4.661 -27.242  50.199  1.00  0.00     0.316 C
HETATM   14  N2  UNL     1       5.185 -27.725  48.941  1.00  0.00     0.090 N
HETATM   15  C13 UNL     1       6.596 -28.003  49.155  1.00  0.00     0.310 C
HETATM   16  C14 UNL     1       4.460 -28.956  48.634  1.00  0.00     0.292 C
HETATM   17  C15 UNL     1       3.035 -28.476  48.305  1.00  0.00     0.152 C
ENDBRANCH   1  11
TORSDOF 2
ENDMDL