MODEL 1
REMARK VINA RESULT: -5.137426596      0.000      0.000
REMARK  4 active torsions:
REMARK  status: ('A' for Active; 'I' for Inactive)
REMARK    1  A    between atoms: C6_6  and  S1_7
REMARK    2  A    between atoms: S1_7  and  C7_9
REMARK    3  A    between atoms: C7_9  and  N1_10
REMARK    4  A    between atoms: N1_10  and  N2_11
ROOT
HETATM    1  C1  UNL     1      -1.045 -25.205  53.053  1.00  0.00     0.011 C
HETATM    2  C2  UNL     1      -1.127 -26.275  51.974  1.00  0.00    -0.010 C
HETATM    3  C3  UNL     1      -1.207 -25.694  50.595  1.00  0.00     0.009 C
HETATM    4  C4  UNL     1       0.096 -25.256  50.031  1.00  0.00     0.035 C
HETATM    5  C5  UNL     1       1.250 -26.073  50.403  1.00  0.00    -0.070 C
HETATM    6  C6  UNL     1       2.314 -26.102  49.625  1.00  0.00     0.088 C
HETATM    7  C8  UNL     1       1.281 -26.887  51.642  1.00  0.00     0.043 C
HETATM    8  C9  UNL     1      -0.066 -27.320  52.119  1.00  0.00    -0.041 C
HETATM    9  C10 UNL     1       0.049 -27.738  53.558  1.00  0.00     0.015 C
HETATM   10  C11 UNL     1      -0.542 -28.550  51.342  1.00  0.00     0.015 C
ENDROOT
BRANCH   6  11
HETATM   11  S1  UNL     1       3.739 -27.044  49.983  1.00  0.00     0.095 S
HETATM   12  O1  UNL     1       5.141 -26.132  49.859  1.00  0.00    -0.246 OA
BRANCH  11  13
HETATM   13  C7  UNL     1       3.888 -28.388  48.849  1.00  0.00     0.290 C
BRANCH  13  14
HETATM   14  N1  UNL     1       2.822 -28.796  48.308  1.00  0.00    -0.336 NA
BRANCH  14  15
HETATM   15  N2  UNL     1       1.718 -29.195  47.965  1.00  0.00    -0.280 N
ATOM     16  H22 UNL     1       1.322 -28.420  48.499  1.00  0.00     0.191 HD
ATOM     17  H21 UNL     1       0.878 -29.644  47.600  1.00  0.00     0.191 HD
ENDBRANCH  14  15
ENDBRANCH  13  14
ENDBRANCH  11  13
ENDBRANCH   6  11
TORSDOF 4
ENDMDL