MODEL 1
REMARK VINA RESULT: -7.104522398      0.000      0.000
REMARK  3 active torsions:
REMARK  status: ('A' for Active; 'I' for Inactive)
REMARK    1  A    between atoms: C7_8  and  O1_9
REMARK    2  A    between atoms: O1_9  and  C8_10
REMARK    3  A    between atoms: C8_10  and  C9_12
ROOT
HETATM    1  C1  UNL     1      -1.861 -24.243  53.662  1.00  0.00     0.272 C
HETATM    2  N1  UNL     1      -1.572 -24.900  52.418  1.00  0.00    -0.068 N
HETATM    3  C2  UNL     1      -2.805 -25.235  51.738  1.00  0.00     0.237 C
HETATM    4  C3  UNL     1      -2.558 -25.656  50.303  1.00  0.00     0.035 C
HETATM    5  C4  UNL     1      -1.069 -25.988  50.220  1.00  0.00     0.020 C
HETATM    6  C5  UNL     1      -0.391 -24.643  50.313  1.00  0.00     0.035 C
HETATM    7  C6  UNL     1      -0.763 -23.984  51.601  1.00  0.00     0.237 C
HETATM    8  C7  UNL     1      -0.760 -26.878  51.397  1.00  0.00     0.162 C
HETATM    9  C14 UNL     1      -0.733 -26.068  52.634  1.00  0.00     0.269 C
ENDROOT
BRANCH   8  10
HETATM   10  O1  UNL     1       0.290 -27.758  51.193  1.00  0.00    -0.314 OA
BRANCH  10  11
HETATM   11  C8  UNL     1       0.912 -28.055  50.013  1.00  0.00     0.263 C
HETATM   12  O2  UNL     1       0.357 -28.962  49.347  1.00  0.00    -0.265 OA
BRANCH  11  13
HETATM   13  C9  UNL     1       2.119 -27.364  49.587  1.00  0.00     0.085 C
HETATM   14  C10 UNL     1       3.194 -28.278  49.043  1.00  0.00     0.014 C
HETATM   15  C11 UNL     1       4.486 -27.521  49.269  1.00  0.00     0.001 C
HETATM   16  C12 UNL     1       4.114 -26.254  50.013  1.00  0.00     0.001 C
HETATM   17  C13 UNL     1       2.869 -26.703  50.750  1.00  0.00     0.014 C
ENDBRANCH  11  13
ENDBRANCH  10  11
ENDBRANCH   8  10
TORSDOF 3
ENDMDL