MODEL 5
REMARK VINA RESULT: -3.958829220      9.186     12.321
REMARK  2 active torsions:
REMARK  status: ('A' for Active; 'I' for Inactive)
REMARK    1  A    between atoms: N1_2  and  N2_3
REMARK       I    between atoms: N2_3  and  C2_5
REMARK    2  A    between atoms: C2_5  and  C3_7
ROOT
HETATM    1  C3  UNL     1       8.799 -27.181  45.245  1.00  0.00     0.090 C
HETATM    2  C4  UNL     1       9.461 -26.023  44.495  1.00  0.00     0.022 C
HETATM    3  C5  UNL     1       9.747 -26.476  43.109  1.00  0.00     0.016 C
HETATM    4  C6  UNL     1       8.404 -26.970  42.543  1.00  0.00     0.015 C
HETATM    5  C7  UNL     1       8.323 -28.412  43.050  1.00  0.00     0.024 C
HETATM    6  C8  UNL     1       9.342 -29.251  42.269  1.00  0.00     0.127 C
HETATM    7  C9  UNL     1      10.236 -29.922  43.317  1.00  0.00     0.040 C
HETATM    8  C10 UNL     1      10.296 -28.706  44.175  1.00  0.00     0.027 C
HETATM    9  C11 UNL     1      10.659 -27.696  43.070  1.00  0.00     0.131 C
HETATM   10  O2  UNL     1      10.327 -28.323  41.848  1.00  0.00    -0.379 OA
HETATM   11  C12 UNL     1       8.833 -28.437  44.458  1.00  0.00    -0.020 C
HETATM   12  C13 UNL     1       8.101 -29.529  45.163  1.00  0.00     0.017 C
ENDROOT
BRANCH   1  13
HETATM   13  C2  UNL     1       7.536 -26.765  45.839  1.00  0.00     0.251 C
HETATM   14  N2  UNL     1       6.539 -27.624  46.348  1.00  0.00    -0.204 N
ATOM     15  H2  UNL     1       5.855 -28.037  45.714  1.00  0.00     0.205 HD
HETATM   16  O1  UNL     1       7.280 -25.518  45.919  1.00  0.00    -0.271 OA
BRANCH  14  17
HETATM   17  N1  UNL     1       6.489 -27.883  47.567  1.00  0.00    -0.347 NA
HETATM   18  C1  UNL     1       6.099 -28.014  48.748  1.00  0.00     0.258 C
ENDBRANCH  14  17
ENDBRANCH   1  13
TORSDOF 2
ENDMDL