MODEL 5
REMARK VINA RESULT: -5.875086174      1.094      2.339
REMARK  2 active torsions:
REMARK  status: ('A' for Active; 'I' for Inactive)
REMARK    1  A    between atoms: C2_2  and  C3_3
REMARK    2  A    between atoms: C2_2  and  N2_12
ROOT
HETATM    1  C3  UNL     1       0.333 -28.136  50.916  1.00  0.00     0.256 C
HETATM    2  C4  UNL     1      -0.304 -28.060  49.586  1.00  0.00     0.040 C
HETATM    3  C5  UNL     1       0.802 -28.658  48.699  1.00  0.00     0.038 C
HETATM    4  C6  UNL     1       2.043 -28.605  49.579  1.00  0.00     0.223 C
HETATM    5  C7  UNL     1       3.162 -28.041  48.773  1.00  0.00     0.036 C
HETATM    6  C8  UNL     1       4.202 -27.343  49.649  1.00  0.00     0.004 C
HETATM    7  C9  UNL     1       3.493 -26.263  50.395  1.00  0.00     0.030 C
HETATM    8  C10 UNL     1       1.961 -26.414  50.338  1.00  0.00     0.273 C
HETATM    9  N1  UNL     1       1.679 -27.750  50.724  1.00  0.00     0.100 N
ENDROOT
BRANCH   1  10
HETATM   10  C2  UNL     1      -0.403 -27.603  52.087  1.00  0.00     0.252 C
HETATM   11  C1  UNL     1       0.165 -27.863  53.438  1.00  0.00     0.045 C
BRANCH  10  12
HETATM   12  N2  UNL     1      -0.835 -26.260  51.982  1.00  0.00     0.095 N
HETATM   13  C11 UNL     1      -1.498 -25.820  50.824  1.00  0.00     0.273 C
HETATM   14  C12 UNL     1      -1.214 -24.308  50.715  1.00  0.00     0.030 C
HETATM   15  C13 UNL     1      -1.717 -23.608  51.968  1.00  0.00     0.003 C
HETATM   16  C14 UNL     1      -1.290 -24.299  53.229  1.00  0.00     0.030 C
HETATM   17  C15 UNL     1      -1.577 -25.780  53.133  1.00  0.00     0.273 C
ENDBRANCH  10  12
ENDBRANCH   1  10
TORSDOF 2
ENDMDL