MODEL 4
REMARK VINA RESULT: -5.686578528      1.582      3.068
REMARK  2 active torsions:
REMARK  status: ('A' for Active; 'I' for Inactive)
REMARK    1  A    between atoms: N1_2  and  C3_4
REMARK    2  A    between atoms: N2_8  and  C7_9
ROOT
HETATM    1  C3  UNL     1       4.838 -27.502  48.586  1.00  0.00     0.223 C
HETATM    2  C4  UNL     1       3.915 -28.299  47.706  1.00  0.00     0.037 C
HETATM    3  C5  UNL     1       2.955 -29.159  48.484  1.00  0.00     0.032 C
HETATM    4  C6  UNL     1       1.878 -28.395  49.160  1.00  0.00     0.273 C
HETATM    5  N2  UNL     1       2.287 -27.112  49.694  1.00  0.00     0.093 N
HETATM    6  C14 UNL     1       3.383 -27.187  50.607  1.00  0.00     0.275 C
HETATM    7  C15 UNL     1       4.646 -27.722  50.046  1.00  0.00     0.066 C
ENDROOT
BRANCH   5   8
HETATM    8  C7  UNL     1       1.116 -26.537  50.281  1.00  0.00     0.227 C
HETATM    9  C8  UNL     1       1.238 -26.162  51.726  1.00  0.00     0.041 C
HETATM   10  C9  UNL     1      -0.171 -26.473  52.235  1.00  0.00    -0.012 C
HETATM   11  C10 UNL     1      -1.187 -25.695  51.445  1.00  0.00     0.005 C
HETATM   12  C13 UNL     1      -0.349 -27.860  51.594  1.00  0.00     0.011 C
HETATM   13  C11 UNL     1      -1.307 -26.385  50.083  1.00  0.00     0.007 C
HETATM   14  C12 UNL     1      -0.126 -27.364  50.156  1.00  0.00     0.019 C
ENDBRANCH   5   8
BRANCH   1  15
HETATM   15  N1  UNL     1       6.183 -27.796  48.172  1.00  0.00     0.084 N
HETATM   16  C1  UNL     1       6.284 -28.227  46.805  1.00  0.00     0.309 C
HETATM   17  C2  UNL     1       6.914 -28.624  49.094  1.00  0.00     0.309 C
ENDBRANCH   1  15
TORSDOF 2
ENDMDL