MODEL 3
REMARK VINA RESULT: -5.506893943      2.709      4.220
REMARK  1 active torsions:
REMARK  status: ('A' for Active; 'I' for Inactive)
REMARK    1  A    between atoms: O1_1  and  C1_3
ROOT
HETATM    1  C1  UNL     1       2.086 -28.511  47.621  1.00  0.00     0.170 C
HETATM    2  C2  UNL     1       0.711 -28.578  48.186  1.00  0.00     0.091 C
HETATM    3  N1  UNL     1       0.391 -27.731  49.232  1.00  0.00    -0.386 N
HETATM    4  C3  UNL     1      -0.986 -27.227  49.234  1.00  0.00     0.122 C
HETATM    5  C4  UNL     1      -1.375 -27.202  50.703  1.00  0.00     0.020 C
HETATM    6  C5  UNL     1      -0.454 -26.292  51.439  1.00  0.00     0.004 C
HETATM    7  C6  UNL     1       0.995 -26.495  51.146  1.00  0.00     0.025 C
HETATM    8  C7  UNL     1       1.229 -26.695  49.638  1.00  0.00     0.084 C
HETATM    9  C8  UNL     1       2.672 -26.797  49.324  1.00  0.00     0.044 C
HETATM   10  C9  UNL     1       3.082 -28.092  48.674  1.00  0.00     0.093 C
HETATM   11 BR1  UNL     1       4.772 -27.785  47.752  1.00  0.00    -0.088 Br
ENDROOT
BRANCH   1  12
HETATM   12  O1  UNL     1       2.498 -29.790  47.192  1.00  0.00    -0.389 OA
ATOM     13  H1  UNL     1       2.227 -30.449  47.821  1.00  0.00     0.210 HD
ENDBRANCH   1  12
TORSDOF 1
ENDMDL