MODEL 1
REMARK VINA RESULT: -4.988401739      0.000      0.000
REMARK  1 active torsions:
REMARK  status: ('A' for Active; 'I' for Inactive)
REMARK    1  A    between atoms: C10_11  and  O1_12
ROOT
HETATM    1  C1  UNL     1      10.017 -27.680  39.662  1.00  0.00     0.309 C
HETATM    2  N1  UNL     1       9.266 -27.769  40.900  1.00  0.00     0.085 N
HETATM    3  C2  UNL     1       9.695 -28.928  41.643  1.00  0.00     0.277 C
HETATM    4  C3  UNL     1       9.102 -28.912  43.002  1.00  0.00     0.019 C
HETATM    5  C4  UNL     1       8.289 -30.104  43.365  1.00  0.00     0.007 C
HETATM    6  C5  UNL     1       7.446 -29.600  44.527  1.00  0.00     0.001 C
HETATM    7  C6  UNL     1       7.386 -28.085  44.366  1.00  0.00     0.006 C
HETATM    8  C7  UNL     1       8.057 -27.787  43.092  1.00  0.00     0.003 C
HETATM    9  C8  UNL     1       8.785 -26.522  42.968  1.00  0.00     0.016 C
HETATM   10  C9  UNL     1       9.783 -26.257  44.054  1.00  0.00     0.047 C
HETATM   11  C10 UNL     1       9.478 -24.766  43.855  1.00  0.00     0.143 C
HETATM   12  C11 UNL     1       8.133 -25.236  43.275  1.00  0.00     0.069 C
HETATM   13  C12 UNL     1       7.764 -24.341  42.127  1.00  0.00     0.036 C
HETATM   14 CL1  UNL     1       6.910 -25.215  44.526  1.00  0.00    -0.116 Cl
HETATM   15  C13 UNL     1       9.496 -26.525  41.616  1.00  0.00     0.283 C
ENDROOT
BRANCH  11  16
HETATM   16  O1  UNL     1       9.377 -24.050  45.024  1.00  0.00    -0.394 OA
ATOM     17  H1  UNL     1       9.702 -23.159  44.964  1.00  0.00     0.210 HD
ENDBRANCH  11  16
TORSDOF 1
ENDMDL