MODEL 5
REMARK VINA RESULT: -5.176688771      2.335      3.454
REMARK  1 active torsions:
REMARK  status: ('A' for Active; 'I' for Inactive)
REMARK    1  A    between atoms: O1_1  and  C1_3
ROOT
HETATM    1  C1  UNL     1       0.909 -26.834  51.142  1.00  0.00     0.126 C
HETATM    2  C2  UNL     1      -0.023 -27.937  51.575  1.00  0.00     0.021 C
HETATM    3  C3  UNL     1      -0.629 -28.681  50.414  1.00  0.00     0.039 C
HETATM    4  C4  UNL     1      -1.376 -27.681  49.568  1.00  0.00     0.124 C
HETATM    5  C5  UNL     1      -0.414 -26.652  49.014  1.00  0.00     0.039 C
HETATM    6  C6  UNL     1       0.248 -25.922  50.139  1.00  0.00     0.021 C
HETATM    7  C7  UNL     1      -0.869 -25.196  50.899  1.00  0.00     0.057 C
HETATM    8  C8  UNL     1      -1.837 -26.269  51.343  1.00  0.00     0.119 C
HETATM    9 BR1  UNL     1      -3.289 -25.407  52.264  1.00  0.00    -0.054 Br
HETATM   10  C9  UNL     1      -1.188 -27.237  52.291  1.00  0.00     0.057 C
HETATM   11  O2  UNL     1      -2.345 -26.987  50.277  1.00  0.00    -0.363 OA
ENDROOT
BRANCH   1  12
HETATM   12  O1  UNL     1       2.152 -27.271  50.763  1.00  0.00    -0.395 OA
ATOM     13  H1  UNL     1       2.826 -27.134  51.419  1.00  0.00     0.210 HD
ENDBRANCH   1  12
TORSDOF 1
ENDMDL