MODEL 1
REMARK VINA RESULT: -5.622655579      0.000      0.000
REMARK  2 active torsions:
REMARK  status: ('A' for Active; 'I' for Inactive)
REMARK    1  A    between atoms: N1_5  and  C5_6
REMARK    2  A    between atoms: C5_6  and  N2_8
ROOT
HETATM    1  N2  UNL     1      -1.349 -25.522  51.793  1.00  0.00    -0.270 N
ATOM      2  H2  UNL     1      -0.886 -24.626  51.641  1.00  0.00     0.180 HD
HETATM    3  C6  UNL     1      -2.711 -25.530  52.030  1.00  0.00     0.184 C
HETATM    4  N3  UNL     1      -3.869 -25.536  52.237  1.00  0.00    -0.172 NA
ENDROOT
BRANCH   1   5
HETATM    5  C5  UNL     1      -0.567 -26.704  51.752  1.00  0.00     0.184 C
HETATM    6  S1  UNL     1      -0.834 -27.802  52.960  1.00  0.00    -0.040 SA
BRANCH   5   7
HETATM    7  N1  UNL     1       0.399 -26.936  50.728  1.00  0.00    -0.335 N
HETATM    8  C4  UNL     1       1.708 -26.405  50.923  1.00  0.00     0.127 C
HETATM    9  C3  UNL     1       2.725 -26.783  49.923  1.00  0.00     0.024 C
HETATM   10  C2  UNL     1       2.362 -27.989  49.090  1.00  0.00    -0.014 C
HETATM   11  C1  UNL     1       3.327 -28.071  47.905  1.00  0.00     0.010 C
HETATM   12  C9  UNL     1       0.982 -27.913  48.530  1.00  0.00     0.052 C
HETATM   13  C7  UNL     1      -0.052 -27.693  49.577  1.00  0.00     0.108 C
HETATM   14  C8  UNL     1      -1.244 -27.010  48.908  1.00  0.00     0.057 C
HETATM   15 CL1  UNL     1      -0.570 -29.295  50.217  1.00  0.00    -0.096 Cl
ENDBRANCH   5   7
ENDBRANCH   1   5
TORSDOF 2
ENDMDL