MODEL 1
REMARK VINA RESULT: -4.923881986      0.000      0.000
REMARK  0 active torsions:
REMARK  status: ('A' for Active; 'I' for Inactive)
ROOT
HETATM    1 CL1  UNL     1      10.017 -27.463  44.906  1.00  0.00    -0.102 Cl
HETATM    2  C1  UNL     1       9.377 -26.813  43.355  1.00  0.00     0.191 C
HETATM    3  N1  UNL     1       8.305 -27.592  42.891  1.00  0.00    -0.375 N
HETATM    4  C2  UNL     1       7.620 -28.368  43.853  1.00  0.00     0.123 C
HETATM    5  C3  UNL     1       7.018 -27.441  44.884  1.00  0.00     0.020 C
HETATM    6  C4  UNL     1       6.647 -26.109  44.387  1.00  0.00     0.002 C
HETATM    7  C5  UNL     1       7.662 -25.103  44.025  1.00  0.00     0.015 C
HETATM    8  C6  UNL     1       8.945 -25.398  43.459  1.00  0.00     0.023 C
HETATM    9  C7  UNL     1       9.943 -24.463  44.189  1.00  0.00     0.245 C
HETATM   10  N2  UNL     1       9.409 -23.188  43.663  1.00  0.00    -0.074 N
ATOM     11  H21 UNL     1      10.063 -22.411  43.757  1.00  0.00     0.277 HD
ATOM     12  H22 UNL     1       8.662 -22.800  44.238  1.00  0.00     0.277 HD
HETATM   13  C8  UNL     1       8.998 -23.432  42.269  1.00  0.00     0.238 C
HETATM   14  C9  UNL     1       9.350 -24.822  42.078  1.00  0.00     0.029 C
HETATM   15  C10 UNL     1       9.104 -25.650  40.948  1.00  0.00     0.002 A
HETATM   16  C11 UNL     1       8.248 -25.579  39.776  1.00  0.00     0.016 A
HETATM   17  C12 UNL     1       7.677 -26.147  40.976  1.00  0.00     0.029 A
HETATM   18  C13 UNL     1       7.777 -27.465  41.612  1.00  0.00     0.065 C
ENDROOT
TORSDOF 0
ENDMDL