MODEL 5
REMARK VINA RESULT: -4.051648525     11.014     12.033
REMARK  1 active torsions:
REMARK  status: ('A' for Active; 'I' for Inactive)
REMARK    1  A    between atoms: C9_10  and  O1_11
ROOT
HETATM    1  C1  UNL     1      10.017 -24.041  41.217  1.00  0.00     0.310 C
HETATM    2  N1  UNL     1       8.968 -24.904  41.693  1.00  0.00     0.091 N
HETATM    3  C2  UNL     1       7.861 -24.915  40.732  1.00  0.00     0.279 C
HETATM    4  C3  UNL     1       8.306 -26.290  40.310  1.00  0.00     0.049 C
HETATM    5  C4  UNL     1       7.259 -27.355  40.293  1.00  0.00     0.013 C
HETATM    6  C5  UNL     1       7.861 -28.630  40.800  1.00  0.00    -0.006 C
HETATM    7  C6  UNL     1       9.009 -29.056  39.966  1.00  0.00     0.005 C
HETATM    8  C7  UNL     1       9.824 -30.163  40.535  1.00  0.00     0.003 C
HETATM    9  C8  UNL     1       9.328 -30.668  41.857  1.00  0.00     0.032 C
HETATM   10  C9  UNL     1       8.974 -29.606  42.832  1.00  0.00     0.124 C
HETATM   11  C10 UNL     1       8.149 -28.484  42.259  1.00  0.00     0.039 C
HETATM   12  C11 UNL     1       8.717 -27.147  42.636  1.00  0.00     0.123 C
HETATM   13 CL1  UNL     1       7.565 -26.164  43.585  1.00  0.00    -0.122 Cl
HETATM   14  C12 UNL     1       9.196 -26.328  41.500  1.00  0.00     0.247 C
ENDROOT
BRANCH  10  15
HETATM   15  O1  UNL     1       8.365 -30.211  43.935  1.00  0.00    -0.395 OA
ATOM     16  H1  UNL     1       8.846 -29.960  44.715  1.00  0.00     0.210 HD
ENDBRANCH  10  15
TORSDOF 1
ENDMDL