MODEL 1
REMARK VINA RESULT: -5.936395800      0.000      0.000
REMARK  3 active torsions:
REMARK  status: ('A' for Active; 'I' for Inactive)
REMARK    1  A    between atoms: O1_1  and  C1_3
REMARK    2  A    between atoms: N1_9  and  C7_10
REMARK    3  A    between atoms: C7_10  and  C8_12
ROOT
HETATM    1  C1  UNL     1       0.142 -27.347  51.639  1.00  0.00     0.143 C
HETATM    2  C2  UNL     1      -0.073 -26.032  50.877  1.00  0.00     0.059 C
HETATM    3  C3  UNL     1      -0.197 -26.421  49.415  1.00  0.00     0.088 C
HETATM    4  C4  UNL     1      -1.551 -27.022  49.163  1.00  0.00     0.027 C
HETATM    5  C5  UNL     1      -1.500 -28.243  50.086  1.00  0.00     0.030 C
HETATM    6  C6  UNL     1      -0.064 -28.352  50.534  1.00  0.00     0.114 C
HETATM    7  N1  UNL     1       0.610 -27.653  49.430  1.00  0.00    -0.362 N
ENDROOT
BRANCH   7   8
HETATM    8  C7  UNL     1       1.680 -28.025  48.635  1.00  0.00     0.100 C
HETATM    9  S1  UNL     1       1.470 -28.991  47.351  1.00  0.00    -0.063 SA
BRANCH   8  10
HETATM   10  C8  UNL     1       3.041 -27.545  48.943  1.00  0.00     0.090 A
HETATM   11 CL1  UNL     1       4.393 -28.326  48.053  1.00  0.00    -0.111 Cl
HETATM   12  C9  UNL     1       3.348 -27.017  50.302  1.00  0.00     0.035 A
HETATM   13  C10 UNL     1       3.177 -26.042  49.190  1.00  0.00     0.035 A
ENDBRANCH   8  10
ENDBRANCH   7   8
BRANCH   1  14
HETATM   14  O1  UNL     1      -0.801 -27.467  52.635  1.00  0.00    -0.393 OA
ATOM     15  H1  UNL     1      -1.666 -27.308  52.277  1.00  0.00     0.210 HD
ENDBRANCH   1  14
TORSDOF 3
ENDMDL