MODEL 2
REMARK VINA RESULT: -6.156986723      4.977      8.875
REMARK  4 active torsions:
REMARK  status: ('A' for Active; 'I' for Inactive)
REMARK    1  A    between atoms: O1_1  and  C1_3
REMARK    2  A    between atoms: C8_11  and  C9_12
REMARK    3  A    between atoms: C10_13  and  C11_14
REMARK    4  A    between atoms: C11_14  and  C12_15
ROOT
HETATM    1  C1  UNL     1       7.396 -26.815  44.637  1.00  0.00     0.150 C
HETATM    2  C2  UNL     1       8.552 -26.056  44.120  1.00  0.00     0.042 C
HETATM    3  C3  UNL     1       9.713 -26.813  43.625  1.00  0.00     0.018 C
HETATM    4  C4  UNL     1      10.016 -26.487  42.156  1.00  0.00     0.036 C
HETATM    5  C5  UNL     1       9.017 -27.398  41.479  1.00  0.00     0.273 C
HETATM    6  N1  UNL     1       8.799 -28.524  42.334  1.00  0.00     0.092 N
HETATM    7  C6  UNL     1       7.392 -28.617  42.638  1.00  0.00     0.310 C
HETATM    8  C7  UNL     1       7.037 -28.054  43.959  1.00  0.00    -0.015 C
HETATM    9  C8  UNL     1       6.233 -28.844  44.650  1.00  0.00     0.071 C
HETATM   10  C13 UNL     1       9.516 -28.307  43.555  1.00  0.00     0.277 C
ENDROOT
BRANCH   1  11
HETATM   11  O1  UNL     1       6.273 -25.954  44.519  1.00  0.00    -0.391 OA
ATOM     12  H1  UNL     1       5.958 -25.807  45.403  1.00  0.00     0.210 HD
ENDBRANCH   1  11
BRANCH   9  13
HETATM   13  C9  UNL     1       5.767 -28.477  45.970  1.00  0.00    -0.078 C
HETATM   14  C10 UNL     1       5.358 -28.172  47.067  1.00  0.00    -0.101 C
BRANCH  14  15
HETATM   15  C11 UNL     1       4.855 -27.819  48.380  1.00  0.00     0.109 C
BRANCH  15  16
HETATM   16  C12 UNL     1       3.339 -27.770  48.407  1.00  0.00     0.126 C
HETATM   17 CL1  UNL     1       2.898 -26.344  49.409  1.00  0.00    -0.130 Cl
ENDBRANCH  15  16
ENDBRANCH  14  15
ENDBRANCH   9  13
TORSDOF 4
ENDMDL