MODEL 1
REMARK VINA RESULT: -5.063262940      0.000      0.000
REMARK  3 active torsions:
REMARK  status: ('A' for Active; 'I' for Inactive)
REMARK    1  A    between atoms: C2_2  and  N1_5
REMARK    2  A    between atoms: N1_5  and  C5_7
REMARK    3  A    between atoms: C5_7  and  N2_9
ROOT
HETATM    1  C5  UNL     1       0.550 -27.465  49.452  1.00  0.00     0.170 C
HETATM    2  S1  UNL     1       0.379 -28.738  48.418  1.00  0.00    -0.041 SA
ENDROOT
BRANCH   1   3
HETATM    3  N1  UNL     1       1.567 -26.529  49.163  1.00  0.00    -0.359 N
ATOM      4  H1  UNL     1       1.313 -25.615  48.787  1.00  0.00     0.162 HD
BRANCH   3   5
HETATM    5  C2  UNL     1       2.951 -26.837  49.386  1.00  0.00     0.021 C
HETATM    6  C1  UNL     1       3.259 -27.142  50.825  1.00  0.00     0.037 C
HETATM    7  C3  UNL     1       3.818 -25.651  48.955  1.00  0.00     0.037 C
HETATM    8  C4  UNL     1       3.346 -27.995  48.490  1.00  0.00     0.037 C
ENDBRANCH   3   5
ENDBRANCH   1   3
BRANCH   1   9
HETATM    9  N2  UNL     1      -0.298 -27.328  50.586  1.00  0.00    -0.353 N
HETATM   10  C6  UNL     1       0.119 -27.556  51.949  1.00  0.00     0.151 C
HETATM   11  C7  UNL     1      -1.023 -27.781  52.873  1.00  0.00     0.189 C
HETATM   12  O1  UNL     1      -2.092 -26.950  52.713  1.00  0.00    -0.367 OA
HETATM   13  C8  UNL     1      -2.085 -26.156  51.603  1.00  0.00     0.235 C
HETATM   14 CL1  UNL     1      -0.939 -24.810  51.886  1.00  0.00    -0.094 Cl
HETATM   15  C9  UNL     1      -1.670 -26.935  50.372  1.00  0.00     0.173 C
ENDBRANCH   1   9
TORSDOF 3
ENDMDL