MODEL 4
REMARK VINA RESULT: -7.027072768      3.690      5.247
REMARK  11 active torsions:
REMARK  status: ('A' for Active; 'I' for Inactive)
REMARK    1  A    between atoms: S1_2  and  C2_3
REMARK    2  A    between atoms: C2_3  and  C3_4
REMARK    3  A    between atoms: C3_4  and  N1_5
REMARK    4  A    between atoms: C3_4  and  C4_9
REMARK    5  A    between atoms: C4_9  and  O1_10
REMARK    6  A    between atoms: C9_16  and  C10_17
REMARK    7  A    between atoms: C10_17  and  O2_18
REMARK    8  A    between atoms: C10_17  and  O3_20
REMARK    9  A    between atoms: N2_23  and  C12_24
REMARK   10  A    between atoms: C12_24  and  C13_25
REMARK       I    between atoms: C13_25  and  N3_27
REMARK   11  A    between atoms: C16_30  and  N4_31
ROOT
HETATM    1  C4  UNL     1      98.431  14.931  18.173  1.00  0.00     0.108 A
HETATM    2  C5  UNL     1      97.521  15.708  17.335  1.00  0.00     0.015 A
HETATM    3  C6  UNL     1      96.270  15.388  17.095  1.00  0.00     0.029 A
HETATM    4  C7  UNL     1      95.666  14.191  17.665  1.00  0.00     0.041 A
HETATM    5  C8  UNL     1      96.465  13.409  18.466  1.00  0.00    -0.016 A
HETATM    6  C9  UNL     1      95.699  12.350  18.896  1.00  0.00     0.020 A
HETATM    7  C11 UNL     1      94.453  12.529  18.337  1.00  0.00     0.104 A
HETATM    8  N2  UNL     1      94.428  13.662  17.576  1.00  0.00    -0.347 N
HETATM    9  C19 UNL     1      97.882  13.694  18.773  1.00  0.00     0.086 A
ENDROOT
BRANCH   8  10
HETATM   10  C12 UNL     1      93.271  14.145  16.836  1.00  0.00     0.231 C
BRANCH  10  11
HETATM   11  C13 UNL     1      93.405  13.887  15.402  1.00  0.00     0.238 C
HETATM   12  O4  UNL     1      93.432  12.661  15.050  1.00  0.00    -0.272 OA
HETATM   13  N3  UNL     1      93.500  14.896  14.439  1.00  0.00    -0.351 N
HETATM   14  C14 UNL     1      93.467  16.296  14.789  1.00  0.00     0.128 C
HETATM   15  C18 UNL     1      93.636  14.529  13.022  1.00  0.00     0.128 C
HETATM   16  C15 UNL     1      92.984  17.023  13.526  1.00  0.00     0.052 C
HETATM   17  C16 UNL     1      91.835  16.201  12.982  1.00  0.00     0.186 C
HETATM   18  C17 UNL     1      92.399  14.997  12.274  1.00  0.00     0.052 C
BRANCH  17  19
HETATM   19  N4  UNL     1      91.109  17.021  12.033  1.00  0.00    -0.075 N
ATOM     20  H43 UNL     1      91.195  18.018  12.227  1.00  0.00     0.274 HD
ATOM     21  H42 UNL     1      91.536  17.024  11.107  1.00  0.00     0.274 HD
ATOM     22  H41 UNL     1      90.140  16.704  12.019  1.00  0.00     0.274 HD
ENDBRANCH  17  19
ENDBRANCH  10  11
ENDBRANCH   8  10
BRANCH   6  23
HETATM   23  C10 UNL     1      96.101  11.215  19.792  1.00  0.00     0.290 C
BRANCH  23  24
HETATM   24  O2  UNL     1      94.997  10.409  20.102  1.00  0.00    -0.367 OA
ATOM     25  H2  UNL     1      95.115   9.529  19.763  1.00  0.00     0.213 HD
ENDBRANCH  23  24
BRANCH  23  26
HETATM   26  O3  UNL     1      97.036  10.392  19.151  1.00  0.00    -0.367 OA
ATOM     27  H3  UNL     1      97.816  10.888  18.927  1.00  0.00     0.213 HD
ENDBRANCH  23  26
ENDBRANCH   6  23
BRANCH   1  28
HETATM   28  C3  UNL     1      99.118  15.816  19.223  1.00  0.00     0.230 C
BRANCH  28  29
HETATM   29  C2  UNL     1     100.541  16.022  18.778  1.00  0.00     0.109 C
BRANCH  29  30
HETATM   30  S1  UNL     1     101.687  16.029  20.181  1.00  0.00    -0.171 SA
HETATM   31  C1  UNL     1     103.244  16.849  19.787  1.00  0.00     0.089 C
ENDBRANCH  29  30
ENDBRANCH  28  29
BRANCH  28  32
HETATM   32  N1  UNL     1      99.141  15.094  20.483  1.00  0.00    -0.071 N
ATOM     33  H13 UNL     1      99.709  15.557  21.192  1.00  0.00     0.274 HD
ATOM     34  H12 UNL     1      98.249  15.132  20.976  1.00  0.00     0.274 HD
ATOM     35  H11 UNL     1      99.447  14.139  20.295  1.00  0.00     0.274 HD
ENDBRANCH  28  32
ENDBRANCH   1  28
BRANCH   1  36
HETATM   36  O1  UNL     1      99.499  14.528  17.328  1.00  0.00    -0.383 OA
ATOM     37  H1  UNL     1      99.266  14.898  16.484  1.00  0.00     0.211 HD
ENDBRANCH   1  36
TORSDOF 11
ENDMDL