MODEL 4
REMARK VINA RESULT: -8.285204356      4.608      5.697
REMARK  8 active torsions:
REMARK  status: ('A' for Active; 'I' for Inactive)
REMARK       I    between atoms: C2_5  and  N3_6
REMARK       I    between atoms: C2_5  and  N5_11
REMARK    1  A    between atoms: N3_6  and  N4_8
REMARK    2  A    between atoms: N5_11  and  N6_13
REMARK    3  A    between atoms: C3_15  and  C4_16
REMARK    4  A    between atoms: C3_15  and  C11_30
REMARK    5  A    between atoms: C4_16  and  S1_17
REMARK    6  A    between atoms: S1_17  and  C5_18
REMARK    7  A    between atoms: C8_21  and  S2_22
REMARK    8  A    between atoms: S2_22  and  N7_23
ROOT
HETATM    1  N1  UNL     1      94.490  15.212  17.904  1.00  0.00    -0.171 NA
HETATM    2  C1  UNL     1      95.004  14.197  18.117  1.00  0.00     0.196 C
HETATM    3  N2  UNL     1      95.605  12.971  18.389  1.00  0.00    -0.123 N
ATOM      4  H2  UNL     1      95.128  12.095  18.177  1.00  0.00     0.197 HD
HETATM    5  C2  UNL     1      96.784  12.972  18.917  1.00  0.00     0.720 C
HETATM    6  N3  UNL     1      97.378  11.723  19.187  1.00  0.00    -0.137 N
ATOM      7  H3  UNL     1      97.817  11.193  18.434  1.00  0.00     0.205 HD
HETATM    8  N5  UNL     1      97.474  14.201  19.223  1.00  0.00    -0.130 N
ATOM      9  H5  UNL     1      97.635  14.499  20.185  1.00  0.00     0.205 HD
ENDROOT
BRANCH   6  10
HETATM   10  N4  UNL     1      97.365  11.217  20.474  1.00  0.00    -0.331 N
ATOM     11  H42 UNL     1      96.960  11.778  21.223  1.00  0.00     0.177 HD
ATOM     12  H41 UNL     1      97.756  10.294  20.661  1.00  0.00     0.177 HD
ENDBRANCH   6  10
BRANCH   8  13
HETATM   13  N6  UNL     1      97.905  14.956  18.152  1.00  0.00    -0.288 N
HETATM   14  C3  UNL     1      98.960  15.683  18.097  1.00  0.00     0.062 C
ATOM     15  H6  UNL     1      97.324  14.933  17.314  1.00  0.00     0.187 HD
BRANCH  14  16
HETATM   16  C4  UNL     1      99.237  16.417  16.837  1.00  0.00     0.140 C
BRANCH  16  17
HETATM   17  S1  UNL     1      99.093  15.326  15.403  1.00  0.00    -0.124 SA
BRANCH  17  18
HETATM   18  C5  UNL     1      97.352  15.230  14.957  1.00  0.00     0.001 A
HETATM   19  C6  UNL     1      96.579  16.361  14.821  1.00  0.00     0.020 A
HETATM   20  C7  UNL     1      95.253  16.253  14.480  1.00  0.00     0.026 A
HETATM   21  C8  UNL     1      94.666  15.027  14.266  1.00  0.00     0.079 A
HETATM   22  C9  UNL     1      95.430  13.906  14.401  1.00  0.00     0.026 A
HETATM   23  C10 UNL     1      96.762  13.998  14.743  1.00  0.00     0.020 A
BRANCH  21  24
HETATM   24  S2  UNL     1      92.975  14.999  13.836  1.00  0.00     0.256 S
HETATM   25  O1  UNL     1      92.307  13.959  14.706  1.00  0.00    -0.201 OA
HETATM   26  O2  UNL     1      92.396  16.361  14.103  1.00  0.00    -0.201 OA
BRANCH  24  27
HETATM   27  N7  UNL     1      92.719  14.612  12.197  1.00  0.00    -0.324 N
ATOM     28  H72 UNL     1      93.185  15.102  11.434  1.00  0.00     0.169 HD
ATOM     29  H71 UNL     1      92.057  13.846  12.072  1.00  0.00     0.169 HD
ENDBRANCH  24  27
ENDBRANCH  21  24
ENDBRANCH  17  18
ENDBRANCH  16  17
ENDBRANCH  14  16
BRANCH  14  30
HETATM   30  C11 UNL     1      99.910  15.831  19.210  1.00  0.00     0.059 A
HETATM   31  C12 UNL     1     101.237  16.122  18.982  1.00  0.00     0.048 A
HETATM   32  C13 UNL     1     102.145  16.265  20.009  1.00  0.00     0.091 A
HETATM   33  N8  UNL     1     101.712  16.115  21.272  1.00  0.00    -0.362 N
HETATM   34  C14 UNL     1     100.415  15.831  21.493  1.00  0.00     0.180 A
ATOM     35  H8  UNL     1     102.358  16.215  22.054  1.00  0.00     0.165 HD
HETATM   36  N9  UNL     1      99.531  15.691  20.490  1.00  0.00    -0.351 N
ATOM     37  H9  UNL     1      98.557  15.474  20.705  1.00  0.00     0.166 HD
ENDBRANCH  14  30
ENDBRANCH   8  13
TORSDOF 8
ENDMDL