MODEL 1
REMARK VINA RESULT: -7.823852253      0.000      0.000
REMARK  8 active torsions:
REMARK  status: ('A' for Active; 'I' for Inactive)
REMARK       I    between atoms: C1_4  and  N3_6
REMARK    1  A    between atoms: C3_8  and  C4_9
REMARK    2  A    between atoms: C5_12  and  S1_13
REMARK    3  A    between atoms: S1_13  and  C6_14
REMARK    4  A    between atoms: C6_14  and  C7_15
REMARK    5  A    between atoms: C7_15  and  C8_16
REMARK    6  A    between atoms: C8_16  and  N4_17
REMARK    7  A    between atoms: C11_20  and  O3_21
REMARK    8  A    between atoms: N5_29  and  O4_30
ROOT
HETATM    1  N1  UNL     1      92.951  15.934  13.269  1.00  0.00    -0.373 N
ATOM      2  H11 UNL     1      92.777  15.169  12.618  1.00  0.00     0.158 HD
ATOM      3  H12 UNL     1      92.829  16.902  12.973  1.00  0.00     0.158 HD
HETATM    4  C1  UNL     1      93.351  15.648  14.461  1.00  0.00     0.201 C
HETATM    5  N2  UNL     1      93.591  16.709  15.363  1.00  0.00    -0.062 NA
HETATM    6  N3  UNL     1      93.516  14.334  14.862  1.00  0.00    -0.250 N
HETATM    7  C2  UNL     1      94.441  13.564  15.649  1.00  0.00     0.164 C
HETATM    8  C3  UNL     1      95.678  14.082  16.079  1.00  0.00     0.057 C
HETATM    9  C5  UNL     1      96.180  14.042  17.299  1.00  0.00     0.003 C
HETATM   10  C14 UNL     1      95.541  13.429  18.500  1.00  0.00     0.121 C
HETATM   11  S2  UNL     1      94.230  12.262  17.940  1.00  0.00    -0.155 SA
HETATM   12  C15 UNL     1      93.384  13.248  16.726  1.00  0.00     0.094 C
HETATM   13  C16 UNL     1      92.400  12.583  15.830  1.00  0.00     0.164 C
HETATM   14  N5  UNL     1      92.551  13.310  14.536  1.00  0.00    -0.101 NA
ENDROOT
BRANCH   9  15
HETATM   15  S1  UNL     1      97.801  14.759  17.691  1.00  0.00    -0.133 SA
BRANCH  15  16
HETATM   16  C6  UNL     1      98.562  13.811  19.010  1.00  0.00     0.081 C
BRANCH  16  17
HETATM   17  C7  UNL     1      99.996  14.158  19.301  1.00  0.00     0.041 C
BRANCH  17  18
HETATM   18  C8  UNL     1      99.982  14.904  20.630  1.00  0.00     0.273 C
BRANCH  18  19
HETATM   19  N4  UNL     1     100.792  16.096  20.622  1.00  0.00     0.088 N
HETATM   20  C9  UNL     1     101.394  16.397  21.866  1.00  0.00     0.275 C
HETATM   21  C10 UNL     1     102.806  15.881  22.007  1.00  0.00     0.062 C
HETATM   22  C11 UNL     1     103.659  16.601  21.007  1.00  0.00     0.121 C
HETATM   23  C12 UNL     1     102.987  16.719  19.691  1.00  0.00     0.062 C
HETATM   24  C13 UNL     1     101.705  15.993  19.517  1.00  0.00     0.275 C
BRANCH  22  25
HETATM   25  O3  UNL     1     104.871  15.902  20.890  1.00  0.00    -0.395 OA
ATOM     26  H3  UNL     1     104.816  15.349  20.119  1.00  0.00     0.210 HD
ENDBRANCH  22  25
ENDBRANCH  18  19
ENDBRANCH  17  18
ENDBRANCH  16  17
ENDBRANCH  15  16
ENDBRANCH   9  15
BRANCH   8  27
HETATM   27  C4  UNL     1      96.554  14.772  15.083  1.00  0.00     0.208 C
HETATM   28  O1  UNL     1      96.643  16.022  15.150  1.00  0.00    -0.644 OA
HETATM   29  O2  UNL     1      97.240  14.050  14.128  1.00  0.00    -0.644 OA
ENDBRANCH   8  27
BRANCH  14  30
HETATM   30  O4  UNL     1      91.402  13.825  14.121  1.00  0.00    -0.293 OA
ATOM     31  H4  UNL     1      90.661  13.282  14.364  1.00  0.00     0.239 HD
ENDBRANCH  14  30
TORSDOF 8
ENDMDL