MODEL 4
REMARK VINA RESULT: -6.895795365      3.082      5.210
REMARK  13 active torsions:
REMARK  status: ('A' for Active; 'I' for Inactive)
REMARK    1  A    between atoms: O1_2  and  C2_3
REMARK    2  A    between atoms: C2_3  and  C3_5
REMARK    3  A    between atoms: C3_5  and  N1_6
REMARK    4  A    between atoms: C3_5  and  C4_10
REMARK    5  A    between atoms: C4_10  and  O3_11
REMARK    6  A    between atoms: C4_10  and  C5_13
REMARK    7  A    between atoms: C5_13  and  O4_14
REMARK    8  A    between atoms: C5_13  and  C6_16
REMARK    9  A    between atoms: C7_17  and  C8_18
REMARK   10  A    between atoms: C10_22  and  O7_23
REMARK   11  A    between atoms: C17_31  and  N2_32
REMARK   12  A    between atoms: N2_32  and  N3_34
REMARK   13  A    between atoms: N3_34  and  N4_35
ROOT
HETATM    1  C6  UNL     1      98.423  15.959  17.461  1.00  0.00     0.041 C
HETATM    2  C7  UNL     1      97.245  15.084  17.200  1.00  0.00     0.097 C
HETATM    3  C9  UNL     1      97.560  14.450  15.792  1.00  0.00     0.054 C
HETATM    4  C10 UNL     1      98.069  15.608  15.102  1.00  0.00     0.066 C
HETATM    5  C11 UNL     1      99.308  15.464  14.267  1.00  0.00     0.045 C
HETATM    6  C12 UNL     1      99.561  16.961  14.110  1.00  0.00     0.020 C
HETATM    7  C13 UNL     1     100.633  17.335  13.236  1.00  0.00     0.007 C
HETATM    8  C14 UNL     1     102.018  17.396  13.815  1.00  0.00     0.001 C
HETATM    9  C15 UNL     1     101.869  18.195  15.092  1.00  0.00     0.002 C
HETATM   10  C16 UNL     1     101.025  17.295  16.019  1.00  0.00     0.034 C
HETATM   11  C17 UNL     1      99.634  17.355  15.593  1.00  0.00     0.070 C
HETATM   12  C18 UNL     1      98.541  16.624  16.147  1.00  0.00     0.058 C
ENDROOT
BRANCH   1  13
HETATM   13  C5  UNL     1      99.515  15.441  18.202  1.00  0.00     0.155 C
BRANCH  13  14
HETATM   14  C4  UNL     1      99.651  15.737  19.661  1.00  0.00     0.187 C
BRANCH  14  15
HETATM   15  C3  UNL     1     101.026  16.224  20.111  1.00  0.00     0.313 C
BRANCH  15  16
HETATM   16  C2  UNL     1     101.229  16.015  21.566  1.00  0.00     0.291 C
HETATM   17  O2  UNL     1     102.378  15.813  21.992  1.00  0.00    -0.263 OA
BRANCH  16  18
HETATM   18  O1  UNL     1     100.178  16.042  22.429  1.00  0.00    -0.325 OA
HETATM   19  C1  UNL     1     100.267  15.983  23.837  1.00  0.00     0.213 C
ENDBRANCH  16  18
ENDBRANCH  15  16
BRANCH  15  20
HETATM   20  N1  UNL     1     102.110  15.792  19.321  1.00  0.00    -0.063 N
ATOM     21  H13 UNL     1     102.738  16.569  19.116  1.00  0.00     0.275 HD
ATOM     22  H12 UNL     1     102.741  15.204  19.865  1.00  0.00     0.275 HD
ATOM     23  H11 UNL     1     101.829  15.320  18.463  1.00  0.00     0.275 HD
ENDBRANCH  15  20
ENDBRANCH  14  15
BRANCH  14  24
HETATM   24  O3  UNL     1      99.537  14.452  20.348  1.00  0.00    -0.390 OA
ATOM     25  H3  UNL     1     100.370  14.042  20.148  1.00  0.00     0.210 HD
ENDBRANCH  14  24
ENDBRANCH  13  14
BRANCH  13  26
HETATM   26  O4  UNL     1      99.510  13.975  18.185  1.00  0.00    -0.393 OA
ATOM     27  H4  UNL     1      98.580  13.780  18.175  1.00  0.00     0.210 HD
ENDBRANCH  13  26
ENDBRANCH   1  13
BRANCH   2  28
HETATM   28  C8  UNL     1      96.793  14.043  18.051  1.00  0.00     0.177 C
HETATM   29  O5  UNL     1      96.574  14.227  19.265  1.00  0.00    -0.648 OA
HETATM   30  O6  UNL     1      96.564  12.754  17.604  1.00  0.00    -0.648 OA
ENDBRANCH   2  28
BRANCH   4  31
HETATM   31  O7  UNL     1      97.095  16.116  14.242  1.00  0.00    -0.389 OA
ATOM     32  H7  UNL     1      97.505  16.624  13.551  1.00  0.00     0.210 HD
ENDBRANCH   4  31
BRANCH  11  33
HETATM   33  N2  UNL     1      99.351  18.816  15.530  1.00  0.00    -0.242 N
ATOM     34  H2  UNL     1     100.074  19.493  15.778  1.00  0.00     0.198 HD
BRANCH  33  35
HETATM   35  N3  UNL     1      98.252  19.193  15.181  1.00  0.00    -0.248 NA
BRANCH  35  36
HETATM   36  N4  UNL     1      97.170  19.406  14.666  1.00  0.00    -0.261 N
ATOM     37  H42 UNL     1      96.906  19.976  15.470  1.00  0.00     0.193 HD
ATOM     38  H41 UNL     1      96.330  19.472  14.089  1.00  0.00     0.193 HD
ENDBRANCH  35  36
ENDBRANCH  33  35
ENDBRANCH  11  33
TORSDOF 13
ENDMDL