MODEL 5
REMARK VINA RESULT: -7.603854855      3.649      8.774
REMARK  8 active torsions:
REMARK  status: ('A' for Active; 'I' for Inactive)
REMARK    1  A    between atoms: C5_5  and  O1_6
REMARK    2  A    between atoms: O1_6  and  C6_7
REMARK    3  A    between atoms: C10_13  and  N1_14
REMARK       I    between atoms: N1_14  and  C11_16
REMARK    4  A    between atoms: C11_16  and  C12_18
REMARK    5  A    between atoms: C12_18  and  C13_19
REMARK    6  A    between atoms: C12_18  and  N2_23
REMARK    7  A    between atoms: C13_19  and  C14_20
REMARK       I    between atoms: N2_23  and  C15_24
REMARK    8  A    between atoms: C15_24  and  C16_26
ROOT
HETATM    1  N1  UNL     1      97.637  13.964  17.473  1.00  0.00    -0.349 N
ATOM      2  H1  UNL     1      98.313  13.213  17.339  1.00  0.00     0.163 HD
HETATM    3  C11 UNL     1      98.130  15.262  17.662  1.00  0.00     0.254 C
HETATM    4  O3  UNL     1      97.313  16.192  17.828  1.00  0.00    -0.270 OA
ENDROOT
BRANCH   1   5
HETATM    5  C10 UNL     1      96.234  13.619  17.456  1.00  0.00     0.127 C
HETATM    6  C3  UNL     1      95.720  13.485  16.069  1.00  0.00    -0.030 C
HETATM    7  C2  UNL     1      96.515  13.413  15.027  1.00  0.00    -0.021 C
HETATM    8  C4  UNL     1      94.285  13.403  15.848  1.00  0.00    -0.018 C
HETATM    9  C1  UNL     1      96.187  13.254  13.615  1.00  0.00     0.036 C
HETATM   10  C5  UNL     1      93.673  14.138  14.930  1.00  0.00     0.154 C
HETATM   11  C8  UNL     1      93.421  12.457  16.641  1.00  0.00     0.115 C
HETATM   12  S1  UNL     1      94.124  12.246  18.293  1.00  0.00    -0.162 SA
HETATM   13  C9  UNL     1      95.932  12.362  18.210  1.00  0.00     0.104 C
BRANCH  10  14
HETATM   14  O1  UNL     1      92.320  14.066  14.716  1.00  0.00    -0.291 OA
BRANCH  14  15
HETATM   15  C6  UNL     1      91.741  14.322  13.467  1.00  0.00     0.259 C
HETATM   16  C7  UNL     1      92.547  14.661  12.273  1.00  0.00     0.126 C
HETATM   17  O2  UNL     1      90.493  14.263  13.356  1.00  0.00    -0.265 OA
ENDBRANCH  14  15
ENDBRANCH  10  14
ENDBRANCH   1   5
BRANCH   3  18
HETATM   18  C12 UNL     1      99.603  15.532  17.663  1.00  0.00     0.268 C
BRANCH  18  19
HETATM   19  C13 UNL     1     100.007  16.136  19.014  1.00  0.00     0.162 C
BRANCH  19  20
HETATM   20  C14 UNL     1     100.092  15.169  20.101  1.00  0.00     0.176 C
HETATM   21  O4  UNL     1     100.305  15.384  21.306  1.00  0.00    -0.648 OA
HETATM   22  O5  UNL     1      99.915  13.802  19.775  1.00  0.00    -0.648 OA
ENDBRANCH  19  20
ENDBRANCH  18  19
BRANCH  18  23
HETATM   23  N2  UNL     1     100.042  16.274  16.566  1.00  0.00    -0.390 NA
HETATM   24  C15 UNL     1     100.462  16.997  15.518  1.00  0.00     0.388 C
HETATM   25  O6  UNL     1     100.577  18.287  15.506  1.00  0.00    -0.244 OA
BRANCH  24  26
HETATM   26  C16 UNL     1     100.871  16.436  14.201  1.00  0.00     0.285 C
HETATM   27  O7  UNL     1     101.767  17.003  13.571  1.00  0.00    -0.640 OA
HETATM   28  O8  UNL     1     100.250  15.315  13.721  1.00  0.00    -0.640 OA
ENDBRANCH  24  26
ENDBRANCH  18  23
ENDBRANCH   3  18
TORSDOF 8
ENDMDL