MODEL 2
REMARK VINA RESULT: -8.646986801      3.952      8.757
REMARK  7 active torsions:
REMARK  status: ('A' for Active; 'I' for Inactive)
REMARK       I    between atoms: C2_5  and  N3_6
REMARK       I    between atoms: C2_5  and  N5_10
REMARK    1  A    between atoms: N5_10  and  N6_12
REMARK       I    between atoms: N6_12  and  C4_14
REMARK    2  A    between atoms: C4_14  and  C5_16
REMARK    3  A    between atoms: C8_19  and  N7_20
REMARK    4  A    between atoms: N7_20  and  N8_21
REMARK    5  A    between atoms: N7_20  and  C9_24
REMARK    6  A    between atoms: C9_24  and  C10_25
REMARK    7  A    between atoms: N9_27  and  C12_28
ROOT
HETATM    1  N1  UNL     1     104.134  20.741  13.096  1.00  0.00    -0.171 NA
HETATM    2  C1  UNL     1     104.853  19.831  12.990  1.00  0.00     0.196 C
HETATM    3  N2  UNL     1     105.710  18.733  12.870  1.00  0.00    -0.124 N
ATOM      4  H2  UNL     1     106.655  18.804  13.246  1.00  0.00     0.197 HD
HETATM    5  C2  UNL     1     105.350  17.638  12.303  1.00  0.00     0.715 C
HETATM    6  N3  UNL     1     106.243  16.541  12.195  1.00  0.00    -0.124 N
ATOM      7  H3  UNL     1     106.879  16.294  12.953  1.00  0.00     0.197 HD
HETATM    8  C3  UNL     1     106.211  15.814  10.997  1.00  0.00     0.196 C
HETATM    9  N4  UNL     1     106.197  15.223  10.001  1.00  0.00    -0.171 NA
HETATM   10  N5  UNL     1     104.048  17.506  11.767  1.00  0.00    -0.128 N
ATOM     11  H5  UNL     1     103.865  17.813  10.812  1.00  0.00     0.205 HD
ENDROOT
BRANCH  10  12
HETATM   12  N6  UNL     1     103.014  16.967  12.520  1.00  0.00    -0.251 N
HETATM   13  C4  UNL     1     101.728  17.538  12.633  1.00  0.00     0.270 C
HETATM   14  O1  UNL     1     101.441  18.605  12.032  1.00  0.00    -0.266 OA
ATOM     15  H6  UNL     1     103.195  16.100  13.026  1.00  0.00     0.191 HD
BRANCH  13  16
HETATM   16  C5  UNL     1     100.710  16.900  13.447  1.00  0.00     0.033 A
HETATM   17  C6  UNL     1     100.827  15.551  13.729  1.00  0.00     0.019 A
HETATM   18  C7  UNL     1      99.881  14.929  14.488  1.00  0.00     0.032 A
HETATM   19  C8  UNL     1      98.818  15.656  14.965  1.00  0.00     0.050 A
HETATM   20  C16 UNL     1      98.661  16.997  14.711  1.00  0.00     0.032 A
HETATM   21  C17 UNL     1      99.636  17.624  13.931  1.00  0.00     0.019 A
BRANCH  19  22
HETATM   22  N7  UNL     1      97.829  15.019  15.757  1.00  0.00    -0.293 N
BRANCH  22  23
HETATM   23  N8  UNL     1      97.187  13.878  15.269  1.00  0.00    -0.342 N
ATOM     24  H82 UNL     1      96.856  13.800  14.307  1.00  0.00     0.177 HD
ATOM     25  H81 UNL     1      97.038  13.082  15.889  1.00  0.00     0.177 HD
ENDBRANCH  22  23
BRANCH  22  26
HETATM   26  C9  UNL     1      97.529  15.590  17.047  1.00  0.00     0.208 C
BRANCH  26  27
HETATM   27  C10 UNL     1      98.582  15.163  17.998  1.00  0.00     0.060 A
HETATM   28  C11 UNL     1      98.965  15.910  19.093  1.00  0.00     0.144 A
HETATM   29  N9  UNL     1      99.944  15.231  19.745  1.00  0.00    -0.233 N
HETATM   30  N11 UNL     1     100.157  14.099  19.066  1.00  0.00    -0.014 NA
HETATM   31  N12 UNL     1      99.342  14.055  18.019  1.00  0.00    -0.285 N
ATOM     32  H12 UNL     1      99.300  13.299  17.335  1.00  0.00     0.184 HD
BRANCH  29  33
HETATM   33  C12 UNL     1     100.588  15.685  20.924  1.00  0.00     0.125 A
HETATM   34  C13 UNL     1     101.911  16.107  21.039  1.00  0.00     0.051 A
HETATM   35  C14 UNL     1     102.169  16.470  22.333  1.00  0.00     0.021 A
HETATM   36  C15 UNL     1     100.996  16.269  23.024  1.00  0.00     0.090 A
HETATM   37  N10 UNL     1     100.060  15.796  22.152  1.00  0.00    -0.351 N
ATOM     38  H10 UNL     1      99.098  15.561  22.399  1.00  0.00     0.166 HD
ENDBRANCH  29  33
ENDBRANCH  26  27
ENDBRANCH  22  26
ENDBRANCH  19  22
ENDBRANCH  13  16
ENDBRANCH  10  12
TORSDOF 7
ENDMDL