MODEL 1
REMARK VINA RESULT: -7.465620241      0.000      0.000
REMARK  9 active torsions:
REMARK  status: ('A' for Active; 'I' for Inactive)
REMARK    1  A    between atoms: N1_1  and  C1_5
REMARK    2  A    between atoms: C1_5  and  C2_6
REMARK    3  A    between atoms: C1_5  and  C3_8
REMARK       I    between atoms: C3_8  and  N2_10
REMARK    4  A    between atoms: N2_10  and  C4_12
REMARK    5  A    between atoms: C4_12  and  C5_13
REMARK    6  A    between atoms: C4_12  and  C8_30
REMARK       I    between atoms: C5_13  and  N3_15
REMARK    7  A    between atoms: N3_15  and  C6_17
REMARK    8  A    between atoms: C7_20  and  S2_21
REMARK    9  A    between atoms: S2_21  and  N5_22
ROOT
HETATM    1  C4  UNL     1      98.577  15.109  18.229  1.00  0.00     0.181 C
ENDROOT
BRANCH   1   2
HETATM    2  N2  UNL     1      98.068  13.755  18.039  1.00  0.00    -0.346 N
HETATM    3  C3  UNL     1      96.826  13.340  18.561  1.00  0.00     0.249 C
HETATM    4  O1  UNL     1      96.122  14.146  19.210  1.00  0.00    -0.271 OA
ATOM      5  H2  UNL     1      98.629  13.087  17.512  1.00  0.00     0.163 HD
BRANCH   3   6
HETATM    6  C1  UNL     1      96.342  11.970  18.351  1.00  0.00     0.284 C
BRANCH   6   7
HETATM    7  N1  UNL     1      97.110  11.012  19.129  1.00  0.00    -0.066 N
ATOM      8  H13 UNL     1      96.986  11.118  20.135  1.00  0.00     0.275 HD
ATOM      9  H12 UNL     1      96.756  10.058  19.057  1.00  0.00     0.275 HD
ATOM     10  H11 UNL     1      98.080  11.105  18.830  1.00  0.00     0.275 HD
ENDBRANCH   6   7
BRANCH   6  11
HETATM   11  C2  UNL     1      94.896  11.825  18.790  1.00  0.00     0.128 C
HETATM   12  S1  UNL     1      93.825  12.338  17.444  1.00  0.00    -0.095 SA
ENDBRANCH   6  11
ENDBRANCH   3   6
ENDBRANCH   1   2
BRANCH   1  13
HETATM   13  C5  UNL     1      98.429  15.919  17.000  1.00  0.00     0.246 C
HETATM   14  O2  UNL     1      97.714  16.946  17.031  1.00  0.00    -0.271 OA
HETATM   15  N3  UNL     1      99.077  15.540  15.829  1.00  0.00    -0.304 N
ATOM     16  H3  UNL     1      99.022  14.558  15.562  1.00  0.00     0.171 HD
BRANCH  15  17
HETATM   17  C6  UNL     1      99.740  16.326  15.053  1.00  0.00     0.169 A
HETATM   18  N4  UNL     1      99.978  17.637  15.134  1.00  0.00    -0.310 N
HETATM   19  C7  UNL     1     100.693  18.187  14.194  1.00  0.00     0.232 A
ATOM     20  H4  UNL     1      99.612  18.190  15.908  1.00  0.00     0.170 HD
HETATM   21  N6  UNL     1     101.146  17.413  13.208  1.00  0.00    -0.298 N
HETATM   22  S3  UNL     1     100.547  15.887  13.623  1.00  0.00     0.025 SA
ATOM     23  H6  UNL     1     101.713  17.675  12.402  1.00  0.00     0.176 HD
BRANCH  19  24
HETATM   24  S2  UNL     1     101.102  19.921  14.154  1.00  0.00     0.289 S
HETATM   25  O3  UNL     1     100.036  20.709  14.864  1.00  0.00    -0.198 OA
HETATM   26  O4  UNL     1     101.142  20.409  12.737  1.00  0.00    -0.198 OA
BRANCH  24  27
HETATM   27  N5  UNL     1     102.593  20.219  14.960  1.00  0.00    -0.322 N
ATOM     28  H52 UNL     1     103.187  21.026  14.771  1.00  0.00     0.169 HD
ATOM     29  H51 UNL     1     102.791  19.487  15.642  1.00  0.00     0.169 HD
ENDBRANCH  24  27
ENDBRANCH  19  24
ENDBRANCH  15  17
ENDBRANCH   1  13
BRANCH   1  30
HETATM   30  C8  UNL     1     100.031  14.978  18.643  1.00  0.00     0.018 C
HETATM   31  C9  UNL     1     100.788  16.279  18.548  1.00  0.00     0.007 C
HETATM   32  C10 UNL     1     101.941  16.192  19.552  1.00  0.00     0.000 C
HETATM   33  C11 UNL     1     101.468  16.229  20.967  1.00  0.00     0.000 C
HETATM   34  C12 UNL     1     100.141  15.519  21.062  1.00  0.00     0.000 C
HETATM   35  C13 UNL     1     100.142  14.411  20.022  1.00  0.00     0.007 C
ENDBRANCH   1  30
TORSDOF 9
ENDMDL