MODEL 4
REMARK VINA RESULT: -7.408017126      0.941      1.149
REMARK  10 active torsions:
REMARK  status: ('A' for Active; 'I' for Inactive)
REMARK    1  A    between atoms: C2_2  and  C3_3
REMARK    2  A    between atoms: C2_2  and  C7_10
REMARK    3  A    between atoms: C3_3  and  C4_4
REMARK    4  A    between atoms: C4_4  and  C5_5
REMARK    5  A    between atoms: C5_5  and  C6_7
REMARK    6  A    between atoms: C7_10  and  O4_11
REMARK    7  A    between atoms: C9_14  and  O5_16
REMARK    8  A    between atoms: C11_18  and  C12_19
REMARK    9  A    between atoms: C12_19  and  O6_20
REMARK   10  A    between atoms: C18_28  and  O8_29
ROOT
HETATM    1  C7  UNL     1      96.761  15.546  16.586  1.00  0.00     0.074 C
HETATM    2  C8  UNL     1      96.835  14.232  17.244  1.00  0.00     0.079 C
HETATM    3  C9  UNL     1      96.040  13.570  18.224  1.00  0.00     0.085 C
HETATM    4  C10 UNL     1      96.769  12.176  18.295  1.00  0.00     0.049 C
HETATM    5  C11 UNL     1      94.643  13.294  18.355  1.00  0.00     0.180 C
HETATM    6  O7  UNL     1      93.674  13.424  17.377  1.00  0.00    -0.362 OA
HETATM    7  C13 UNL     1      94.007  14.410  16.558  1.00  0.00     0.128 C
HETATM    8  C14 UNL     1      94.111  15.582  17.347  1.00  0.00     0.047 C
HETATM    9  C15 UNL     1      94.676  16.799  16.600  1.00  0.00     0.019 C
HETATM   10  C16 UNL     1      95.669  15.991  15.718  1.00  0.00     0.026 C
HETATM   11  C17 UNL     1      96.048  17.138  14.767  1.00  0.00     0.022 C
HETATM   12  C18 UNL     1      94.812  15.138  14.919  1.00  0.00     0.134 C
HETATM   13  C19 UNL     1      93.320  14.968  15.362  1.00  0.00     0.093 C
HETATM   14  C20 UNL     1      94.748  13.825  15.486  1.00  0.00     0.196 C
HETATM   15  O9  UNL     1      95.176  12.769  15.114  1.00  0.00    -0.291 OA
ENDROOT
BRANCH   1  16
HETATM   16  C2  UNL     1      98.172  15.768  15.988  1.00  0.00     0.017 C
HETATM   17  C1  UNL     1      98.323  15.399  14.574  1.00  0.00     0.013 C
BRANCH  16  18
HETATM   18  C3  UNL     1      98.929  16.930  16.509  1.00  0.00     0.015 C
BRANCH  18  19
HETATM   19  C4  UNL     1     100.423  16.542  16.679  1.00  0.00     0.091 C
BRANCH  19  20
HETATM   20  C5  UNL     1     100.727  16.281  18.082  1.00  0.00     0.225 C
HETATM   21  O1  UNL     1     101.713  16.827  18.668  1.00  0.00    -0.286 OA
BRANCH  20  22
HETATM   22  C6  UNL     1      99.894  15.375  18.854  1.00  0.00     0.246 C
HETATM   23  O2  UNL     1     100.097  14.144  18.738  1.00  0.00    -0.642 OA
HETATM   24  O3  UNL     1      98.893  15.791  19.704  1.00  0.00    -0.642 OA
ENDBRANCH  20  22
ENDBRANCH  19  20
ENDBRANCH  18  19
ENDBRANCH  16  18
ENDBRANCH   1  16
BRANCH   1  25
HETATM   25  O4  UNL     1      96.847  16.469  17.682  1.00  0.00    -0.388 OA
ATOM     26  H4  UNL     1      97.231  15.887  18.327  1.00  0.00     0.210 HD
ENDBRANCH   1  25
BRANCH   3  27
HETATM   27  O5  UNL     1      96.453  13.989  19.552  1.00  0.00    -0.387 OA
ATOM     28  H5  UNL     1      97.237  13.516  19.806  1.00  0.00     0.210 HD
ENDBRANCH   3  27
BRANCH  12  29
HETATM   29  O8  UNL     1      94.802  15.289  13.542  1.00  0.00    -0.381 OA
ATOM     30  H8  UNL     1      95.624  15.409  13.082  1.00  0.00     0.211 HD
ENDBRANCH  12  29
BRANCH   5  31
HETATM   31  C12 UNL     1      94.293  11.891  18.918  1.00  0.00     0.199 C
BRANCH  31  32
HETATM   32  O6  UNL     1      93.646  11.956  20.116  1.00  0.00    -0.398 OA
ATOM     33  H6  UNL     1      93.437  11.097  20.463  1.00  0.00     0.209 HD
ENDBRANCH  31  32
ENDBRANCH   5  31
TORSDOF 10
ENDMDL