MODEL 1
REMARK VINA RESULT: -8.475862785      0.000      0.000
REMARK  9 active torsions:
REMARK  status: ('A' for Active; 'I' for Inactive)
REMARK       I    between atoms: C1_2  and  N1_3
REMARK    1  A    between atoms: C1_2  and  C8_19
REMARK    2  A    between atoms: N1_3  and  S1_5
REMARK    3  A    between atoms: S1_5  and  C2_8
REMARK    4  A    between atoms: C2_8  and  C3_9
REMARK    5  A    between atoms: C3_9  and  C4_10
REMARK    6  A    between atoms: C4_10  and  O4_11
REMARK    7  A    between atoms: C8_19  and  O5_20
REMARK    8  A    between atoms: C8_19  and  N3_22
REMARK    9  A    between atoms: N3_22  and  C9_24
ROOT
HETATM    1  O1  UNL     1      96.713  16.086  17.605  1.00  0.00    -0.268 OA
HETATM    2  C1  UNL     1      97.869  15.544  17.646  1.00  0.00     0.279 C
HETATM    3  N1  UNL     1      97.973  14.131  17.844  1.00  0.00    -0.251 N
ATOM      4  H1  UNL     1      98.879  13.664  17.871  1.00  0.00     0.181 HD
ENDROOT
BRANCH   2   5
HETATM    5  C8  UNL     1      99.043  16.409  17.485  1.00  0.00     0.313 C
BRANCH   5   6
HETATM    6  O5  UNL     1      98.954  17.029  16.240  1.00  0.00    -0.368 OA
ATOM      7  H5  UNL     1      99.817  17.352  16.010  1.00  0.00     0.212 HD
ENDBRANCH   5   6
BRANCH   5   8
HETATM    8  N3  UNL     1     100.315  15.854  17.768  1.00  0.00    -0.356 N
ATOM      9  H3  UNL     1     100.746  15.265  17.055  1.00  0.00     0.162 HD
BRANCH   8  10
HETATM   10  C9  UNL     1     101.044  16.066  18.993  1.00  0.00     0.031 A
HETATM   11  C10 UNL     1     102.341  16.419  19.035  1.00  0.00     0.030 A
HETATM   12  C11 UNL     1     102.963  16.590  20.268  1.00  0.00     0.015 A
HETATM   13  C12 UNL     1     102.285  16.407  21.480  1.00  0.00    -0.019 A
HETATM   14  C13 UNL     1     102.871  16.572  22.711  1.00  0.00     0.061 A
HETATM   15  C15 UNL     1     101.000  16.059  21.446  1.00  0.00    -0.017 A
HETATM   16  S2  UNL     1     101.587  16.231  23.787  1.00  0.00    -0.112 SA
HETATM   17  C14 UNL     1     100.366  15.893  22.657  1.00  0.00     0.061 A
HETATM   18  C16 UNL     1     100.370  15.885  20.208  1.00  0.00     0.042 A
ENDBRANCH   8  10
ENDBRANCH   5   8
ENDBRANCH   2   5
BRANCH   3  19
HETATM   19  S1  UNL     1      96.483  13.240  18.039  1.00  0.00     0.233 S
HETATM   20  O2  UNL     1      95.711  13.959  19.117  1.00  0.00    -0.206 OA
HETATM   21  O3  UNL     1      96.809  11.839  18.414  1.00  0.00    -0.206 OA
BRANCH  19  22
HETATM   22  C2  UNL     1      95.628  13.268  16.494  1.00  0.00     0.176 C
BRANCH  22  23
HETATM   23  C3  UNL     1      94.154  13.384  16.629  1.00  0.00     0.021 C
HETATM   24  C5  UNL     1      93.542  12.951  15.272  1.00  0.00     0.041 C
HETATM   25  C6  UNL     1      92.257  12.258  15.715  1.00  0.00     0.233 C
HETATM   26  N2  UNL     1      92.702  11.577  16.890  1.00  0.00    -0.074 N
HETATM   27  C7  UNL     1      93.595  12.418  17.623  1.00  0.00     0.245 C
ATOM     28  H22 UNL     1      91.924  11.251  17.463  1.00  0.00     0.277 HD
ATOM     29  H21 UNL     1      93.117  10.670  16.675  1.00  0.00     0.277 HD
BRANCH  23  30
HETATM   30  C4  UNL     1      93.658  14.792  16.853  1.00  0.00     0.176 C
BRANCH  30  31
HETATM   31  O4  UNL     1      93.181  14.947  18.147  1.00  0.00    -0.400 OA
ATOM     32  H4  UNL     1      93.043  15.865  18.348  1.00  0.00     0.209 HD
ENDBRANCH  30  31
ENDBRANCH  23  30
ENDBRANCH  22  23
ENDBRANCH  19  22
ENDBRANCH   3  19
TORSDOF 9
ENDMDL