MODEL 3
REMARK VINA RESULT: -8.119456749      2.228      2.942
REMARK  9 active torsions:
REMARK  status: ('A' for Active; 'I' for Inactive)
REMARK       I    between atoms: C1_2  and  N2_4
REMARK       I    between atoms: N2_4  and  C2_6
REMARK    1  A    between atoms: C2_6  and  S1_8
REMARK    2  A    between atoms: S1_8  and  N3_9
REMARK    3  A    between atoms: S1_8  and  C3_13
REMARK    4  A    between atoms: C3_13  and  C4_14
REMARK    5  A    between atoms: C4_14  and  C5_15
REMARK    6  A    between atoms: C6_16  and  C7_17
REMARK    7  A    between atoms: C7_17  and  N4_18
REMARK    8  A    between atoms: N4_18  and  C8_20
REMARK    9  A    between atoms: N5_30  and  O5_32
ROOT
HETATM    1  C7  UNL     1      93.407  16.080  16.598  1.00  0.00     0.142 C
ENDROOT
BRANCH   1   2
HETATM    2  C6  UNL     1      94.543  17.037  16.609  1.00  0.00    -0.012 C
HETATM    3  C5  UNL     1      95.735  16.692  17.088  1.00  0.00    -0.028 C
BRANCH   3   4
HETATM    4  C4  UNL     1      96.914  17.596  17.131  1.00  0.00     0.041 C
BRANCH   4   5
HETATM    5  C3  UNL     1      98.191  16.903  16.611  1.00  0.00     0.131 C
BRANCH   5   6
HETATM    6  S1  UNL     1      98.664  17.213  14.923  1.00  0.00     0.105 S
HETATM    7  O3  UNL     1     100.007  18.336  15.573  1.00  0.00    -0.240 OA
BRANCH   6   8
HETATM    8  C2  UNL     1      99.256  15.350  14.656  1.00  0.00     0.323 C
HETATM    9  N2  UNL     1      98.404  14.285  14.414  1.00  0.00    -0.270 N
HETATM   10  C1  UNL     1      97.035  14.128  14.296  1.00  0.00     0.336 C
ATOM     11  H2  UNL     1      98.907  13.406  14.293  1.00  0.00     0.174 HD
HETATM   12  N1  UNL     1      96.509  12.798  14.027  1.00  0.00    -0.040 NA
HETATM   13  O1  UNL     1      96.189  15.007  14.396  1.00  0.00    -0.251 OA
HETATM   14  O2  UNL     1     100.495  15.089  14.708  1.00  0.00    -0.256 OA
ENDBRANCH   6   8
BRANCH   6  15
HETATM   15  N3  UNL     1      99.179  17.684  13.380  1.00  0.00    -0.353 N
ATOM     16  H32 UNL     1      98.721  17.700  12.468  1.00  0.00     0.166 HD
ATOM     17  H31 UNL     1     100.108  17.940  13.714  1.00  0.00     0.166 HD
ENDBRANCH   6  15
ENDBRANCH   5   6
ENDBRANCH   4   5
ENDBRANCH   3   4
ENDBRANCH   1   2
BRANCH   1  18
HETATM   18  N4  UNL     1      93.797  14.707  16.623  1.00  0.00    -0.407 N
ATOM     19  H4  UNL     1      94.518  14.341  16.002  1.00  0.00     0.154 HD
BRANCH  18  20
HETATM   20  C8  UNL     1      93.121  13.874  17.564  1.00  0.00     0.157 C
HETATM   21  C9  UNL     1      93.870  12.535  17.571  1.00  0.00     0.071 C
HETATM   22  C10 UNL     1      95.023  12.746  18.530  1.00  0.00     0.071 C
HETATM   23  C11 UNL     1      96.316  13.001  17.785  1.00  0.00     0.038 C
HETATM   24  C15 UNL     1      95.202  11.599  19.487  1.00  0.00     0.038 C
HETATM   25  O4  UNL     1      94.633  13.877  19.289  1.00  0.00    -0.325 OA
HETATM   26  C12 UNL     1      97.410  13.247  18.794  1.00  0.00     0.003 C
HETATM   27  C13 UNL     1      97.695  11.958  19.501  1.00  0.00     0.000 C
HETATM   28  C14 UNL     1      96.565  10.973  19.447  1.00  0.00     0.003 C
HETATM   29  C16 UNL     1      93.363  14.299  18.978  1.00  0.00     0.161 C
HETATM   30  N5  UNL     1      92.479  14.934  19.674  1.00  0.00    -0.249 N
ATOM     31  H5  UNL     1      91.583  15.153  19.239  1.00  0.00     0.196 HD
BRANCH  30  32
HETATM   32  O5  UNL     1      92.688  15.329  20.970  1.00  0.00    -0.288 OA
ATOM     33  H5  UNL     1      93.359  14.950  21.526  1.00  0.00     0.244 HD
ENDBRANCH  30  32
ENDBRANCH  18  20
ENDBRANCH   1  18
TORSDOF 9
ENDMDL