MODEL 5
REMARK VINA RESULT: -7.335120409      2.364      8.779
REMARK  11 active torsions:
REMARK  status: ('A' for Active; 'I' for Inactive)
REMARK    1  A    between atoms: N1_1  and  C1_5
REMARK    2  A    between atoms: C1_5  and  C2_6
REMARK    3  A    between atoms: C2_6  and  N2_7
REMARK    4  A    between atoms: N2_7  and  C3_9
REMARK    5  A    between atoms: C6_14  and  N4_15
REMARK    6  A    between atoms: N4_15  and  C7_17
REMARK    7  A    between atoms: C7_17  and  C8_18
REMARK    8  A    between atoms: C8_18  and  C9_19
REMARK    9  A    between atoms: C9_19  and  C10_20
REMARK   10  A    between atoms: C10_20  and  C11_21
REMARK   11  A    between atoms: C11_21  and  N5_22
ROOT
HETATM    1  C3  UNL     1     -18.605  43.972  48.016  1.00  0.00     0.118 A
HETATM    2  C4  UNL     1     -18.391  44.710  49.149  1.00  0.00     0.066 A
HETATM    3  C5  UNL     1     -17.190  45.360  49.300  1.00  0.00     0.110 A
HETATM    4  N3  UNL     1     -16.243  45.264  48.338  1.00  0.00    -0.202 N
ATOM      5  H3  UNL     1     -15.351  45.746  48.445  1.00  0.00     0.183 HD
HETATM    6  C6  UNL     1     -16.490  44.531  47.240  1.00  0.00     0.679 A
HETATM    7  N7  UNL     1     -17.667  43.871  47.052  1.00  0.00    -0.177 N
ATOM      8  H7  UNL     1     -17.834  43.319  46.210  1.00  0.00     0.185 HD
ENDROOT
BRANCH   6   9
HETATM    9  N4  UNL     1     -15.613  44.428  46.322  1.00  0.00    -0.226 N
ATOM     10  H4  UNL     1     -15.429  45.222  45.708  1.00  0.00     0.177 HD
BRANCH   9  11
HETATM   11  C7  UNL     1     -14.880  43.211  46.141  1.00  0.00     0.138 C
BRANCH  11  12
HETATM   12  C8  UNL     1     -13.445  43.451  45.752  1.00  0.00     0.020 C
BRANCH  12  13
HETATM   13  C9  UNL     1     -12.642  42.242  46.115  1.00  0.00     0.003 C
BRANCH  13  14
HETATM   14  C10 UNL     1     -13.044  41.005  45.350  1.00  0.00     0.020 C
BRANCH  14  15
HETATM   15  C11 UNL     1     -12.537  41.063  43.928  1.00  0.00     0.127 C
BRANCH  15  16
HETATM   16  N5  UNL     1     -12.277  39.771  43.370  1.00  0.00    -0.334 N
HETATM   17  C12 UNL     1     -11.330  38.817  43.953  1.00  0.00     0.129 C
HETATM   18  C13 UNL     1     -10.387  38.303  42.920  1.00  0.00     0.040 C
HETATM   19  C14 UNL     1     -10.969  38.019  41.581  1.00  0.00     0.126 C
HETATM   20  N6  UNL     1     -12.377  38.282  41.449  1.00  0.00    -0.343 N
HETATM   21  C15 UNL     1     -12.943  39.342  42.197  1.00  0.00     0.318 C
ATOM     22  H6  UNL     1     -12.956  37.717  40.828  1.00  0.00     0.164 HD
HETATM   23  O1  UNL     1     -14.008  39.922  41.873  1.00  0.00    -0.247 OA
ENDBRANCH  15  16
ENDBRANCH  14  15
ENDBRANCH  13  14
ENDBRANCH  12  13
ENDBRANCH  11  12
ENDBRANCH   9  11
ENDBRANCH   6   9
BRANCH   1  24
HETATM   24  N2  UNL     1     -19.705  43.359  47.846  1.00  0.00    -0.374 N
ATOM     25  H2  UNL     1     -20.529  43.706  48.338  1.00  0.00     0.161 HD
BRANCH  24  26
HETATM   26  C2  UNL     1     -19.861  42.197  46.993  1.00  0.00     0.148 C
BRANCH  26  27
HETATM   27  C1  UNL     1     -20.440  41.050  47.789  1.00  0.00     0.249 C
BRANCH  27  28
HETATM   28  N1  UNL     1     -19.454  40.072  48.144  1.00  0.00    -0.078 N
ATOM     29  H13 UNL     1     -19.240  39.465  47.354  1.00  0.00     0.274 HD
ATOM     30  H12 UNL     1     -18.539  40.504  48.272  1.00  0.00     0.274 HD
ATOM     31  H11 UNL     1     -19.720  39.527  48.964  1.00  0.00     0.274 HD
ENDBRANCH  27  28
ENDBRANCH  26  27
ENDBRANCH  24  26
ENDBRANCH   1  24
TORSDOF 11
ENDMDL