MODEL 5
REMARK VINA RESULT: -7.453198035      5.736      9.289
REMARK  8 active torsions:
REMARK  status: ('A' for Active; 'I' for Inactive)
REMARK    1  A    between atoms: C3_3  and  N1_4
REMARK       I    between atoms: N1_4  and  C4_6
REMARK       I    between atoms: C4_6  and  N2_7
REMARK    2  A    between atoms: N5_12  and  C6_14
REMARK    3  A    between atoms: C6_14  and  C7_15
REMARK    4  A    between atoms: C7_15  and  C8_16
REMARK    5  A    between atoms: C8_16  and  C9_17
REMARK    6  A    between atoms: C9_17  and  C10_18
REMARK    7  A    between atoms: C10_18  and  C11_19
REMARK    8  A    between atoms: C11_19  and  N6_20
ROOT
HETATM    1  C1  UNL     1     -12.738  40.750  38.451  1.00  0.00     0.014 C
HETATM    2  C2  UNL     1     -13.491  40.522  39.377  1.00  0.00    -0.097 C
HETATM    3  C3  UNL     1     -14.405  40.231  40.486  1.00  0.00     0.231 C
ENDROOT
BRANCH   3   4
HETATM    4  N1  UNL     1     -14.149  38.946  41.092  1.00  0.00    -0.216 N
HETATM    5  C4  UNL     1     -12.853  38.407  41.203  1.00  0.00     0.676 C
HETATM    6  N2  UNL     1     -11.845  38.925  42.034  1.00  0.00    -0.166 N
HETATM    7  N5  UNL     1     -12.553  37.365  40.502  1.00  0.00    -0.226 N
HETATM    8  C5  UNL     1     -11.953  39.556  43.118  1.00  0.00     0.215 C
ATOM      9  H2  UNL     1     -10.889  38.767  41.713  1.00  0.00     0.186 HD
HETATM   10  N3  UNL     1     -13.204  39.853  43.693  1.00  0.00    -0.066 NA
HETATM   11  N4  UNL     1     -10.770  39.977  43.779  1.00  0.00    -0.066 NA
ATOM     12  H5  UNL     1     -11.620  36.958  40.567  1.00  0.00     0.177 HD
ATOM     13  H1  UNL     1     -14.937  38.409  41.454  1.00  0.00     0.178 HD
BRANCH   7  14
HETATM   14  C6  UNL     1     -13.532  36.781  39.632  1.00  0.00     0.138 C
BRANCH  14  15
HETATM   15  C7  UNL     1     -13.082  36.995  38.225  1.00  0.00     0.020 C
BRANCH  15  16
HETATM   16  C8  UNL     1     -11.600  36.847  38.074  1.00  0.00     0.002 C
BRANCH  16  17
HETATM   17  C9  UNL     1     -11.265  35.844  37.003  1.00  0.00     0.002 C
BRANCH  17  18
HETATM   18  C10 UNL     1     -11.954  36.308  35.724  1.00  0.00     0.019 C
BRANCH  18  19
HETATM   19  C11 UNL     1     -10.902  36.515  34.656  1.00  0.00     0.117 C
BRANCH  19  20
HETATM   20  N6  UNL     1     -10.832  37.914  34.344  1.00  0.00    -0.409 N
HETATM   21  C12 UNL     1     -11.160  38.250  33.012  1.00  0.00     0.144 C
HETATM   22  C13 UNL     1     -10.106  38.832  32.161  1.00  0.00     0.251 C
HETATM   23  N7  UNL     1      -8.919  39.290  32.804  1.00  0.00    -0.072 N
HETATM   24  C14 UNL     1      -9.311  39.780  34.133  1.00  0.00     0.251 C
ATOM     25  H72 UNL     1      -8.184  38.584  32.839  1.00  0.00     0.277 HD
ATOM     26  H71 UNL     1      -8.408  39.982  32.256  1.00  0.00     0.277 HD
HETATM   27  C15 UNL     1      -9.715  38.582  34.921  1.00  0.00     0.144 C
ENDBRANCH  19  20
ENDBRANCH  18  19
ENDBRANCH  17  18
ENDBRANCH  16  17
ENDBRANCH  15  16
ENDBRANCH  14  15
ENDBRANCH   7  14
ENDBRANCH   3   4
TORSDOF 8
ENDMDL