MODEL 5
REMARK VINA RESULT: -7.223530933      4.553      7.786
REMARK  10 active torsions:
REMARK  status: ('A' for Active; 'I' for Inactive)
REMARK    1  A    between atoms: C4_4  and  C5_5
REMARK    2  A    between atoms: C6_6  and  C7_7
REMARK    3  A    between atoms: C7_7  and  C9_9
REMARK    4  A    between atoms: C9_9  and  N1_10
REMARK       I    between atoms: N1_10  and  C10_12
REMARK    5  A    between atoms: C10_12  and  C11_14
REMARK    6  A    between atoms: C11_14  and  C12_15
REMARK    7  A    between atoms: C12_15  and  C13_16
REMARK    8  A    between atoms: C13_16  and  C14_17
REMARK    9  A    between atoms: C14_17  and  C15_18
REMARK   10  A    between atoms: C15_18  and  N2_19
REMARK       I    between atoms: N2_19  and  C16_21
ROOT
HETATM    1  C1  UNL     1     -11.376  44.316  35.280  1.00  0.00     0.027 C
HETATM    2  C2  UNL     1     -11.677  43.339  35.920  1.00  0.00    -0.025 C
HETATM    3  C3  UNL     1     -12.013  42.177  36.658  1.00  0.00    -0.002 C
HETATM    4  C4  UNL     1     -12.302  41.176  37.270  1.00  0.00    -0.001 C
ENDROOT
BRANCH   4   5
HETATM    5  C5  UNL     1     -12.640  39.977  37.971  1.00  0.00    -0.009 C
HETATM    6  C6  UNL     1     -12.940  38.959  38.547  1.00  0.00    -0.056 C
BRANCH   6   7
HETATM    7  C7  UNL     1     -13.314  37.750  39.212  1.00  0.00     0.004 C
HETATM    8  C8  UNL     1     -13.862  36.778  38.508  1.00  0.00     0.030 C
BRANCH   7   9
HETATM    9  C9  UNL     1     -13.116  37.552  40.664  1.00  0.00     0.169 C
BRANCH   9  10
HETATM   10  N1  UNL     1     -13.583  38.629  41.478  1.00  0.00    -0.356 N
HETATM   11  C10 UNL     1     -12.670  39.403  42.231  1.00  0.00     0.217 C
HETATM   12  O1  UNL     1     -11.425  39.132  42.178  1.00  0.00    -0.274 OA
ATOM     13  H1  UNL     1     -14.580  38.840  41.517  1.00  0.00     0.162 HD
BRANCH  11  14
HETATM   14  C11 UNL     1     -13.120  40.544  43.099  1.00  0.00     0.103 C
BRANCH  14  15
HETATM   15  C12 UNL     1     -12.340  40.541  44.378  1.00  0.00     0.009 C
BRANCH  15  16
HETATM   16  C13 UNL     1     -12.676  41.589  45.359  1.00  0.00     0.002 C
BRANCH  16  17
HETATM   17  C14 UNL     1     -13.452  42.760  44.878  1.00  0.00     0.020 C
BRANCH  17  18
HETATM   18  C15 UNL     1     -13.745  43.773  45.991  1.00  0.00     0.122 C
BRANCH  18  19
HETATM   19  N2  UNL     1     -14.897  43.289  46.722  1.00  0.00    -0.364 N
HETATM   20  C16 UNL     1     -16.150  43.949  46.675  1.00  0.00     0.197 C
HETATM   21  N3  UNL     1     -16.384  45.067  47.488  1.00  0.00    -0.063 NA
HETATM   22  N4  UNL     1     -17.050  43.509  45.885  1.00  0.00    -0.268 N
HETATM   23  C17 UNL     1     -18.321  44.078  45.755  1.00  0.00     0.184 C
ATOM     24  H4  UNL     1     -16.830  42.693  45.314  1.00  0.00     0.180 HD
HETATM   25  N5  UNL     1     -19.368  44.559  45.662  1.00  0.00    -0.172 NA
ATOM     26  H2  UNL     1     -14.804  42.446  47.289  1.00  0.00     0.162 HD
ENDBRANCH  18  19
ENDBRANCH  17  18
ENDBRANCH  16  17
ENDBRANCH  15  16
ENDBRANCH  14  15
ENDBRANCH  11  14
ENDBRANCH   9  10
ENDBRANCH   7   9
ENDBRANCH   6   7
ENDBRANCH   4   5
TORSDOF 10
ENDMDL