MODEL 3
REMARK VINA RESULT: -6.035605307      2.750      6.924
REMARK  10 active torsions:
REMARK  status: ('A' for Active; 'I' for Inactive)
REMARK    1  A    between atoms: N1_1  and  C1_5
REMARK    2  A    between atoms: C1_5  and  C2_6
REMARK    3  A    between atoms: C2_6  and  C3_7
REMARK    4  A    between atoms: C3_7  and  C4_8
REMARK    5  A    between atoms: C4_8  and  N2_9
REMARK    6  A    between atoms: C7_16  and  C8_17
REMARK    7  A    between atoms: C8_17  and  C9_18
REMARK    8  A    between atoms: C9_18  and  C10_19
REMARK    9  A    between atoms: C10_19  and  N4_20
REMARK   10  A    between atoms: N4_20  and  C11_22
ROOT
HETATM    1  N2  UNL     1     -13.332  38.300  38.998  1.00  0.00    -0.344 N
HETATM    2  C5  UNL     1     -14.221  39.405  38.957  1.00  0.00     0.177 A
HETATM    3  S1  UNL     1     -14.951  40.104  40.244  1.00  0.00    -0.041 SA
HETATM    4  N3  UNL     1     -14.404  39.842  37.620  1.00  0.00    -0.302 N
ATOM      5  H3  UNL     1     -14.990  40.617  37.308  1.00  0.00     0.171 HD
HETATM    6  C6  UNL     1     -13.616  38.996  36.802  1.00  0.00     0.246 A
HETATM    7  O1  UNL     1     -13.552  39.016  35.517  1.00  0.00    -0.271 OA
HETATM    8  C7  UNL     1     -12.878  38.085  37.666  1.00  0.00     0.179 A
ENDROOT
BRANCH   1   9
HETATM    9  C4  UNL     1     -13.002  37.590  40.219  1.00  0.00     0.126 C
BRANCH   9  10
HETATM   10  C3  UNL     1     -11.638  38.051  40.751  1.00  0.00     0.022 C
BRANCH  10  11
HETATM   11  C2  UNL     1     -11.776  38.863  41.995  1.00  0.00     0.029 C
BRANCH  11  12
HETATM   12  C1  UNL     1     -10.640  38.440  42.927  1.00  0.00     0.229 C
BRANCH  12  13
HETATM   13  N1  UNL     1     -10.517  36.999  42.970  1.00  0.00    -0.079 N
ATOM     14  H13 UNL     1     -11.254  36.542  42.432  1.00  0.00     0.274 HD
ATOM     15  H12 UNL     1      -9.712  36.673  42.435  1.00  0.00     0.274 HD
ATOM     16  H11 UNL     1     -10.491  36.664  43.933  1.00  0.00     0.274 HD
ENDBRANCH  12  13
ENDBRANCH  11  12
ENDBRANCH  10  11
ENDBRANCH   9  10
ENDBRANCH   1   9
BRANCH   8  17
HETATM   17  C8  UNL     1     -12.757  36.679  37.237  1.00  0.00     0.037 C
BRANCH  17  18
HETATM   18  C9  UNL     1     -11.429  36.093  36.999  1.00  0.00     0.022 C
BRANCH  18  19
HETATM   19  C10 UNL     1     -10.987  35.950  35.575  1.00  0.00     0.121 C
BRANCH  19  20
HETATM   20  N4  UNL     1     -11.214  37.132  34.768  1.00  0.00    -0.369 N
ATOM     21  H4  UNL     1     -12.143  37.247  34.363  1.00  0.00     0.161 HD
BRANCH  20  22
HETATM   22  C11 UNL     1     -10.265  38.138  34.493  1.00  0.00     0.180 C
HETATM   23  N5  UNL     1      -9.315  38.564  35.459  1.00  0.00    -0.070 NA
HETATM   24  S2  UNL     1     -10.212  38.835  33.031  1.00  0.00    -0.044 SA
ENDBRANCH  20  22
ENDBRANCH  19  20
ENDBRANCH  18  19
ENDBRANCH  17  18
ENDBRANCH   8  17
TORSDOF 10
ENDMDL