MODEL 5
REMARK VINA RESULT: -6.723189355      1.897      2.513
REMARK  9 active torsions:
REMARK  status: ('A' for Active; 'I' for Inactive)
REMARK    1  A    between atoms: C2_2  and  N1_3
REMARK    2  A    between atoms: C4_6  and  N2_7
REMARK    3  A    between atoms: N2_7  and  C5_9
REMARK    4  A    between atoms: C5_9  and  C6_10
REMARK    5  A    between atoms: C6_10  and  C7_11
REMARK    6  A    between atoms: C7_11  and  C8_12
REMARK    7  A    between atoms: C8_12  and  C9_13
REMARK    8  A    between atoms: C9_13  and  N3_14
REMARK    9  A    between atoms: N3_14  and  C10_16
ROOT
HETATM    1  N2  UNL     1     -11.893  39.277  43.056  1.00  0.00    -0.408 N
ATOM      2  H2  UNL     1     -10.978  38.891  43.288  1.00  0.00     0.154 HD
ENDROOT
BRANCH   1   3
HETATM    3  C4  UNL     1     -12.352  39.342  41.717  1.00  0.00     0.188 C
HETATM    4  C3  UNL     1     -11.601  38.552  40.723  1.00  0.00     0.250 C
HETATM    5  N1  UNL     1     -12.092  38.517  39.387  1.00  0.00    -0.293 N
HETATM    6  O1  UNL     1     -10.556  37.917  41.008  1.00  0.00    -0.271 OA
HETATM    7  C12 UNL     1     -13.444  38.976  39.162  1.00  0.00     0.176 C
HETATM    8  N5  UNL     1     -14.223  39.438  40.260  1.00  0.00    -0.364 N
HETATM    9  S2  UNL     1     -13.997  38.934  37.632  1.00  0.00    -0.041 SA
HETATM   10  C11 UNL     1     -13.810  38.973  41.563  1.00  0.00     0.156 C
ATOM     11  H5  UNL     1     -15.022  40.058  40.135  1.00  0.00     0.162 HD
BRANCH   5  12
HETATM   12  C2  UNL     1     -11.295  38.049  38.279  1.00  0.00     0.130 C
HETATM   13  C1  UNL     1     -11.508  36.580  37.994  1.00  0.00     0.027 C
ENDBRANCH   5  12
ENDBRANCH   1   3
BRANCH   1  14
HETATM   14  C5  UNL     1     -12.761  39.774  44.056  1.00  0.00     0.114 C
BRANCH  14  15
HETATM   15  C6  UNL     1     -12.653  41.267  44.278  1.00  0.00     0.019 C
BRANCH  15  16
HETATM   16  C7  UNL     1     -12.737  41.661  45.706  1.00  0.00     0.003 C
BRANCH  16  17
HETATM   17  C8  UNL     1     -13.164  43.109  45.850  1.00  0.00     0.020 C
BRANCH  17  18
HETATM   18  C9  UNL     1     -14.658  43.220  45.878  1.00  0.00     0.121 C
BRANCH  18  19
HETATM   19  N3  UNL     1     -15.071  44.077  46.954  1.00  0.00    -0.369 N
ATOM     20  H3  UNL     1     -14.361  44.585  47.481  1.00  0.00     0.161 HD
BRANCH  19  21
HETATM   21  C10 UNL     1     -16.419  44.235  47.303  1.00  0.00     0.180 C
HETATM   22  N4  UNL     1     -17.054  45.474  47.005  1.00  0.00    -0.070 NA
HETATM   23  S1  UNL     1     -17.256  43.084  48.057  1.00  0.00    -0.044 SA
ENDBRANCH  19  21
ENDBRANCH  18  19
ENDBRANCH  17  18
ENDBRANCH  16  17
ENDBRANCH  15  16
ENDBRANCH  14  15
ENDBRANCH   1  14
TORSDOF 9
ENDMDL