MODEL 1
REMARK VINA RESULT: -7.020463265      0.000      0.000
REMARK  10 active torsions:
REMARK  status: ('A' for Active; 'I' for Inactive)
REMARK    1  A    between atoms: C3_3  and  C4_4
REMARK    2  A    between atoms: C4_4  and  N1_5
REMARK    3  A    between atoms: N1_5  and  C5_6
REMARK    4  A    between atoms: C5_6  and  O1_7
REMARK    5  A    between atoms: O1_7  and  C6_8
REMARK    6  A    between atoms: C6_8  and  C7_9
REMARK    7  A    between atoms: C7_9  and  C8_10
REMARK    8  A    between atoms: C8_10  and  C9_11
REMARK    9  A    between atoms: C9_11  and  C10_12
REMARK   10  A    between atoms: C15_23  and  N4_24
ROOT
HETATM    1  C1  UNL     1     -13.599  43.970  46.014  1.00  0.00     0.112 C
HETATM    2  C2  UNL     1     -13.353  42.527  45.794  1.00  0.00    -0.109 C
HETATM    3  C3  UNL     1     -13.137  41.353  45.627  1.00  0.00    -0.079 C
ENDROOT
BRANCH   3   4
HETATM    4  C4  UNL     1     -12.862  39.953  45.409  1.00  0.00     0.333 C
BRANCH   4   5
HETATM    5  N1  UNL     1     -12.295  39.659  44.136  1.00  0.00    -0.032 N
HETATM    6  C14 UNL     1     -11.719  38.359  44.064  1.00  0.00     0.275 C
HETATM    7  C15 UNL     1     -10.571  38.919  43.257  1.00  0.00     0.235 C
HETATM    8  C16 UNL     1     -10.937  40.189  43.956  1.00  0.00     0.275 C
BRANCH   5   9
HETATM    9  C5  UNL     1     -13.130  40.096  43.038  1.00  0.00     0.406 C
BRANCH   9  10
HETATM   10  O1  UNL     1     -13.574  39.226  42.170  1.00  0.00    -0.360 OA
BRANCH  10  11
HETATM   11  C6  UNL     1     -14.264  39.360  41.074  1.00  0.00     0.231 C
BRANCH  11  12
HETATM   12  C7  UNL     1     -13.677  39.139  39.718  1.00  0.00     0.222 C
HETATM   13  N2  UNL     1     -14.605  39.533  38.658  1.00  0.00    -0.038 N
HETATM   14  C12 UNL     1     -14.811  40.964  38.875  1.00  0.00     0.337 C
ATOM     15  H22 UNL     1     -14.292  39.294  37.717  1.00  0.00     0.280 HD
ATOM     16  H21 UNL     1     -15.466  38.987  38.631  1.00  0.00     0.280 HD
HETATM   17  C13 UNL     1     -13.468  41.418  39.370  1.00  0.00     0.245 C
HETATM   18  O2  UNL     1     -13.153  42.626  39.559  1.00  0.00    -0.272 OA
HETATM   19  N3  UNL     1     -12.706  40.252  39.557  1.00  0.00    -0.325 N
ATOM     20  H3  UNL     1     -11.689  40.184  39.577  1.00  0.00     0.165 HD
BRANCH  12  21
HETATM   21  C8  UNL     1     -12.927  37.903  39.478  1.00  0.00     0.064 C
BRANCH  21  22
HETATM   22  C9  UNL     1     -11.451  38.131  39.180  1.00  0.00     0.004 C
BRANCH  22  23
HETATM   23  C10 UNL     1     -11.220  37.536  37.783  1.00  0.00    -0.004 C
HETATM   24  C11 UNL     1     -11.610  36.086  37.766  1.00  0.00     0.005 C
ENDBRANCH  22  23
ENDBRANCH  21  22
ENDBRANCH  12  21
ENDBRANCH  11  12
ENDBRANCH  10  11
ENDBRANCH   9  10
ENDBRANCH   5   9
BRANCH   7  25
HETATM   25  N4  UNL     1      -9.338  38.306  43.642  1.00  0.00    -0.072 N
ATOM     26  H43 UNL     1      -8.968  38.708  44.503  1.00  0.00     0.274 HD
ATOM     27  H42 UNL     1      -9.477  37.349  43.967  1.00  0.00     0.274 HD
ATOM     28  H41 UNL     1      -8.661  38.353  42.881  1.00  0.00     0.274 HD
ENDBRANCH   7  25
ENDBRANCH   4   5
ENDBRANCH   3   4
TORSDOF 10
ENDMDL