MODEL 1
REMARK VINA RESULT: -8.481405979      0.000      0.000
REMARK  8 active torsions:
REMARK  status: ('A' for Active; 'I' for Inactive)
REMARK    1  A    between atoms: N3_4  and  C2_6
REMARK    2  A    between atoms: C2_6  and  C3_7
REMARK    3  A    between atoms: C3_7  and  C4_8
REMARK    4  A    between atoms: C4_8  and  C5_9
REMARK    5  A    between atoms: C5_9  and  N4_10
REMARK       I    between atoms: N4_10  and  C6_12
REMARK    6  A    between atoms: C6_12  and  C7_14
REMARK    7  A    between atoms: C10_17  and  C11_18
REMARK    8  A    between atoms: C11_18  and  N5_19
ROOT
HETATM    1  N4  UNL     1     -15.692  42.627  46.427  1.00  0.00    -0.361 N
ATOM      2  H4  UNL     1     -15.621  41.764  45.887  1.00  0.00     0.162 HD
HETATM    3  C6  UNL     1     -14.632  43.554  46.318  1.00  0.00     0.221 C
HETATM    4  O1  UNL     1     -14.640  44.633  46.943  1.00  0.00    -0.273 OA
ENDROOT
BRANCH   3   5
HETATM    5  C7  UNL     1     -13.481  43.233  45.438  1.00  0.00     0.078 C
HETATM    6  C8  UNL     1     -12.480  42.360  46.149  1.00  0.00     0.014 C
HETATM    7  C9  UNL     1     -12.738  40.901  46.003  1.00  0.00     0.007 C
HETATM    8  C10 UNL     1     -13.102  40.473  44.620  1.00  0.00     0.003 C
HETATM    9  C13 UNL     1     -12.897  41.651  43.675  1.00  0.00     0.007 C
HETATM   10  C14 UNL     1     -13.898  42.714  44.104  1.00  0.00     0.014 C
BRANCH   8  11
HETATM   11  C11 UNL     1     -12.341  39.284  44.119  1.00  0.00     0.126 C
BRANCH  11  12
HETATM   12  N5  UNL     1     -12.735  39.048  42.749  1.00  0.00    -0.367 N
HETATM   13  C12 UNL     1     -11.858  38.733  41.862  1.00  0.00     0.196 C
HETATM   14  N6  UNL     1     -10.503  38.622  42.255  1.00  0.00    -0.067 NA
HETATM   15  N7  UNL     1     -12.190  38.493  40.507  1.00  0.00    -0.067 NA
ATOM     16  H5  UNL     1     -13.716  39.131  42.483  1.00  0.00     0.161 HD
ENDBRANCH  11  12
ENDBRANCH   8  11
ENDBRANCH   3   5
BRANCH   1  17
HETATM   17  C5  UNL     1     -16.866  42.807  47.245  1.00  0.00     0.122 C
BRANCH  17  18
HETATM   18  C4  UNL     1     -17.782  43.795  46.596  1.00  0.00     0.021 C
BRANCH  18  19
HETATM   19  C3  UNL     1     -18.043  45.006  47.467  1.00  0.00     0.021 C
BRANCH  19  20
HETATM   20  C2  UNL     1     -18.102  44.623  48.927  1.00  0.00     0.122 C
BRANCH  20  21
HETATM   21  N3  UNL     1     -18.608  45.725  49.698  1.00  0.00    -0.367 N
HETATM   22  C1  UNL     1     -19.839  45.767  50.026  1.00  0.00     0.196 C
HETATM   23  N1  UNL     1     -20.715  44.735  49.637  1.00  0.00    -0.067 NA
HETATM   24  N2  UNL     1     -20.330  46.850  50.784  1.00  0.00    -0.067 NA
ATOM     25  H3  UNL     1     -17.981  46.476  49.983  1.00  0.00     0.161 HD
ENDBRANCH  20  21
ENDBRANCH  19  20
ENDBRANCH  18  19
ENDBRANCH  17  18
ENDBRANCH   1  17
TORSDOF 8
ENDMDL