MODEL 3
REMARK VINA RESULT: -8.014597420      1.743      1.978
REMARK  10 active torsions:
REMARK  status: ('A' for Active; 'I' for Inactive)
REMARK       I    between atoms: C1_2  and  N2_3
REMARK    1  A    between atoms: N2_3  and  O1_5
REMARK    2  A    between atoms: N3_7  and  C2_9
REMARK    3  A    between atoms: C2_9  and  C3_10
REMARK    4  A    between atoms: C3_10  and  C4_11
REMARK    5  A    between atoms: C4_11  and  C5_12
REMARK    6  A    between atoms: C5_12  and  C6_13
REMARK    7  A    between atoms: C6_13  and  C7_14
REMARK    8  A    between atoms: C7_14  and  C8_15
REMARK    9  A    between atoms: C8_15  and  C9_16
REMARK   10  A    between atoms: C9_16  and  N4_17
REMARK       I    between atoms: C10_19  and  N6_21
ROOT
HETATM    1  C7  UNL     1     -12.498  40.718  44.336  1.00  0.00     0.002 C
ENDROOT
BRANCH   1   2
HETATM    2  C6  UNL     1     -12.833  41.039  45.764  1.00  0.00     0.000 C
BRANCH   2   3
HETATM    3  C5  UNL     1     -12.765  42.507  46.068  1.00  0.00     0.000 C
BRANCH   3   4
HETATM    4  C4  UNL     1     -13.864  43.251  45.372  1.00  0.00     0.002 C
BRANCH   4   5
HETATM    5  C3  UNL     1     -14.772  43.928  46.338  1.00  0.00     0.020 C
BRANCH   5   6
HETATM    6  C2  UNL     1     -16.226  43.596  46.127  1.00  0.00     0.122 C
BRANCH   6   7
HETATM    7  N3  UNL     1     -17.083  44.155  47.121  1.00  0.00    -0.363 N
HETATM    8  C1  UNL     1     -18.339  44.360  47.002  1.00  0.00     0.208 C
HETATM    9  N1  UNL     1     -19.069  44.920  48.057  1.00  0.00    -0.062 NA
HETATM   10  N2  UNL     1     -18.988  44.018  45.798  1.00  0.00    -0.241 N
ATOM     11  H2  UNL     1     -19.042  43.052  45.475  1.00  0.00     0.197 HD
ATOM     12  H3  UNL     1     -16.654  44.417  48.008  1.00  0.00     0.162 HD
BRANCH  10  13
HETATM   13  O1  UNL     1     -19.499  44.966  45.141  1.00  0.00    -0.287 OA
ATOM     14  H1  UNL     1     -19.313  45.846  45.447  1.00  0.00     0.244 HD
ENDBRANCH  10  13
ENDBRANCH   6   7
ENDBRANCH   5   6
ENDBRANCH   4   5
ENDBRANCH   3   4
ENDBRANCH   2   3
ENDBRANCH   1   2
BRANCH   1  15
HETATM   15  C8  UNL     1     -11.117  40.176  44.161  1.00  0.00     0.020 C
BRANCH  15  16
HETATM   16  C9  UNL     1     -11.189  38.785  43.613  1.00  0.00     0.122 C
BRANCH  16  17
HETATM   17  N4  UNL     1     -12.118  38.746  42.512  1.00  0.00    -0.365 N
HETATM   18  C10 UNL     1     -11.717  38.483  41.318  1.00  0.00     0.186 C
HETATM   19  N5  UNL     1     -10.333  38.223  41.042  1.00  0.00    -0.064 NA
HETATM   20  N6  UNL     1     -12.698  38.464  40.288  1.00  0.00    -0.353 N
HETATM   21  C11 UNL     1     -13.902  39.281  40.421  1.00  0.00     0.144 C
HETATM   22  C14 UNL     1     -12.568  37.666  39.096  1.00  0.00     0.144 C
HETATM   23  C12 UNL     1     -14.798  39.132  39.235  1.00  0.00     0.133 C
HETATM   24  N7  UNL     1     -14.135  39.198  37.975  1.00  0.00    -0.418 N
HETATM   25  C13 UNL     1     -12.979  38.372  37.847  1.00  0.00     0.133 C
ATOM     26  H7  UNL     1     -14.465  39.795  37.217  1.00  0.00     0.153 HD
ATOM     27  H4  UNL     1     -13.106  38.929  42.682  1.00  0.00     0.162 HD
ENDBRANCH  16  17
ENDBRANCH  15  16
ENDBRANCH   1  15
TORSDOF 10
ENDMDL