MODEL 2
REMARK VINA RESULT: -6.940009474      3.138      4.273
REMARK  9 active torsions:
REMARK  status: ('A' for Active; 'I' for Inactive)
REMARK       I    between atoms: C1_4  and  N3_6
REMARK       I    between atoms: N4_9  and  C4_10
REMARK    1  A    between atoms: N6_12  and  C5_14
REMARK    2  A    between atoms: C5_14  and  C6_15
REMARK    3  A    between atoms: C6_15  and  C7_16
REMARK    4  A    between atoms: C7_16  and  C8_17
REMARK    5  A    between atoms: C8_17  and  C9_18
REMARK    6  A    between atoms: C9_18  and  S1_19
REMARK    7  A    between atoms: S1_19  and  C10_20
REMARK    8  A    between atoms: C10_20  and  C11_21
REMARK    9  A    between atoms: C11_21  and  N7_22
ROOT
HETATM    1  N1  UNL     1      -9.734  38.107  35.352  1.00  0.00    -0.374 N
ATOM      2  H11 UNL     1      -9.058  38.662  35.876  1.00  0.00     0.158 HD
ATOM      3  H12 UNL     1      -9.419  37.678  34.481  1.00  0.00     0.158 HD
HETATM    4  C1  UNL     1     -10.946  37.939  35.748  1.00  0.00     0.184 C
HETATM    5  N2  UNL     1     -11.884  37.169  35.021  1.00  0.00    -0.064 NA
HETATM    6  N3  UNL     1     -11.387  38.538  36.964  1.00  0.00    -0.353 N
HETATM    7  C2  UNL     1     -11.200  37.784  38.173  1.00  0.00     0.145 C
HETATM    8  C3  UNL     1     -11.753  38.427  39.398  1.00  0.00     0.145 C
HETATM    9  N4  UNL     1     -12.829  39.353  39.156  1.00  0.00    -0.353 N
HETATM   10  C4  UNL     1     -13.592  39.781  40.276  1.00  0.00     0.186 C
HETATM   11  N5  UNL     1     -14.914  39.350  40.498  1.00  0.00    -0.064 NA
HETATM   12  N6  UNL     1     -13.035  40.588  41.103  1.00  0.00    -0.365 N
ATOM     13  H6  UNL     1     -12.077  40.902  40.944  1.00  0.00     0.162 HD
HETATM   14  C12 UNL     1     -13.185  39.876  37.859  1.00  0.00     0.145 C
HETATM   15  C13 UNL     1     -11.986  39.837  36.939  1.00  0.00     0.145 C
ENDROOT
BRANCH  12  16
HETATM   16  C5  UNL     1     -13.758  41.048  42.246  1.00  0.00     0.122 C
BRANCH  16  17
HETATM   17  C6  UNL     1     -12.845  41.401  43.421  1.00  0.00     0.020 C
BRANCH  17  18
HETATM   18  C7  UNL     1     -13.461  42.614  44.083  1.00  0.00     0.002 C
BRANCH  18  19
HETATM   19  C8  UNL     1     -13.248  42.639  45.566  1.00  0.00     0.010 C
BRANCH  19  20
HETATM   20  C9  UNL     1     -13.890  43.920  46.086  1.00  0.00     0.074 C
BRANCH  20  21
HETATM   21  S1  UNL     1     -15.669  43.565  46.259  1.00  0.00    -0.167 SA
BRANCH  21  22
HETATM   22  C10 UNL     1     -16.145  44.036  47.952  1.00  0.00     0.101 C
BRANCH  22  23
HETATM   23  C11 UNL     1     -17.119  45.191  47.827  1.00  0.00     0.239 C
BRANCH  23  24
HETATM   24  N7  UNL     1     -16.896  46.202  48.839  1.00  0.00    -0.079 N
ATOM     25  H73 UNL     1     -16.282  45.857  49.577  1.00  0.00     0.274 HD
ATOM     26  H72 UNL     1     -16.311  46.958  48.484  1.00  0.00     0.274 HD
ATOM     27  H71 UNL     1     -17.771  46.560  49.222  1.00  0.00     0.274 HD
ENDBRANCH  23  24
ENDBRANCH  22  23
ENDBRANCH  21  22
ENDBRANCH  20  21
ENDBRANCH  19  20
ENDBRANCH  18  19
ENDBRANCH  17  18
ENDBRANCH  16  17
ENDBRANCH  12  16
TORSDOF 9
ENDMDL