MODEL 4
REMARK VINA RESULT: -7.102143624      1.833      2.468
REMARK  9 active torsions:
REMARK  status: ('A' for Active; 'I' for Inactive)
REMARK    1  A    between atoms: C2_2  and  C3_3
REMARK    2  A    between atoms: C3_3  and  C4_4
REMARK    3  A    between atoms: C4_4  and  N1_5
REMARK    4  A    between atoms: N1_5  and  C5_8
REMARK    5  A    between atoms: C8_13  and  C9_14
REMARK    6  A    between atoms: C9_14  and  C10_15
REMARK    7  A    between atoms: C10_15  and  C11_16
REMARK    8  A    between atoms: C11_16  and  N3_17
REMARK    9  A    between atoms: N3_17  and  C12_19
ROOT
HETATM    1  C5  UNL     1     -12.759  39.651  42.338  1.00  0.00     0.301 C
HETATM    2  C6  UNL     1     -11.793  38.774  41.662  1.00  0.00     0.253 C
HETATM    3  O1  UNL     1     -10.540  38.617  41.824  1.00  0.00    -0.271 OA
HETATM    4  N2  UNL     1     -12.799  38.261  40.853  1.00  0.00    -0.340 N
HETATM    5  C7  UNL     1     -13.463  37.376  39.943  1.00  0.00     0.151 C
HETATM    6  C8  UNL     1     -13.922  38.145  38.695  1.00  0.00     0.094 C
HETATM    7  N5  UNL     1     -14.259  39.474  38.942  1.00  0.00    -0.413 N
ATOM      8  H5  UNL     1     -15.020  39.911  38.422  1.00  0.00     0.153 HD
HETATM    9  C13 UNL     1     -13.535  40.232  39.929  1.00  0.00     0.142 C
HETATM   10  C14 UNL     1     -13.636  39.433  41.201  1.00  0.00     0.144 C
ENDROOT
BRANCH   6  11
HETATM   11  C9  UNL     1     -12.930  37.898  37.616  1.00  0.00     0.028 C
BRANCH  11  12
HETATM   12  C10 UNL     1     -12.707  36.528  37.107  1.00  0.00     0.022 C
BRANCH  12  13
HETATM   13  C11 UNL     1     -11.286  36.119  37.029  1.00  0.00     0.121 C
BRANCH  13  14
HETATM   14  N3  UNL     1     -10.855  35.932  35.632  1.00  0.00    -0.369 N
ATOM     15  H3  UNL     1     -10.594  34.993  35.330  1.00  0.00     0.161 HD
BRANCH  14  16
HETATM   16  C12 UNL     1     -10.784  36.975  34.695  1.00  0.00     0.180 C
HETATM   17  N4  UNL     1     -11.366  36.812  33.415  1.00  0.00    -0.070 NA
HETATM   18  S1  UNL     1     -10.069  38.383  35.067  1.00  0.00    -0.044 SA
ENDBRANCH  14  16
ENDBRANCH  13  14
ENDBRANCH  12  13
ENDBRANCH  11  12
ENDBRANCH   6  11
BRANCH   1  19
HETATM   19  N1  UNL     1     -13.267  38.927  43.510  1.00  0.00    -0.060 N
ATOM     20  H12 UNL     1     -13.164  37.919  43.388  1.00  0.00     0.278 HD
ATOM     21  H11 UNL     1     -14.284  38.987  43.561  1.00  0.00     0.278 HD
BRANCH  19  22
HETATM   22  C4  UNL     1     -12.674  39.352  44.730  1.00  0.00     0.237 C
BRANCH  22  23
HETATM   23  C3  UNL     1     -12.339  40.825  44.606  1.00  0.00     0.054 C
BRANCH  23  24
HETATM   24  C2  UNL     1     -12.666  41.514  45.875  1.00  0.00    -0.035 C
HETATM   25  C1  UNL     1     -13.038  42.775  45.862  1.00  0.00     0.007 C
ENDBRANCH  23  24
ENDBRANCH  22  23
ENDBRANCH  19  22
ENDBRANCH   1  19
TORSDOF 9
ENDMDL