MODEL 1
REMARK VINA RESULT: -7.472582110      0.000      0.000
REMARK  10 active torsions:
REMARK  status: ('A' for Active; 'I' for Inactive)
REMARK    1  A    between atoms: C2_2  and  N1_3
REMARK    2  A    between atoms: C3_4  and  C4_5
REMARK    3  A    between atoms: C5_8  and  S1_9
REMARK    4  A    between atoms: S1_9  and  S2_10
REMARK    5  A    between atoms: S2_10  and  C6_11
REMARK    6  A    between atoms: C7_14  and  N3_15
REMARK    7  A    between atoms: N4_17  and  N5_19
REMARK    8  A    between atoms: N5_19  and  O3_21
REMARK    9  A    between atoms: C9_23  and  N6_24
REMARK   10  A    between atoms: C10_29  and  O4_30
ROOT
HETATM    1  C6  UNL     1       5.311  -4.881  39.694  1.00  0.00     0.134 A
HETATM    2  N2  UNL     1       3.966  -4.867  39.967  1.00  0.00    -0.329 N
ATOM      3  H2  UNL     1       3.336  -4.394  39.318  1.00  0.00     0.168 HD
HETATM    4  C7  UNL     1       3.454  -5.454  41.055  1.00  0.00     0.167 A
HETATM    5  C9  UNL     1       4.280  -6.107  41.958  1.00  0.00     0.147 A
HETATM    6  N7  UNL     1       5.588  -6.114  41.681  1.00  0.00    -0.318 N
ATOM      7  H7  UNL     1       6.221  -6.586  42.327  1.00  0.00     0.169 HD
HETATM    8  C10 UNL     1       6.116  -5.512  40.566  1.00  0.00     0.177 A
ENDROOT
BRANCH   1   9
HETATM    9  S2  UNL     1       5.749  -4.029  38.194  1.00  0.00    -0.030 SA
BRANCH   9  10
HETATM   10  S1  UNL     1       6.214  -2.030  38.708  1.00  0.00    -0.043 SA
BRANCH  10  11
HETATM   11  C5  UNL     1       4.966  -0.948  38.050  1.00  0.00     0.114 A
HETATM   12  C3  UNL     1       4.008  -0.317  38.877  1.00  0.00     0.139 A
HETATM   13  N1  UNL     1       3.116   0.562  38.375  1.00  0.00    -0.293 N
HETATM   14  C12 UNL     1       3.130   0.852  37.035  1.00  0.00     0.330 A
HETATM   15  N8  UNL     1       4.020   0.271  36.236  1.00  0.00    -0.274 N
HETATM   16  O6  UNL     1       2.288   1.672  36.588  1.00  0.00    -0.246 OA
HETATM   17  C11 UNL     1       4.933  -0.619  36.717  1.00  0.00     0.269 A
ATOM     18  H8  UNL     1       4.019   0.496  35.241  1.00  0.00     0.173 HD
HETATM   19  O5  UNL     1       5.774  -1.150  35.940  1.00  0.00    -0.266 OA
BRANCH  12  20
HETATM   20  C4  UNL     1       4.043  -0.719  40.274  1.00  0.00     0.228 C
HETATM   21  O1  UNL     1       4.563  -0.032  41.167  1.00  0.00    -0.643 OA
HETATM   22  O2  UNL     1       3.451  -1.960  40.618  1.00  0.00    -0.643 OA
ENDBRANCH  12  20
BRANCH  13  23
HETATM   23  C2  UNL     1       2.152   1.243  39.220  1.00  0.00     0.130 C
HETATM   24  C1  UNL     1       1.190   0.343  39.911  1.00  0.00     0.027 C
ENDBRANCH  13  23
ENDBRANCH  10  11
ENDBRANCH   9  10
ENDBRANCH   1   9
BRANCH   8  25
HETATM   25  O4  UNL     1       7.488  -5.597  40.407  1.00  0.00    -0.344 OA
ATOM     26  H4  UNL     1       8.104  -5.458  41.116  1.00  0.00     0.219 HD
ENDBRANCH   8  25
BRANCH   4  27
HETATM   27  N3  UNL     1       2.068  -5.441  41.334  1.00  0.00    -0.266 N
HETATM   28  N4  UNL     1       1.255  -6.196  40.761  1.00  0.00    -0.220 N
ATOM     29  H4  UNL     1       0.277  -6.105  41.036  1.00  0.00     0.210 HD
ATOM     30  H3  UNL     1       1.716  -4.786  42.032  1.00  0.00     0.190 HD
BRANCH  28  31
HETATM   31  N5  UNL     1       1.542  -7.145  39.792  1.00  0.00    -0.192 N
HETATM   32  C8  UNL     1       1.584  -8.565  40.133  1.00  0.00     0.209 C
BRANCH  31  33
HETATM   33  O3  UNL     1       1.789  -6.788  38.514  1.00  0.00    -0.272 OA
ATOM     34  H3  UNL     1       1.168  -6.268  38.019  1.00  0.00     0.246 HD
ENDBRANCH  31  33
ENDBRANCH  28  31
ENDBRANCH   4  27
BRANCH   5  35
HETATM   35  N6  UNL     1       3.771  -6.667  43.000  1.00  0.00    -0.382 N
ATOM     36  H62 UNL     1       3.201  -7.512  42.964  1.00  0.00     0.157 HD
ATOM     37  H61 UNL     1       3.933  -6.261  43.921  1.00  0.00     0.157 HD
ENDBRANCH   5  35
TORSDOF 10
ENDMDL