MODEL 1
REMARK VINA RESULT: -7.855245147      0.000      0.000
REMARK  13 active torsions:
REMARK  status: ('A' for Active; 'I' for Inactive)
REMARK    1  A    between atoms: C2_2  and  O1_3
REMARK    2  A    between atoms: C2_2  and  C3_5
REMARK    3  A    between atoms: C3_5  and  C4_6
REMARK    4  A    between atoms: C5_7  and  C6_8
REMARK    5  A    between atoms: C6_8  and  O2_9
REMARK    6  A    between atoms: C6_8  and  C7_11
REMARK    7  A    between atoms: C8_12  and  N1_13
REMARK    8  A    between atoms: C9_18  and  N3_19
REMARK    9  A    between atoms: N7_30  and  C12_31
REMARK   10  A    between atoms: C12_31  and  O5_32
REMARK   11  A    between atoms: O5_32  and  C13_33
REMARK   12  A    between atoms: C13_33  and  C14_35
REMARK   13  A    between atoms: N8_36  and  O7_38
ROOT
HETATM    1  C4  UNL     1       4.053  -4.606  40.760  1.00  0.00     0.052 A
HETATM    2  C5  UNL     1       3.928  -3.205  40.642  1.00  0.00     0.092 A
HETATM    3  N6  UNL     1       2.797  -2.837  41.317  1.00  0.00    -0.329 N
ATOM      4  H6  UNL     1       2.441  -1.886  41.412  1.00  0.00     0.168 HD
HETATM    5  C11 UNL     1       2.246  -3.920  41.822  1.00  0.00     0.184 A
HETATM    6  S1  UNL     1       0.867  -4.012  42.718  1.00  0.00    -0.040 SA
HETATM    7  N7  UNL     1       3.013  -5.015  41.485  1.00  0.00    -0.280 N
ENDROOT
BRANCH   2   8
HETATM    8  C6  UNL     1       4.862  -2.302  40.045  1.00  0.00     0.112 C
BRANCH   8   9
HETATM    9  O2  UNL     1       5.999  -2.262  40.695  1.00  0.00    -0.357 OA
ATOM     10  H2  UNL     1       6.374  -1.389  40.710  1.00  0.00     0.217 HD
ENDBRANCH   8   9
BRANCH   8  11
HETATM   11  C7  UNL     1       4.823  -1.421  38.906  1.00  0.00     0.092 A
HETATM   12  C8  UNL     1       4.151  -0.238  38.775  1.00  0.00     0.204 A
HETATM   13  N2  UNL     1       4.262   0.542  37.626  1.00  0.00    -0.170 N
HETATM   14  C9  UNL     1       5.014   0.165  36.614  1.00  0.00     0.678 A
ATOM     15  H2  UNL     1       3.751   1.423  37.568  1.00  0.00     0.186 HD
HETATM   16  N4  UNL     1       5.677  -0.988  36.703  1.00  0.00    -0.178 N
HETATM   17  C10 UNL     1       5.614  -1.777  37.778  1.00  0.00     0.148 A
ATOM     18  H4  UNL     1       6.257  -1.281  35.916  1.00  0.00     0.185 HD
HETATM   19  N5  UNL     1       6.340  -2.994  37.833  1.00  0.00    -0.081 NA
BRANCH  12  20
HETATM   20  N1  UNL     1       3.233   0.297  39.692  1.00  0.00    -0.096 N
HETATM   21  O3  UNL     1       2.086  -0.250  39.750  1.00  0.00    -0.530 OA
HETATM   22  O4  UNL     1       3.430   1.335  40.495  1.00  0.00    -0.530 OA
ENDBRANCH  12  20
BRANCH  14  23
HETATM   23  N3  UNL     1       5.116   0.906  35.531  1.00  0.00    -0.234 N
ATOM     24  H32 UNL     1       5.998   0.950  35.020  1.00  0.00     0.174 HD
ATOM     25  H31 UNL     1       4.322   1.444  35.185  1.00  0.00     0.174 HD
ENDBRANCH  14  23
ENDBRANCH   8  11
ENDBRANCH   2   8
BRANCH   1  26
HETATM   26  C3  UNL     1       5.234  -5.310  40.257  1.00  0.00     0.091 C
BRANCH  26  27
HETATM   27  C2  UNL     1       6.462  -5.332  41.061  1.00  0.00     0.119 C
HETATM   28  C1  UNL     1       6.150  -6.271  42.259  1.00  0.00     0.039 C
BRANCH  27  29
HETATM   29  O1  UNL     1       7.540  -5.893  40.455  1.00  0.00    -0.396 OA
ATOM     30  H1  UNL     1       8.172  -6.018  41.154  1.00  0.00     0.210 HD
ENDBRANCH  27  29
ENDBRANCH  26  27
ENDBRANCH   1  26
BRANCH   7  31
HETATM   31  C12 UNL     1       2.623  -6.339  41.904  1.00  0.00     0.247 C
BRANCH  31  32
HETATM   32  O5  UNL     1       2.495  -7.284  40.968  1.00  0.00    -0.269 OA
BRANCH  32  33
HETATM   33  C13 UNL     1       1.596  -7.650  40.073  1.00  0.00     0.306 C
HETATM   34  O6  UNL     1       1.015  -8.751  40.077  1.00  0.00    -0.258 OA
BRANCH  33  35
HETATM   35  C14 UNL     1       1.219  -6.731  38.976  1.00  0.00     0.196 C
HETATM   36  N8  UNL     1       0.820  -7.231  37.836  1.00  0.00    -0.275 N
ATOM     37  H8  UNL     1       0.770  -8.240  37.701  1.00  0.00     0.193 HD
BRANCH  36  38
HETATM   38  O7  UNL     1       0.473  -6.373  36.827  1.00  0.00    -0.290 OA
ATOM     39  H7  UNL     1       1.088  -6.230  36.117  1.00  0.00     0.244 HD
ENDBRANCH  36  38
ENDBRANCH  33  35
ENDBRANCH  32  33
ENDBRANCH  31  32
ENDBRANCH   7  31
TORSDOF 13
ENDMDL