MODEL 1
REMARK VINA RESULT: -8.113396255      0.000      0.000
REMARK  11 active torsions:
REMARK  status: ('A' for Active; 'I' for Inactive)
REMARK    1  A    between atoms: C1_2  and  O2_4
REMARK    2  A    between atoms: O2_4  and  C2_5
REMARK    3  A    between atoms: C8_12  and  N2_13
REMARK    4  A    between atoms: N2_13  and  N3_15
REMARK       I    between atoms: N3_15  and  C9_17
REMARK    5  A    between atoms: C9_17  and  C10_19
REMARK    6  A    between atoms: C10_19  and  S1_20
REMARK    7  A    between atoms: S1_20  and  C11_21
REMARK    8  A    between atoms: C11_21  and  N4_22
REMARK    9  A    between atoms: C11_21  and  N5_26
REMARK   10  A    between atoms: C13_31  and  O5_32
REMARK   11  A    between atoms: C14_34  and  N6_35
ROOT
HETATM    1  C2  UNL     1      -0.303  -5.270  42.462  1.00  0.00     0.158 C
HETATM    2  C3  UNL     1       0.939  -4.899  42.331  1.00  0.00     0.023 C
HETATM    3  C4  UNL     1       2.098  -5.782  42.652  1.00  0.00     0.128 C
HETATM    4  C5  UNL     1       3.174  -5.568  41.647  1.00  0.00     0.167 C
HETATM    5  O3  UNL     1       3.798  -6.568  41.231  1.00  0.00    -0.292 OA
HETATM    6  C6  UNL     1       3.493  -4.250  41.162  1.00  0.00     0.062 A
HETATM    7  C7  UNL     1       2.554  -3.226  41.242  1.00  0.00     0.059 A
HETATM    8  C8  UNL     1       2.800  -1.954  40.802  1.00  0.00     0.066 A
HETATM    9  C12 UNL     1       4.081  -1.720  40.249  1.00  0.00     0.071 A
HETATM   10  C13 UNL     1       5.030  -2.694  40.153  1.00  0.00     0.102 A
HETATM   11  C14 UNL     1       4.723  -3.952  40.613  1.00  0.00     0.150 A
HETATM   12  C15 UNL     1       1.252  -3.555  41.836  1.00  0.00     0.194 C
HETATM   13  O8  UNL     1       0.357  -2.703  41.946  1.00  0.00    -0.287 OA
ENDROOT
BRANCH   8  14
HETATM   14  N2  UNL     1       1.879  -0.897  40.847  1.00  0.00    -0.297 N
ATOM     15  H2  UNL     1       1.361  -0.690  41.701  1.00  0.00     0.187 HD
BRANCH  14  16
HETATM   16  N3  UNL     1       1.686  -0.119  39.665  1.00  0.00    -0.269 N
HETATM   17  C9  UNL     1       2.360   1.106  39.479  1.00  0.00     0.245 C
HETATM   18  O4  UNL     1       3.137   1.511  40.370  1.00  0.00    -0.271 OA
ATOM     19  H3  UNL     1       1.049  -0.455  38.943  1.00  0.00     0.190 HD
BRANCH  17  20
HETATM   20  C10 UNL     1       2.152   1.888  38.258  1.00  0.00     0.182 C
BRANCH  20  21
HETATM   21  S1  UNL     1       3.002   1.242  36.821  1.00  0.00    -0.100 SA
BRANCH  21  22
HETATM   22  C11 UNL     1       4.350   0.165  37.388  1.00  0.00     0.440 C
BRANCH  22  23
HETATM   23  N4  UNL     1       4.592  -0.824  36.352  1.00  0.00    -0.041 N
ATOM     24  H43 UNL     1       3.777  -1.408  36.163  1.00  0.00     0.277 HD
ATOM     25  H42 UNL     1       4.681  -0.411  35.423  1.00  0.00     0.277 HD
ATOM     26  H41 UNL     1       5.412  -1.365  36.625  1.00  0.00     0.277 HD
ENDBRANCH  22  23
BRANCH  22  27
HETATM   27  N5  UNL     1       5.565   0.895  37.625  1.00  0.00    -0.041 N
ATOM     28  H53 UNL     1       5.696   1.629  36.929  1.00  0.00     0.277 HD
ATOM     29  H52 UNL     1       5.489   1.476  38.460  1.00  0.00     0.277 HD
ATOM     30  H51 UNL     1       6.378   0.282  37.674  1.00  0.00     0.277 HD
ENDBRANCH  22  27
ENDBRANCH  21  22
ENDBRANCH  20  21
ENDBRANCH  17  20
ENDBRANCH  14  16
ENDBRANCH   8  14
BRANCH  10  31
HETATM   31  O5  UNL     1       6.298  -2.431  39.598  1.00  0.00    -0.358 OA
ATOM     32  H5  UNL     1       6.615  -2.909  38.840  1.00  0.00     0.217 HD
ENDBRANCH  10  31
BRANCH  11  33
HETATM   33  N6  UNL     1       5.702  -4.984  40.524  1.00  0.00    -0.112 N
HETATM   34  O6  UNL     1       5.952  -5.526  39.429  1.00  0.00    -0.532 OA
HETATM   35  O7  UNL     1       6.338  -5.361  41.678  1.00  0.00    -0.532 OA
ENDBRANCH  11  33
BRANCH   1  36
HETATM   36  O2  UNL     1      -1.447  -4.582  42.212  1.00  0.00    -0.275 OA
BRANCH  36  37
HETATM   37  C1  UNL     1      -2.528  -4.442  43.088  1.00  0.00     0.377 C
HETATM   38  N1  UNL     1      -3.356  -3.297  43.120  1.00  0.00    -0.032 NA
HETATM   39  O1  UNL     1      -2.738  -5.410  43.871  1.00  0.00    -0.242 OA
ENDBRANCH  36  37
ENDBRANCH   1  36
TORSDOF 11
ENDMDL