MODEL 1
REMARK VINA RESULT: -8.909100765      0.000      0.000
REMARK  11 active torsions:
REMARK  status: ('A' for Active; 'I' for Inactive)
REMARK    1  A    between atoms: O1_2  and  C2_3
REMARK    2  A    between atoms: C4_5  and  N1_6
REMARK    3  A    between atoms: C7_11  and  N2_12
REMARK    4  A    between atoms: N2_12  and  C8_14
REMARK    5  A    between atoms: C9_17  and  N4_18
REMARK    6  A    between atoms: C10_23  and  N6_24
REMARK    7  A    between atoms: N7_27  and  N8_28
REMARK    8  A    between atoms: C11_30  and  C12_31
REMARK    9  A    between atoms: C12_31  and  C13_32
REMARK   10  A    between atoms: C12_31  and  N12_42
REMARK   11  A    between atoms: C14_38  and  N11_39
ROOT
HETATM    1  C8  UNL     1       5.714  -2.326  38.177  1.00  0.00     0.733 A
HETATM    2  N3  UNL     1       6.472  -1.710  37.255  1.00  0.00    -0.020 N
ATOM      3  H3  UNL     1       6.403  -0.699  37.140  1.00  0.00     0.203 HD
HETATM    4  C9  UNL     1       7.334  -2.422  36.470  1.00  0.00     0.705 A
HETATM    5  N5  UNL     1       7.423  -3.755  36.626  1.00  0.00    -0.020 N
ATOM      6  H5  UNL     1       8.063  -4.298  36.047  1.00  0.00     0.203 HD
HETATM    7  C10 UNL     1       6.661  -4.365  37.551  1.00  0.00     0.726 A
HETATM    8  N7  UNL     1       5.801  -3.656  38.333  1.00  0.00     0.090 N
ENDROOT
BRANCH   8   9
HETATM    9  N8  UNL     1       5.055  -4.379  39.263  1.00  0.00    -0.277 N
HETATM   10  C11 UNL     1       5.534  -5.042  40.234  1.00  0.00     0.120 C
ATOM     11  H8  UNL     1       4.040  -4.376  39.153  1.00  0.00     0.187 HD
BRANCH  10  12
HETATM   12  C12 UNL     1       4.654  -5.779  41.170  1.00  0.00     0.251 C
BRANCH  12  13
HETATM   13  C13 UNL     1       5.389  -6.449  42.268  1.00  0.00     0.113 A
HETATM   14  N9  UNL     1       6.602  -6.150  42.761  1.00  0.00    -0.239 N
HETATM   15  O4  UNL     1       6.905  -6.957  43.714  1.00  0.00    -0.155 OA
ATOM     16  H9  UNL     1       7.198  -5.392  42.428  1.00  0.00     0.196 HD
HETATM   17  N10 UNL     1       5.952  -7.795  43.894  1.00  0.00    -0.224 N
HETATM   18  C14 UNL     1       4.969  -7.535  43.023  1.00  0.00     0.148 A
ATOM     19  H10 UNL     1       5.944  -8.540  44.589  1.00  0.00     0.198 HD
BRANCH  18  20
HETATM   20  N11 UNL     1       3.871  -8.173  42.921  1.00  0.00    -0.382 N
ATOM     21 2H11 UNL     1       3.764  -9.187  42.925  1.00  0.00     0.157 HD
ATOM     22 1H11 UNL     1       2.934  -7.784  42.819  1.00  0.00     0.157 HD
ENDBRANCH  18  20
ENDBRANCH  12  13
BRANCH  12  23
HETATM   23  N12 UNL     1       3.598  -4.933  41.694  1.00  0.00    -0.139 N
HETATM   24  O5  UNL     1       3.787  -3.712  41.745  1.00  0.00    -0.536 OA
HETATM   25  O6  UNL     1       2.401  -5.425  42.135  1.00  0.00    -0.536 OA
ENDBRANCH  12  23
ENDBRANCH  10  12
ENDBRANCH   8   9
BRANCH   1  26
HETATM   26  N2  UNL     1       4.915  -1.672  38.904  1.00  0.00    -0.186 N
ATOM     27  H2  UNL     1       4.880  -1.951  39.885  1.00  0.00     0.184 HD
BRANCH  26  28
HETATM   28  C7  UNL     1       4.072  -0.616  38.543  1.00  0.00     0.082 A
HETATM   29  C2  UNL     1       3.015  -0.279  39.362  1.00  0.00     0.097 A
HETATM   30  C3  UNL     1       2.150   0.761  39.046  1.00  0.00     0.075 A
HETATM   31  C4  UNL     1       2.327   1.500  37.882  1.00  0.00     0.105 A
HETATM   32  C5  UNL     1       3.388   1.148  37.076  1.00  0.00     0.038 A
HETATM   33  C6  UNL     1       4.260   0.109  37.384  1.00  0.00     0.035 A
BRANCH  29  34
HETATM   34  O1  UNL     1       2.846  -1.021  40.522  1.00  0.00    -0.354 OA
HETATM   35  C1  UNL     1       1.523  -1.308  40.928  1.00  0.00     0.210 C
ENDBRANCH  29  34
BRANCH  31  36
HETATM   36  N1  UNL     1       1.458   2.568  37.532  1.00  0.00    -0.116 N
HETATM   37  O2  UNL     1       1.447   3.670  38.104  1.00  0.00    -0.532 OA
HETATM   38  O3  UNL     1       0.579   2.370  36.501  1.00  0.00    -0.532 OA
ENDBRANCH  31  36
ENDBRANCH  26  28
ENDBRANCH   1  26
BRANCH   7  39
HETATM   39  N6  UNL     1       6.769  -5.643  37.675  1.00  0.00    -0.232 N
ATOM     40  H62 UNL     1       6.800  -6.249  36.855  1.00  0.00     0.174 HD
ATOM     41  H61 UNL     1       6.823  -6.029  38.618  1.00  0.00     0.174 HD
ENDBRANCH   7  39
BRANCH   4  42
HETATM   42  N4  UNL     1       8.076  -1.866  35.577  1.00  0.00    -0.234 N
ATOM     43  H42 UNL     1       7.642  -1.588  34.697  1.00  0.00     0.174 HD
ATOM     44  H41 UNL     1       9.072  -1.698  35.719  1.00  0.00     0.174 HD
ENDBRANCH   4  42
TORSDOF 11
ENDMDL