MODEL 1
REMARK VINA RESULT: -8.661550724      0.000      0.000
REMARK  14 active torsions:
REMARK  status: ('A' for Active; 'I' for Inactive)
REMARK    1  A    between atoms: O1_2  and  C2_3
REMARK    2  A    between atoms: C2_3  and  O3_5
REMARK    3  A    between atoms: O3_5  and  C3_6
REMARK    4  A    between atoms: C3_6  and  C4_8
REMARK    5  A    between atoms: C4_8  and  O5_9
REMARK    6  A    between atoms: O5_9  and  C5_10
REMARK    7  A    between atoms: C7_12  and  N1_13
REMARK    8  A    between atoms: N1_13  and  C8_14
REMARK    9  A    between atoms: C8_14  and  O6_15
REMARK   10  A    between atoms: C8_14  and  C9_17
REMARK   11  A    between atoms: C9_17  and  C10_19
REMARK   12  A    between atoms: C11_21  and  N2_22
REMARK   13  A    between atoms: C13_29  and  N5_30
REMARK   14  A    between atoms: C15_34  and  O11_35
ROOT
HETATM    1  C5  UNL     1       5.196  -1.270  38.456  1.00  0.00     0.105 A
HETATM    2  C6  UNL     1       5.101  -2.225  39.445  1.00  0.00     0.087 A
HETATM    3  C7  UNL     1       5.633  -3.522  39.332  1.00  0.00     0.146 A
HETATM    4  C13 UNL     1       6.274  -3.815  38.150  1.00  0.00     0.146 A
HETATM    5  C14 UNL     1       6.379  -2.852  37.136  1.00  0.00     0.079 A
HETATM    6  C15 UNL     1       5.843  -1.607  37.307  1.00  0.00     0.101 A
ENDROOT
BRANCH   3   7
HETATM    7  N1  UNL     1       5.675  -4.374  40.412  1.00  0.00    -0.374 NA
BRANCH   7   8
HETATM    8  C8  UNL     1       5.714  -5.202  41.456  1.00  0.00     0.269 C
BRANCH   8   9
HETATM    9  O6  UNL     1       6.788  -5.599  42.104  1.00  0.00    -0.332 OA
ATOM     10  H6  UNL     1       7.105  -6.491  42.184  1.00  0.00     0.220 HD
ENDBRANCH   8   9
BRANCH   8  11
HETATM   11  C9  UNL     1       4.499  -5.847  42.069  1.00  0.00     0.273 C
HETATM   12  O7  UNL     1       4.600  -6.763  42.897  1.00  0.00    -0.279 OA
BRANCH  11  13
HETATM   13  C10 UNL     1       3.157  -5.402  41.701  1.00  0.00     0.176 A
HETATM   14  O8  UNL     1       2.630  -4.214  41.944  1.00  0.00    -0.272 OA
HETATM   15  C11 UNL     1       1.394  -4.152  41.481  1.00  0.00     0.223 A
HETATM   16  N3  UNL     1       1.108  -5.320  40.924  1.00  0.00    -0.308 N
HETATM   17  C12 UNL     1       2.180  -6.113  41.046  1.00  0.00     0.158 A
ATOM     18  H3  UNL     1       0.225  -5.570  40.480  1.00  0.00     0.170 HD
HETATM   19  N4  UNL     1       2.308  -7.450  40.572  1.00  0.00    -0.079 NA
BRANCH  15  20
HETATM   20  N2  UNL     1       0.658  -3.082  41.598  1.00  0.00    -0.365 N
ATOM     21  H22 UNL     1       0.626  -2.393  42.349  1.00  0.00     0.159 HD
ATOM     22  H21 UNL     1      -0.019  -2.805  40.887  1.00  0.00     0.159 HD
ENDBRANCH  15  20
ENDBRANCH  11  13
ENDBRANCH   8  11
ENDBRANCH   7   8
ENDBRANCH   3   7
BRANCH   4  23
HETATM   23  N5  UNL     1       6.814  -5.101  37.849  1.00  0.00    -0.112 N
HETATM   24  O9  UNL     1       6.403  -5.792  36.908  1.00  0.00    -0.532 OA
HETATM   25  O10 UNL     1       7.880  -5.575  38.577  1.00  0.00    -0.532 OA
ENDBRANCH   4  23
BRANCH   1  26
HETATM   26  O5  UNL     1       4.619   0.001  38.682  1.00  0.00    -0.339 OA
BRANCH  26  27
HETATM   27  C4  UNL     1       3.239   0.195  38.409  1.00  0.00     0.287 C
BRANCH  27  28
HETATM   28  C3  UNL     1       2.694   1.176  39.381  1.00  0.00     0.292 C
HETATM   29  O4  UNL     1       3.301   1.497  40.434  1.00  0.00    -0.262 OA
BRANCH  28  30
HETATM   30  O3  UNL     1       1.458   1.796  39.154  1.00  0.00    -0.219 OA
BRANCH  30  31
HETATM   31  C2  UNL     1       1.193   2.508  37.994  1.00  0.00     0.413 C
HETATM   32  O2  UNL     1       0.880   1.928  36.925  1.00  0.00    -0.229 OA
BRANCH  31  33
HETATM   33  O1  UNL     1       1.280   3.879  38.047  1.00  0.00    -0.303 OA
HETATM   34  C1  UNL     1       0.161   4.738  38.048  1.00  0.00     0.215 C
ENDBRANCH  31  33
ENDBRANCH  30  31
ENDBRANCH  28  30
ENDBRANCH  27  28
ENDBRANCH  26  27
ENDBRANCH   1  26
BRANCH   6  35
HETATM   35  O11 UNL     1       5.941  -0.633  36.294  1.00  0.00    -0.358 OA
ATOM     36  H11 UNL     1       5.704  -0.885  35.409  1.00  0.00     0.217 HD
ENDBRANCH   6  35
TORSDOF 14
ENDMDL