MODEL 1
REMARK VINA RESULT: -7.360582110      0.000      0.000
REMARK  15 active torsions:
REMARK  status: ('A' for Active; 'I' for Inactive)
REMARK    1  A    between atoms: C2_2  and  O2_4
REMARK    2  A    between atoms: O2_4  and  C3_5
REMARK    3  A    between atoms: C3_5  and  O3_6
REMARK    4  A    between atoms: C3_5  and  C6_10
REMARK    5  A    between atoms: O3_6  and  C4_7
REMARK    6  A    between atoms: C7_11  and  O5_12
REMARK    7  A    between atoms: C8_14  and  O6_15
REMARK    8  A    between atoms: O6_15  and  C9_16
REMARK    9  A    between atoms: C10_19  and  O8_20
REMARK   10  A    between atoms: C11_22  and  C12_23
REMARK   11  A    between atoms: C12_23  and  O9_24
REMARK   12  A    between atoms: C12_23  and  C15_28
REMARK   13  A    between atoms: O9_24  and  C13_25
REMARK   14  A    between atoms: C15_28  and  O11_30
REMARK   15  A    between atoms: C17_32  and  O12_33
ROOT
HETATM    1  C6  UNL     1       4.070  -1.818  40.011  1.00  0.00     0.067 A
HETATM    2  C7  UNL     1       5.263  -2.560  39.916  1.00  0.00     0.116 A
HETATM    3  C8  UNL     1       5.323  -3.860  40.351  1.00  0.00     0.148 A
HETATM    4  C10 UNL     1       4.244  -4.457  40.882  1.00  0.00     0.114 A
HETATM    5  C11 UNL     1       3.037  -3.774  41.008  1.00  0.00     0.044 A
HETATM    6  C17 UNL     1       2.983  -2.455  40.560  1.00  0.00     0.091 A
ENDROOT
BRANCH   1   7
HETATM    7  C3  UNL     1       4.093  -0.421  39.520  1.00  0.00     0.319 C
BRANCH   7   8
HETATM    8  O2  UNL     1       5.165  -0.234  38.559  1.00  0.00    -0.285 OA
BRANCH   8   9
HETATM    9  C2  UNL     1       4.914  -0.243  37.206  1.00  0.00     0.257 C
HETATM   10  C1  UNL     1       4.614   0.927  36.355  1.00  0.00     0.126 C
HETATM   11  O1  UNL     1       4.947  -1.384  36.638  1.00  0.00    -0.266 OA
ENDBRANCH   8   9
ENDBRANCH   7   8
BRANCH   7  12
HETATM   12  O3  UNL     1       2.923  -0.043  38.815  1.00  0.00    -0.285 OA
BRANCH  12  13
HETATM   13  C4  UNL     1       2.157   1.081  39.251  1.00  0.00     0.257 C
HETATM   14  C5  UNL     1       1.557   1.952  38.163  1.00  0.00     0.126 C
HETATM   15  O4  UNL     1       2.048   1.248  40.456  1.00  0.00    -0.266 OA
ENDBRANCH  12  13
ENDBRANCH   7  12
ENDBRANCH   1   7
BRANCH   2  16
HETATM   16  O5  UNL     1       6.365  -1.964  39.380  1.00  0.00    -0.357 OA
ATOM     17  H5  UNL     1       7.204  -2.085  39.809  1.00  0.00     0.217 HD
ENDBRANCH   2  16
BRANCH   6  18
HETATM   18  O12 UNL     1       1.787  -1.735  40.659  1.00  0.00    -0.359 OA
ATOM     19  H12 UNL     1       1.692  -1.132  41.388  1.00  0.00     0.217 HD
ENDBRANCH   6  18
BRANCH   3  20
HETATM   20  O6  UNL     1       6.504  -4.634  40.273  1.00  0.00    -0.258 OA
BRANCH  20  21
HETATM   21  C9  UNL     1       6.748  -5.105  38.960  1.00  0.00     0.378 C
HETATM   22  N1  UNL     1       7.840  -5.941  38.665  1.00  0.00    -0.032 NA
HETATM   23  O7  UNL     1       5.994  -4.794  37.998  1.00  0.00    -0.242 OA
ENDBRANCH  20  21
ENDBRANCH   3  20
BRANCH   5  24
HETATM   24  C12 UNL     1       1.872  -4.461  41.508  1.00  0.00     0.199 C
BRANCH  24  25
HETATM   25  O9  UNL     1       1.222  -4.941  40.270  1.00  0.00    -0.309 OA
BRANCH  25  26
HETATM   26  C13 UNL     1       1.235  -6.270  39.917  1.00  0.00     0.255 C
HETATM   27  C14 UNL     1       0.744  -6.737  38.575  1.00  0.00     0.126 C
HETATM   28  O10 UNL     1       1.674  -7.090  40.766  1.00  0.00    -0.266 OA
ENDBRANCH  25  26
ENDBRANCH  24  25
BRANCH  24  29
HETATM   29  C15 UNL     1       0.747  -3.602  42.052  1.00  0.00     0.148 C
HETATM   30  C16 UNL     1      -0.625  -4.069  41.993  1.00  0.00     0.042 C
BRANCH  29  31
HETATM   31  O11 UNL     1       1.117  -3.286  43.358  1.00  0.00    -0.393 OA
ATOM     32  H11 UNL     1       0.968  -2.353  43.446  1.00  0.00     0.210 HD
ENDBRANCH  29  31
ENDBRANCH  24  29
ENDBRANCH   5  24
BRANCH   4  33
HETATM   33  O8  UNL     1       4.273  -5.748  41.326  1.00  0.00    -0.357 OA
ATOM     34  H8  UNL     1       3.502  -6.179  41.677  1.00  0.00     0.217 HD
ENDBRANCH   4  33
TORSDOF 15
ENDMDL