MODEL 3
REMARK VINA RESULT: -7.332424529      0.587      1.402
REMARK  11 active torsions:
REMARK  status: ('A' for Active; 'I' for Inactive)
REMARK    1  A    between atoms: O1_2  and  C2_3
REMARK    2  A    between atoms: C2_3  and  C3_5
REMARK    3  A    between atoms: C3_5  and  N1_8
REMARK    4  A    between atoms: N1_8  and  C6_10
REMARK    5  A    between atoms: C7_13  and  N3_14
REMARK    6  A    between atoms: N3_14  and  N4_16
REMARK    7  A    between atoms: N4_16  and  C8_18
REMARK    8  A    between atoms: C8_18  and  C9_22
REMARK    9  A    between atoms: C10_28  and  N8_29
REMARK   10  A    between atoms: C11_34  and  N10_35
REMARK   11  A    between atoms: C14_39  and  N12_40
ROOT
HETATM    1  N10 UNL     1       5.835  -5.139  40.911  1.00  0.00    -0.272 N
HETATM    2  C12 UNL     1       6.417  -5.184  39.558  1.00  0.00     0.170 C
HETATM    3  C13 UNL     1       6.545  -5.749  41.927  1.00  0.00     0.185 C
HETATM    4  N11 UNL     1       7.131  -6.249  42.793  1.00  0.00    -0.172 NA
ENDROOT
BRANCH   1   5
HETATM    5  C11 UNL     1       4.598  -4.471  41.050  1.00  0.00     0.169 A
HETATM    6  N9  UNL     1       4.499  -3.177  40.653  1.00  0.00    -0.172 N
HETATM    7  C7  UNL     1       3.372  -2.471  40.805  1.00  0.00     0.700 A
ATOM      8  H9  UNL     1       5.309  -2.728  40.225  1.00  0.00     0.186 HD
HETATM    9  N2  UNL     1       2.317  -3.092  41.373  1.00  0.00    -0.173 N
HETATM   10  C6  UNL     1       2.281  -4.354  41.805  1.00  0.00     0.155 A
ATOM     11  H2  UNL     1       1.464  -2.543  41.483  1.00  0.00     0.186 HD
HETATM   12  C14 UNL     1       3.518  -5.065  41.615  1.00  0.00     0.192 A
BRANCH   7  13
HETATM   13  N3  UNL     1       3.293  -1.105  40.377  1.00  0.00    -0.130 N
ATOM     14  H3  UNL     1       2.374  -0.662  40.375  1.00  0.00     0.205 HD
BRANCH  13  15
HETATM   15  N4  UNL     1       4.377  -0.341  39.965  1.00  0.00    -0.270 N
ATOM     16  H4  UNL     1       5.009   0.056  40.662  1.00  0.00     0.189 HD
BRANCH  15  17
HETATM   17  C8  UNL     1       4.614  -0.106  38.596  1.00  0.00     0.147 C
HETATM   18  N5  UNL     1       5.694  -0.572  38.071  1.00  0.00    -0.382 N
ATOM     19  H52 UNL     1       6.328  -1.089  38.681  1.00  0.00     0.157 HD
ATOM     20  H51 UNL     1       5.865  -0.402  37.080  1.00  0.00     0.157 HD
BRANCH  17  21
HETATM   21  C9  UNL     1       3.711   0.632  37.726  1.00  0.00     0.146 A
HETATM   22  N6  UNL     1       3.674   0.537  36.359  1.00  0.00    -0.234 N
HETATM   23  O3  UNL     1       2.759   1.328  35.936  1.00  0.00    -0.155 OA
ATOM     24  H6  UNL     1       4.269  -0.057  35.781  1.00  0.00     0.197 HD
HETATM   25  N7  UNL     1       2.180   1.946  36.913  1.00  0.00    -0.224 N
HETATM   26  C10 UNL     1       2.746   1.540  38.079  1.00  0.00     0.154 A
ATOM     27  H7  UNL     1       1.423   2.624  36.824  1.00  0.00     0.198 HD
BRANCH  26  28
HETATM   28  N8  UNL     1       2.422   1.948  39.270  1.00  0.00    -0.382 N
ATOM     29  H82 UNL     1       2.467   1.396  40.127  1.00  0.00     0.157 HD
ATOM     30  H81 UNL     1       2.074   2.865  39.550  1.00  0.00     0.157 HD
ENDBRANCH  26  28
ENDBRANCH  17  21
ENDBRANCH  15  17
ENDBRANCH  13  15
ENDBRANCH   7  13
BRANCH  10  31
HETATM   31  N1  UNL     1       1.346  -4.980  42.334  1.00  0.00    -0.356 N
ATOM     32  H1  UNL     1       1.621  -5.285  43.267  1.00  0.00     0.162 HD
BRANCH  31  33
HETATM   33  C3  UNL     1       0.066  -5.393  42.070  1.00  0.00     0.112 C
HETATM   34  C4  UNL     1      -0.523  -6.559  42.823  1.00  0.00     0.049 C
HETATM   35  C5  UNL     1      -0.093  -5.725  40.572  1.00  0.00     0.049 C
BRANCH  33  36
HETATM   36  C2  UNL     1      -0.961  -4.277  42.270  1.00  0.00     0.286 C
HETATM   37  O2  UNL     1      -0.876  -3.240  41.560  1.00  0.00    -0.262 OA
BRANCH  36  38
HETATM   38  O1  UNL     1      -1.971  -4.361  43.192  1.00  0.00    -0.325 OA
HETATM   39  C1  UNL     1      -3.296  -3.988  42.852  1.00  0.00     0.213 C
ENDBRANCH  36  38
ENDBRANCH  33  36
ENDBRANCH  31  33
ENDBRANCH  10  31
BRANCH  12  40
HETATM   40  N12 UNL     1       3.527  -6.417  41.992  1.00  0.00    -0.108 N
HETATM   41  O4  UNL     1       3.317  -7.337  41.156  1.00  0.00    -0.531 OA
HETATM   42  O5  UNL     1       3.755  -6.856  43.267  1.00  0.00    -0.531 OA
ENDBRANCH  12  40
ENDBRANCH   1   5
TORSDOF 11
ENDMDL