MODEL 3
REMARK VINA RESULT: -7.361181059      1.174      1.950
REMARK  11 active torsions:
REMARK  status: ('A' for Active; 'I' for Inactive)
REMARK    1  A    between atoms: C2_2  and  C3_3
REMARK    2  A    between atoms: C3_3  and  O1_4
REMARK    3  A    between atoms: O1_4  and  C4_5
REMARK    4  A    between atoms: C4_5  and  O2_6
REMARK    5  A    between atoms: C4_5  and  C5_8
REMARK    6  A    between atoms: C6_9  and  C7_10
REMARK    7  A    between atoms: C7_10  and  N1_12
REMARK    8  A    between atoms: N1_12  and  C9_14
REMARK    9  A    between atoms: N9_31  and  C11_32
REMARK   10  A    between atoms: C13_38  and  C14_39
REMARK   11  A    between atoms: C14_39  and  N12_40
ROOT
HETATM    1  C5  UNL     1       5.572  -3.622  39.555  1.00  0.00     0.142 A
HETATM    2  C6  UNL     1       6.034  -3.353  38.232  1.00  0.00     0.083 A
HETATM    3  N7  UNL     1       6.734  -4.518  37.896  1.00  0.00    -0.285 N
ATOM      4  H7  UNL     1       7.222  -4.707  37.021  1.00  0.00     0.188 HD
HETATM    5  N8  UNL     1       6.641  -5.284  38.891  1.00  0.00    -0.234 N
ATOM      6  H8  UNL     1       7.074  -6.208  38.897  1.00  0.00     0.209 HD
HETATM    7  N9  UNL     1       5.959  -4.835  39.919  1.00  0.00    -0.226 N
ENDROOT
BRANCH   2   8
HETATM    8  C7  UNL     1       5.712  -2.251  37.304  1.00  0.00     0.149 C
HETATM    9  C8  UNL     1       6.970  -2.288  36.328  1.00  0.00     0.039 C
BRANCH   8  10
HETATM   10  N1  UNL     1       5.341  -1.020  37.562  1.00  0.00    -0.214 N
ATOM     11  H1  UNL     1       6.081  -0.572  38.103  1.00  0.00     0.178 HD
BRANCH  10  12
HETATM   12  C9  UNL     1       4.423  -0.191  37.395  1.00  0.00     0.709 A
HETATM   13  N2  UNL     1       4.222   0.310  36.143  1.00  0.00    -0.117 N
HETATM   14  N3  UNL     1       3.364   1.290  35.920  1.00  0.00    -0.214 N
ATOM     15  H2  UNL     1       4.746  -0.082  35.361  1.00  0.00     0.207 HD
HETATM   16  N4  UNL     1       2.646   1.853  36.905  1.00  0.00    -0.117 N
ATOM     17  H3  UNL     1       3.243   1.632  34.967  1.00  0.00     0.209 HD
HETATM   18  C10 UNL     1       2.827   1.362  38.146  1.00  0.00     0.706 A
ATOM     19  H4  UNL     1       1.995   2.616  36.723  1.00  0.00     0.207 HD
HETATM   20  N5  UNL     1       2.146   1.862  39.119  1.00  0.00    -0.233 N
HETATM   21  N6  UNL     1       3.700   0.356  38.401  1.00  0.00    -0.020 N
ATOM     22  H52 UNL     1       1.490   2.618  38.927  1.00  0.00     0.174 HD
ATOM     23  H51 UNL     1       2.284   1.490  40.060  1.00  0.00     0.174 HD
ATOM     24  H6  UNL     1       3.813   0.011  39.354  1.00  0.00     0.203 HD
ENDBRANCH  10  12
ENDBRANCH   8  10
ENDBRANCH   2   8
BRANCH   1  25
HETATM   25  C4  UNL     1       4.861  -2.630  40.297  1.00  0.00     0.210 C
BRANCH  25  26
HETATM   26  O1  UNL     1       3.712  -2.492  41.005  1.00  0.00    -0.329 OA
BRANCH  26  27
HETATM   27  C3  UNL     1       2.730  -1.666  40.474  1.00  0.00     0.177 C
BRANCH  27  28
HETATM   28  C2  UNL     1       1.423  -1.655  41.203  1.00  0.00     0.022 C
HETATM   29  C1  UNL     1       1.142  -2.800  42.063  1.00  0.00     0.007 C
ENDBRANCH  27  28
ENDBRANCH  26  27
ENDBRANCH  25  26
BRANCH  25  30
HETATM   30  O2  UNL     1       5.538  -1.454  40.383  1.00  0.00    -0.339 OA
ATOM     31  H2  UNL     1       6.462  -1.661  40.456  1.00  0.00     0.220 HD
ENDBRANCH  25  30
ENDBRANCH   1  25
BRANCH   7  32
HETATM   32  C11 UNL     1       5.561  -5.646  41.007  1.00  0.00     0.132 A
HETATM   33  S1  UNL     1       6.534  -6.134  42.403  1.00  0.00     0.008 SA
HETATM   34  N10 UNL     1       5.367  -6.888  43.306  1.00  0.00    -0.312 N
HETATM   35  C12 UNL     1       4.309  -6.788  42.584  1.00  0.00     0.139 A
ATOM     36  H10 UNL     1       5.465  -7.329  44.221  1.00  0.00     0.175 HD
HETATM   37  N11 UNL     1       3.087  -7.207  43.269  1.00  0.00    -0.081 NA
HETATM   38  C13 UNL     1       4.326  -6.151  41.367  1.00  0.00     0.083 A
BRANCH  38  39
HETATM   39  C14 UNL     1       3.062  -6.011  40.565  1.00  0.00     0.126 C
HETATM   40  N13 UNL     1       2.426  -7.377  40.201  1.00  0.00    -0.082 NA
BRANCH  39  41
HETATM   41  N12 UNL     1       2.462  -5.154  40.099  1.00  0.00    -0.387 N
ATOM     42 2H12 UNL     1       1.872  -4.709  40.803  1.00  0.00     0.157 HD
ATOM     43 1H12 UNL     1       2.333  -4.760  39.168  1.00  0.00     0.157 HD
ENDBRANCH  39  41
ENDBRANCH  38  39
ENDBRANCH   7  32
TORSDOF 11
ENDMDL