MODEL 2
REMARK VINA RESULT: -8.342854670      1.077      1.195
REMARK  9 active torsions:
REMARK  status: ('A' for Active; 'I' for Inactive)
REMARK    1  A    between atoms: O1_2  and  C2_3
REMARK    2  A    between atoms: C2_3  and  C3_5
REMARK    3  A    between atoms: C3_5  and  C4_6
REMARK    4  A    between atoms: C4_6  and  N1_7
REMARK    5  A    between atoms: C7_13  and  O3_14
REMARK    6  A    between atoms: O3_14  and  C8_15
REMARK    7  A    between atoms: C9_16  and  N4_17
REMARK       I    between atoms: N4_17  and  C10_19
REMARK    8  A    between atoms: C12_30  and  N9_31
REMARK       I    between atoms: N9_31  and  C13_33
REMARK    9  A    between atoms: C13_33  and  O6_35
ROOT
HETATM    1  N1  UNL     1       1.522  -3.047  41.561  1.00  0.00    -0.275 N
HETATM    2  N2  UNL     1       0.891  -1.950  41.212  1.00  0.00    -0.285 N
ATOM      3  H2  UNL     1      -0.104  -1.788  41.367  1.00  0.00     0.188 HD
HETATM    4  C5  UNL     1       1.713  -1.067  40.625  1.00  0.00     0.166 A
HETATM    5  C6  UNL     1       1.285   0.206  40.126  1.00  0.00     0.122 C
HETATM    6  N3  UNL     1       0.967   1.237  39.718  1.00  0.00    -0.190 NA
HETATM    7  C7  UNL     1       2.992  -1.631  40.585  1.00  0.00     0.157 A
HETATM    8  C15 UNL     1       2.789  -2.875  41.194  1.00  0.00     0.170 A
HETATM    9  N10 UNL     1       3.772  -3.882  41.449  1.00  0.00    -0.078 NA
ENDROOT
BRANCH   7  10
HETATM   10  O3  UNL     1       4.159  -1.108  40.092  1.00  0.00    -0.296 OA
BRANCH  10  11
HETATM   11  C8  UNL     1       4.838  -1.270  38.941  1.00  0.00     0.165 A
HETATM   12  C9  UNL     1       4.741  -0.213  38.014  1.00  0.00     0.162 A
HETATM   13  N6  UNL     1       5.381  -0.325  36.857  1.00  0.00    -0.174 N
HETATM   14  C11 UNL     1       6.112  -1.390  36.531  1.00  0.00     0.679 A
ATOM     15  H6  UNL     1       5.310   0.440  36.186  1.00  0.00     0.186 HD
HETATM   16  N7  UNL     1       6.735  -1.486  35.388  1.00  0.00    -0.234 N
HETATM   17  N8  UNL     1       6.205  -2.411  37.436  1.00  0.00    -0.174 N
ATOM     18  H72 UNL     1       6.666  -0.725  34.713  1.00  0.00     0.174 HD
ATOM     19  H71 UNL     1       7.294  -2.301  35.138  1.00  0.00     0.174 HD
HETATM   20  C12 UNL     1       5.597  -2.392  38.629  1.00  0.00     0.163 A
ATOM     21  H8  UNL     1       6.766  -3.226  37.190  1.00  0.00     0.186 HD
BRANCH  12  22
HETATM   22  N4  UNL     1       4.003   0.979  38.358  1.00  0.00    -0.294 N
HETATM   23  C10 UNL     1       3.163   1.590  37.420  1.00  0.00     0.334 C
HETATM   24  N5  UNL     1       2.446   2.759  37.780  1.00  0.00    -0.040 NA
HETATM   25  O4  UNL     1       3.034   1.113  36.255  1.00  0.00    -0.251 OA
ATOM     26  H4  UNL     1       4.095   1.379  39.292  1.00  0.00     0.172 HD
ENDBRANCH  12  22
BRANCH  20  27
HETATM   27  N9  UNL     1       5.743  -3.450  39.558  1.00  0.00    -0.286 N
HETATM   28  C13 UNL     1       6.523  -4.589  39.458  1.00  0.00     0.365 C
HETATM   29  O5  UNL     1       6.539  -5.421  40.434  1.00  0.00    -0.238 OA
ATOM     30  H9  UNL     1       5.201  -3.360  40.417  1.00  0.00     0.172 HD
BRANCH  28  31
HETATM   31  O6  UNL     1       7.308  -4.943  38.391  1.00  0.00    -0.309 OA
HETATM   32  C14 UNL     1       6.803  -5.783  37.381  1.00  0.00     0.215 C
ENDBRANCH  28  31
ENDBRANCH  20  27
ENDBRANCH  10  11
ENDBRANCH   7  10
BRANCH   1  33
HETATM   33  C4  UNL     1       0.921  -4.216  42.224  1.00  0.00     0.160 C
BRANCH  33  34
HETATM   34  C3  UNL     1       0.003  -4.886  41.245  1.00  0.00     0.133 C
BRANCH  34  35
HETATM   35  C2  UNL     1      -1.418  -4.503  41.474  1.00  0.00     0.260 C
HETATM   36  O2  UNL     1      -1.753  -3.575  42.247  1.00  0.00    -0.265 OA
BRANCH  35  37
HETATM   37  O1  UNL     1      -2.467  -5.175  40.823  1.00  0.00    -0.326 OA
HETATM   38  C1  UNL     1      -2.327  -5.738  39.533  1.00  0.00     0.213 C
ENDBRANCH  35  37
ENDBRANCH  34  35
ENDBRANCH  33  34
ENDBRANCH   1  33
TORSDOF 9
ENDMDL