MODEL 4
REMARK VINA RESULT: -7.495834122      1.175      2.536
REMARK  13 active torsions:
REMARK  status: ('A' for Active; 'I' for Inactive)
REMARK    1  A    between atoms: O1_2  and  C2_3
REMARK    2  A    between atoms: C2_3  and  C3_5
REMARK    3  A    between atoms: C4_7  and  N1_8
REMARK    4  A    between atoms: N1_8  and  N2_10
REMARK    5  A    between atoms: C5_12  and  C6_13
REMARK    6  A    between atoms: C7_15  and  C8_16
REMARK    7  A    between atoms: C8_16  and  O4_17
REMARK    8  A    between atoms: C8_16  and  C9_19
REMARK    9  A    between atoms: C10_22  and  N3_23
REMARK   10  A    between atoms: C11_26  and  O9_27
REMARK   11  A    between atoms: C12_31  and  C13_32
REMARK   12  A    between atoms: C13_32  and  N5_33
REMARK   13  A    between atoms: C13_32  and  N6_37
ROOT
HETATM    1  N1  UNL     1       5.917  -3.468  38.702  1.00  0.00    -0.280 N
ATOM      2  H1  UNL     1       6.701  -3.719  38.099  1.00  0.00     0.189 HD
ENDROOT
BRANCH   1   3
HETATM    3  C4  UNL     1       5.354  -2.279  38.641  1.00  0.00     0.164 A
HETATM    4  S1  UNL     1       4.557  -1.411  39.854  1.00  0.00    -0.044 SA
HETATM    5  C3  UNL     1       4.147   0.014  38.924  1.00  0.00     0.110 A
HETATM    6  C12 UNL     1       4.677  -0.307  37.717  1.00  0.00     0.092 A
HETATM    7  N4  UNL     1       5.284  -1.472  37.594  1.00  0.00    -0.334 N
ATOM      8  H4  UNL     1       5.695  -1.748  36.702  1.00  0.00     0.168 HD
BRANCH   5   9
HETATM    9  C2  UNL     1       3.398   1.150  39.444  1.00  0.00     0.302 C
HETATM   10  O2  UNL     1       3.397   1.488  40.616  1.00  0.00    -0.259 OA
BRANCH   9  11
HETATM   11  O1  UNL     1       2.618   1.921  38.562  1.00  0.00    -0.322 OA
HETATM   12  C1  UNL     1       1.213   2.003  38.724  1.00  0.00     0.213 C
ENDBRANCH   9  11
ENDBRANCH   5   9
BRANCH   6  13
HETATM   13  C13 UNL     1       4.645   0.671  36.546  1.00  0.00     0.428 C
BRANCH  13  14
HETATM   14  N5  UNL     1       3.291   0.818  36.068  1.00  0.00    -0.045 N
ATOM     15  H53 UNL     1       3.138   0.320  35.191  1.00  0.00     0.277 HD
ATOM     16  H52 UNL     1       2.622   0.310  36.647  1.00  0.00     0.277 HD
ATOM     17  H51 UNL     1       3.056   1.808  35.991  1.00  0.00     0.277 HD
ENDBRANCH  13  14
BRANCH  13  18
HETATM   18  N6  UNL     1       5.514   0.173  35.491  1.00  0.00    -0.045 N
ATOM     19  H63 UNL     1       5.093  -0.597  34.971  1.00  0.00     0.277 HD
ATOM     20  H62 UNL     1       5.606   0.834  34.719  1.00  0.00     0.277 HD
ATOM     21  H61 UNL     1       6.416  -0.079  35.897  1.00  0.00     0.277 HD
ENDBRANCH  13  18
ENDBRANCH   6  13
ENDBRANCH   1   3
BRANCH   1  22
HETATM   22  N2  UNL     1       5.391  -4.365  39.626  1.00  0.00    -0.307 N
HETATM   23  C5  UNL     1       6.101  -4.981  40.493  1.00  0.00     0.147 C
ATOM     24  H2  UNL     1       4.387  -4.541  39.611  1.00  0.00     0.186 HD
BRANCH  23  25
HETATM   25  C6  UNL     1       5.521  -5.918  41.453  1.00  0.00     0.128 A
HETATM   26  O3  UNL     1       6.166  -6.386  42.490  1.00  0.00    -0.305 OA
HETATM   27  C7  UNL     1       5.388  -7.216  43.183  1.00  0.00     0.129 A
HETATM   28  C10 UNL     1       4.171  -7.288  42.557  1.00  0.00     0.171 A
HETATM   29  C11 UNL     1       4.263  -6.448  41.442  1.00  0.00     0.137 A
BRANCH  27  30
HETATM   30  C8  UNL     1       5.807  -7.919  44.412  1.00  0.00     0.278 C
BRANCH  30  31
HETATM   31  O4  UNL     1       4.814  -7.850  45.400  1.00  0.00    -0.378 OA
ATOM     32  H4  UNL     1       5.018  -8.417  46.135  1.00  0.00     0.211 HD
ENDBRANCH  30  31
BRANCH  30  33
HETATM   33  C9  UNL     1       6.136  -9.315  44.143  1.00  0.00     0.209 C
HETATM   34  O5  UNL     1       7.354  -9.668  44.263  1.00  0.00    -0.646 OA
HETATM   35  O6  UNL     1       5.209 -10.278  43.768  1.00  0.00    -0.646 OA
ENDBRANCH  30  33
ENDBRANCH  27  30
BRANCH  28  36
HETATM   36  N3  UNL     1       2.985  -7.986  42.878  1.00  0.00    -0.110 N
HETATM   37  O7  UNL     1       2.544  -8.872  42.158  1.00  0.00    -0.532 OA
HETATM   38  O8  UNL     1       2.317  -7.607  44.037  1.00  0.00    -0.532 OA
ENDBRANCH  28  36
BRANCH  29  39
HETATM   39  O9  UNL     1       3.243  -6.244  40.548  1.00  0.00    -0.356 OA
ATOM     40  H9  UNL     1       2.417  -5.792  40.674  1.00  0.00     0.218 HD
ENDBRANCH  29  39
ENDBRANCH  23  25
ENDBRANCH   1  22
TORSDOF 13
ENDMDL