MODEL 3
REMARK VINA RESULT: -7.750847417      0.635      1.047
REMARK  7 active torsions:
REMARK  status: ('A' for Active; 'I' for Inactive)
REMARK    1  A    between atoms: O1_2  and  C2_3
REMARK    2  A    between atoms: C2_3  and  C3_4
REMARK    3  A    between atoms: C3_4  and  O2_5
REMARK    4  A    between atoms: N1_9  and  C6_10
REMARK    5  A    between atoms: C11_16  and  C12_17
REMARK    6  A    between atoms: C13_21  and  C14_22
REMARK    7  A    between atoms: C18_26  and  C19_27
ROOT
HETATM    1  C3  UNL     1      -5.327  12.800   0.393  1.00  0.00     0.083 C
HETATM    2  C4  UNL     1      -5.336  13.487   1.713  1.00  0.00     0.059 C
HETATM    3  C5  UNL     1      -5.933  14.896   1.607  1.00  0.00     0.121 C
HETATM    4  N1  UNL     1      -7.291  14.848   1.101  1.00  0.00    -0.398 N
HETATM    5  C11 UNL     1      -7.717  13.646   0.563  1.00  0.00     0.143 C
HETATM    6  C20 UNL     1      -6.593  13.093  -0.315  1.00  0.00     0.072 C
ENDROOT
BRANCH   5   7
HETATM    7  C12 UNL     1      -8.277  12.559   1.304  1.00  0.00     0.116 A
HETATM    8  O4  UNL     1      -7.784  12.088   2.426  1.00  0.00    -0.239 OA
HETATM    9  N2  UNL     1      -8.446  11.124   2.897  1.00  0.00    -0.264 N
HETATM   10  C13 UNL     1      -9.521  10.836   2.080  1.00  0.00     0.058 A
ATOM     11  H2  UNL     1      -8.221  10.629   3.759  1.00  0.00     0.194 HD
HETATM   12  C18 UNL     1      -9.409  11.752   1.072  1.00  0.00     0.106 A
BRANCH  10  13
HETATM   13  C14 UNL     1     -10.466   9.767   2.311  1.00  0.00    -0.006 C
HETATM   14  C15 UNL     1     -10.708   8.811   1.168  1.00  0.00     0.021 C
HETATM   15  C16 UNL     1      -9.855   8.848   3.405  1.00  0.00     0.021 C
HETATM   16  C17 UNL     1     -11.790  10.168   2.868  1.00  0.00     0.021 C
ENDBRANCH  10  13
BRANCH  12  17
HETATM   17  C19 UNL     1     -10.250  11.970  -0.060  1.00  0.00     0.421 C
HETATM   18  F1  UNL     1      -9.810  11.386  -1.243  1.00  0.00    -0.166 F
HETATM   19  F2  UNL     1     -11.570  11.555   0.015  1.00  0.00    -0.166 F
HETATM   20  F3  UNL     1     -10.508  13.310  -0.362  1.00  0.00    -0.166 F
ENDBRANCH  12  17
ENDBRANCH   5   7
BRANCH   4  21
HETATM   21  C6  UNL     1      -7.599  16.067   0.426  1.00  0.00     0.084 C
HETATM   22  C7  UNL     1      -6.404  16.564  -0.405  1.00  0.00     0.051 C
HETATM   23  C8  UNL     1      -6.711  17.855  -1.092  1.00  0.00     0.169 C
HETATM   24  O3  UNL     1      -8.010  18.241  -0.855  1.00  0.00    -0.391 OA
HETATM   25  C9  UNL     1      -8.834  17.241  -1.363  1.00  0.00     0.169 C
HETATM   26  C10 UNL     1      -8.859  16.108  -0.362  1.00  0.00     0.051 C
ENDBRANCH   4  21
BRANCH   1  27
HETATM   27  C2  UNL     1      -4.185  13.295  -0.479  1.00  0.00     0.205 C
BRANCH  27  28
HETATM   28  O1  UNL     1      -3.170  12.354  -0.481  1.00  0.00    -0.393 OA
HETATM   29  C1  UNL     1      -2.074  12.839  -1.187  1.00  0.00     0.201 C
ENDBRANCH  27  28
ENDBRANCH   1  27
BRANCH   1  30
HETATM   30  O2  UNL     1      -5.132  11.427   0.533  1.00  0.00    -0.388 OA
ATOM     31  H2  UNL     1      -4.192  11.294   0.502  1.00  0.00     0.210 HD
ENDBRANCH   1  30
TORSDOF 7
ENDMDL