MODEL 4
REMARK VINA RESULT: -7.487588071      2.800      3.319
REMARK  4 active torsions:
REMARK  status: ('A' for Active; 'I' for Inactive)
REMARK       I    between atoms: C1_2  and  N1_3
REMARK    1  A    between atoms: C1_2  and  C10_15
REMARK    2  A    between atoms: N1_3  and  C2_5
REMARK    3  A    between atoms: C12_20  and  S1_21
REMARK    4  A    between atoms: S1_21  and  C13_22
ROOT
HETATM    1  C10 UNL     1      -8.066  14.046   0.860  1.00  0.00     0.077 A
HETATM    2  C11 UNL     1      -9.275  14.333   0.224  1.00  0.00     0.127 A
HETATM    3  N2  UNL     1     -10.071  13.276   0.488  1.00  0.00    -0.303 N
ATOM      4  H2  UNL     1     -11.031  13.192   0.154  1.00  0.00     0.186 HD
HETATM    5  N3  UNL     1      -9.472  12.371   1.222  1.00  0.00    -0.247 N
HETATM    6  C12 UNL     1      -9.928  11.213   1.700  1.00  0.00     0.120 A
HETATM    7  C14 UNL     1      -9.088  10.438   2.487  1.00  0.00     0.069 A
HETATM    8 CL1  UNL     1      -9.686   8.922   3.131  1.00  0.00    -0.081 Cl
HETATM    9  C15 UNL     1      -7.786  10.846   2.780  1.00  0.00     0.029 A
HETATM   10  C16 UNL     1      -7.377  12.045   2.259  1.00  0.00     0.034 A
HETATM   11  C17 UNL     1      -8.215  12.824   1.471  1.00  0.00     0.074 A
ENDROOT
BRANCH   1  12
HETATM   12  C1  UNL     1      -6.855  14.843   0.850  1.00  0.00     0.255 C
HETATM   13  O1  UNL     1      -6.979  16.089   0.845  1.00  0.00    -0.268 OA
HETATM   14  N1  UNL     1      -5.586  14.226   0.839  1.00  0.00    -0.352 N
ATOM     15  H1  UNL     1      -5.501  13.209   0.833  1.00  0.00     0.163 HD
BRANCH  14  16
HETATM   16  C2  UNL     1      -4.396  15.078   0.838  1.00  0.00     0.085 C
HETATM   17  C3  UNL     1      -3.388  14.390  -0.087  1.00  0.00     0.030 C
HETATM   18  C4  UNL     1      -2.111  15.192  -0.214  1.00  0.00     0.070 C
HETATM   19  C5  UNL     1      -1.568  15.420   1.194  1.00  0.00     0.164 C
HETATM   20  C6  UNL     1      -2.391  14.645   2.195  1.00  0.00     0.070 C
HETATM   21  O2  UNL     1      -1.682  16.759   1.542  1.00  0.00    -0.353 OA
HETATM   22  O3  UNL     1      -0.214  15.078   1.218  1.00  0.00    -0.353 OA
HETATM   23  C7  UNL     1      -3.795  15.272   2.186  1.00  0.00     0.030 C
HETATM   24  C8  UNL     1      -0.469  17.078   2.162  1.00  0.00     0.197 C
HETATM   25  C9  UNL     1       0.474  16.318   1.220  1.00  0.00     0.197 C
ENDBRANCH  14  16
ENDBRANCH   1  12
BRANCH   6  26
HETATM   26  S1  UNL     1     -11.537  10.554   1.382  1.00  0.00    -0.039 SA
BRANCH  26  27
HETATM   27  C13 UNL     1     -11.602   9.323   0.083  1.00  0.00     0.422 C
HETATM   28  F1  UNL     1     -12.261   8.149   0.454  1.00  0.00    -0.202 F
HETATM   29  F2  UNL     1     -10.332   8.983  -0.298  1.00  0.00    -0.202 F
ENDBRANCH  26  27
ENDBRANCH   6  26
TORSDOF 4
ENDMDL