MODEL 4
REMARK VINA RESULT: -7.830954852      3.656      8.034
REMARK  6 active torsions:
REMARK  status: ('A' for Active; 'I' for Inactive)
REMARK    1  A    between atoms: N1_1  and  C1_5
REMARK    2  A    between atoms: C1_5  and  C2_6
REMARK    3  A    between atoms: C4_8  and  C5_9
REMARK    4  A    between atoms: C7_13  and  O1_14
REMARK    5  A    between atoms: O1_14  and  C8_15
REMARK    6  A    between atoms: C8_15  and  C9_18
ROOT
HETATM    1  C5  UNL     1      -1.880  13.333  -1.929  1.00  0.00    -0.005 A
HETATM    2  C6  UNL     1      -2.933  14.211  -1.808  1.00  0.00     0.102 A
HETATM    3  N2  UNL     1      -3.953  14.018  -0.966  1.00  0.00    -0.343 N
ATOM      4  H2  UNL     1      -4.702  14.709  -0.926  1.00  0.00     0.167 HD
HETATM    5  C7  UNL     1      -4.018  12.908  -0.152  1.00  0.00     0.187 A
HETATM    6  C19 UNL     1      -2.973  12.042  -0.276  1.00  0.00     0.168 A
HETATM    7  F3  UNL     1      -2.924  10.906   0.465  1.00  0.00    -0.202 F
HETATM    8  C20 UNL     1      -1.903  12.215  -1.139  1.00  0.00     0.060 A
ENDROOT
BRANCH   5   9
HETATM    9  O1  UNL     1      -5.052  12.741   0.680  1.00  0.00    -0.262 OA
BRANCH   9  10
HETATM   10  C8  UNL     1      -5.645  13.433   1.687  1.00  0.00     0.386 C
HETATM   11  F1  UNL     1      -5.837  14.788   1.387  1.00  0.00    -0.172 F
HETATM   12  F2  UNL     1      -5.001  13.303   2.927  1.00  0.00    -0.172 F
BRANCH  10  13
HETATM   13  C9  UNL     1      -7.087  12.944   1.960  1.00  0.00     0.224 C
HETATM   14  C10 UNL     1      -6.975  11.420   1.970  1.00  0.00     0.042 C
HETATM   15  C11 UNL     1      -8.214  10.772   2.489  1.00  0.00     0.012 C
HETATM   16  C12 UNL     1      -9.415  10.999   1.598  1.00  0.00    -0.035 C
HETATM   17  C13 UNL     1     -10.514  10.093   2.134  1.00  0.00     0.036 C
HETATM   18  C16 UNL     1      -9.155  10.604   0.188  1.00  0.00     0.036 C
HETATM   19  C17 UNL     1      -9.870  12.405   1.784  1.00  0.00     0.036 C
HETATM   20  C14 UNL     1     -11.615   9.859   1.146  1.00  0.00     0.168 C
HETATM   21  O2  UNL     1     -11.128   9.387  -0.081  1.00  0.00    -0.391 OA
HETATM   22  C15 UNL     1     -10.393  10.461  -0.624  1.00  0.00     0.168 C
HETATM   23  C18 UNL     1      -9.156  13.442   1.028  1.00  0.00     0.169 C
HETATM   24  O3  UNL     1      -7.815  13.301   0.856  1.00  0.00    -0.377 OA
ENDBRANCH  10  13
ENDBRANCH   9  10
ENDBRANCH   5   9
BRANCH   1  25
HETATM   25  C4  UNL     1      -0.779  13.565  -2.854  1.00  0.00     0.000 A
HETATM   26  C3  UNL     1      -0.677  13.282  -4.196  1.00  0.00     0.048 A
HETATM   27  C2  UNL     1       0.587  13.704  -4.620  1.00  0.00     0.078 A
HETATM   28  O4  UNL     1       1.165  14.199  -3.559  1.00  0.00    -0.324 OA
HETATM   29  C21 UNL     1       0.415  14.146  -2.497  1.00  0.00     0.154 A
BRANCH  27  30
HETATM   30  C1  UNL     1       1.128  13.592  -6.005  1.00  0.00     0.294 C
BRANCH  30  31
HETATM   31  N1  UNL     1       0.876  12.237  -6.486  1.00  0.00    -0.074 N
ATOM     32  H13 UNL     1       1.103  11.524  -5.792  1.00  0.00     0.274 HD
ATOM     33  H12 UNL     1      -0.119  12.029  -6.575  1.00  0.00     0.274 HD
ATOM     34  H11 UNL     1       1.383  12.109  -7.361  1.00  0.00     0.274 HD
ENDBRANCH  30  31
ENDBRANCH  27  30
ENDBRANCH   1  25
TORSDOF 6
ENDMDL