MODEL 5
REMARK VINA RESULT: -7.079641316      3.654      4.551
REMARK  5 active torsions:
REMARK  status: ('A' for Active; 'I' for Inactive)
REMARK    1  A    between atoms: C3_3  and  S1_4
REMARK    2  A    between atoms: S1_4  and  C4_5
REMARK    3  A    between atoms: C4_5  and  C5_6
REMARK       I    between atoms: C5_6  and  N1_8
REMARK    4  A    between atoms: N1_8  and  C6_10
REMARK    5  A    between atoms: C11_18  and  C12_19
ROOT
HETATM    1  C1  UNL     1      -7.384  16.688   0.729  1.00  0.00     0.052 C
HETATM    2  C2  UNL     1      -6.183  15.827   0.789  1.00  0.00    -0.017 A
HETATM    3  C3  UNL     1      -6.055  14.745  -0.106  1.00  0.00     0.092 A
HETATM    4  N2  UNL     1      -4.958  13.948  -0.039  1.00  0.00    -0.284 N
ATOM      5  H2  UNL     1      -4.889  13.171  -0.696  1.00  0.00     0.188 HD
HETATM    6  N3  UNL     1      -3.977  14.118   0.827  1.00  0.00    -0.219 N
HETATM    7  C11 UNL     1      -2.810  13.477   1.079  1.00  0.00     0.175 A
HETATM    8  N4  UNL     1      -2.222  14.131   2.101  1.00  0.00    -0.282 N
ATOM      9  H4  UNL     1      -1.325  13.877   2.514  1.00  0.00     0.188 HD
HETATM   10  N5  UNL     1      -2.970  15.150   2.493  1.00  0.00    -0.282 N
ATOM     11  H5  UNL     1      -2.767  15.810   3.244  1.00  0.00     0.188 HD
HETATM   12  C13 UNL     1      -4.060  15.135   1.693  1.00  0.00     0.150 A
HETATM   13  C14 UNL     1      -5.164  16.009   1.693  1.00  0.00    -0.006 A
HETATM   14  C15 UNL     1      -5.247  17.135   2.627  1.00  0.00     0.053 C
ENDROOT
BRANCH   3  15
HETATM   15  S1  UNL     1      -7.346  14.553  -1.295  1.00  0.00    -0.101 SA
BRANCH  15  16
HETATM   16  C4  UNL     1      -8.271  13.046  -1.232  1.00  0.00     0.183 C
BRANCH  16  17
HETATM   17  C5  UNL     1      -9.114  12.828  -0.047  1.00  0.00     0.227 C
HETATM   18  O1  UNL     1      -9.190  13.713   0.835  1.00  0.00    -0.273 OA
HETATM   19  N1  UNL     1      -9.841  11.635   0.116  1.00  0.00    -0.356 N
ATOM     20  H1  UNL     1      -9.752  10.942  -0.626  1.00  0.00     0.162 HD
BRANCH  19  21
HETATM   21  C6  UNL     1     -10.700  11.287   1.220  1.00  0.00     0.084 C
HETATM   22  C7  UNL     1     -11.956  10.560   0.681  1.00  0.00     0.025 C
HETATM   23  C8  UNL     1     -11.308   9.185   0.442  1.00  0.00     0.002 C
HETATM   24  C9  UNL     1     -10.722   8.957   1.819  1.00  0.00     0.002 C
HETATM   25  C10 UNL     1     -10.070  10.278   2.143  1.00  0.00     0.025 C
ENDBRANCH  19  21
ENDBRANCH  16  17
ENDBRANCH  15  16
ENDBRANCH   3  15
BRANCH   7  26
HETATM   26  C12 UNL     1      -2.322  12.262   0.345  1.00  0.00     0.249 C
HETATM   27 CL1  UNL     1      -3.502  10.963   0.401  1.00  0.00    -0.075 Cl
HETATM   28 CL2  UNL     1      -2.065  12.709  -1.364  1.00  0.00    -0.075 Cl
HETATM   29 CL3  UNL     1      -0.746  11.750   1.013  1.00  0.00    -0.075 Cl
ENDBRANCH   7  26
TORSDOF 5
ENDMDL