MODEL 2
REMARK VINA RESULT: -8.232377723      2.221      3.084
REMARK  5 active torsions:
REMARK  status: ('A' for Active; 'I' for Inactive)
REMARK    1  A    between atoms: C7_7  and  C8_8
REMARK    2  A    between atoms: C8_8  and  O1_9
REMARK    3  A    between atoms: O1_9  and  C9_10
REMARK       I    between atoms: C9_10  and  N1_12
REMARK    4  A    between atoms: C14_23  and  O3_24
REMARK    5  A    between atoms: O3_24  and  C15_25
ROOT
HETATM    1  C9  UNL     1      -4.373  14.128   2.776  1.00  0.00     0.366 C
HETATM    2  O2  UNL     1      -4.201  14.540   3.961  1.00  0.00    -0.238 OA
HETATM    3  N1  UNL     1      -3.377  13.478   2.026  1.00  0.00    -0.286 N
ATOM      4  H1  UNL     1      -3.522  12.492   1.811  1.00  0.00     0.172 HD
HETATM    5  C10 UNL     1      -2.310  14.017   1.594  1.00  0.00     0.147 A
HETATM    6  N2  UNL     1      -2.066  15.305   1.845  1.00  0.00    -0.317 N
ATOM      7  H2  UNL     1      -2.734  15.857   2.383  1.00  0.00     0.169 HD
HETATM    8  C11 UNL     1      -0.933  15.874   1.384  1.00  0.00     0.189 A
HETATM    9  C12 UNL     1      -0.710  17.258   1.675  1.00  0.00     0.137 C
HETATM   10  N3  UNL     1      -0.544  18.387   1.900  1.00  0.00    -0.188 NA
HETATM   11  N4  UNL     1      -0.069  15.119   0.678  1.00  0.00    -0.341 N
ATOM     12  H4  UNL     1       0.785  15.559   0.334  1.00  0.00     0.167 HD
HETATM   13  C13 UNL     1      -0.271  13.822   0.401  1.00  0.00     0.131 A
HETATM   14  C14 UNL     1      -1.436  13.222   0.870  1.00  0.00     0.137 A
ENDROOT
BRANCH  14  15
HETATM   15  O3  UNL     1      -1.709  11.884   0.621  1.00  0.00    -0.250 OA
BRANCH  15  16
HETATM   16  C15 UNL     1      -2.348  11.419  -0.548  1.00  0.00     0.530 C
HETATM   17  F1  UNL     1      -3.056  12.494  -1.075  1.00  0.00    -0.144 F
HETATM   18  F2  UNL     1      -1.405  11.006  -1.477  1.00  0.00    -0.144 F
HETATM   19  F3  UNL     1      -3.275  10.431  -0.291  1.00  0.00    -0.144 F
ENDBRANCH  15  16
ENDBRANCH  14  15
BRANCH   1  20
HETATM   20  O1  UNL     1      -5.621  14.346   2.221  1.00  0.00    -0.303 OA
BRANCH  20  21
HETATM   21  C8  UNL     1      -5.816  14.316   0.799  1.00  0.00     0.185 C
BRANCH  21  22
HETATM   22  C7  UNL     1      -7.263  13.876   0.537  1.00  0.00     0.017 C
HETATM   23  C6  UNL     1      -7.484  13.495  -0.889  1.00  0.00     0.022 C
HETATM   24  C5  UNL     1      -8.561  12.417  -0.942  1.00  0.00     0.048 C
HETATM   25  C4  UNL     1      -8.105  11.162  -0.227  1.00  0.00     0.024 C
HETATM   26  S1  UNL     1      -9.944  13.086   0.051  1.00  0.00    -0.164 SA
HETATM   27  C2  UNL     1      -7.521  11.436   1.128  1.00  0.00    -0.042 C
HETATM   28  C1  UNL     1      -6.068  11.074   1.101  1.00  0.00     0.015 C
HETATM   29  C3  UNL     1      -8.165  10.565   2.204  1.00  0.00     0.015 C
HETATM   30  C16 UNL     1      -7.743  12.870   1.542  1.00  0.00     0.009 C
HETATM   31  C17 UNL     1      -9.229  13.120   1.747  1.00  0.00     0.080 C
ENDBRANCH  21  22
ENDBRANCH  20  21
ENDBRANCH   1  20
TORSDOF 5
ENDMDL