MODEL 4
REMARK VINA RESULT: -8.082131394      0.924      1.176
REMARK  6 active torsions:
REMARK  status: ('A' for Active; 'I' for Inactive)
REMARK    1  A    between atoms: C2_2  and  O1_3
REMARK    2  A    between atoms: C2_2  and  C20_27
REMARK    3  A    between atoms: O1_3  and  C3_4
REMARK    4  A    between atoms: C11_13  and  O3_14
REMARK    5  A    between atoms: C12_16  and  C14_18
REMARK    6  A    between atoms: C14_18  and  C15_20
ROOT
HETATM    1  C3  UNL     1      -8.352  12.344   1.344  1.00  0.00     0.122 C
HETATM    2  C4  UNL     1      -7.984  13.672   0.717  1.00  0.00     0.037 C
HETATM    3  C5  UNL     1      -6.541  13.699   0.270  1.00  0.00     0.071 C
HETATM    4  C6  UNL     1      -5.644  12.873   1.126  1.00  0.00     0.165 C
HETATM    5  C7  UNL     1      -6.087  11.465   1.330  1.00  0.00     0.071 C
HETATM    6  C8  UNL     1      -7.469  11.310   0.680  1.00  0.00     0.037 C
HETATM    7  O2  UNL     1      -5.425  13.538   2.330  1.00  0.00    -0.347 OA
HETATM    8  C9  UNL     1      -4.218  13.009   2.780  1.00  0.00     0.158 C
HETATM    9  C10 UNL     1      -3.458  14.079   3.494  1.00  0.00     0.067 C
HETATM   10  C11 UNL     1      -2.099  14.058   2.829  1.00  0.00     0.139 C
HETATM   11  C12 UNL     1      -2.395  13.748   1.378  1.00  0.00     0.078 C
HETATM   12  C13 UNL     1      -2.854  14.946   0.605  1.00  0.00     0.029 C
HETATM   13  C19 UNL     1      -3.470  12.690   1.504  1.00  0.00     0.172 C
HETATM   14  O6  UNL     1      -4.387  12.828   0.492  1.00  0.00    -0.346 OA
ENDROOT
BRANCH   1  15
HETATM   15  O1  UNL     1      -9.667  12.010   1.157  1.00  0.00    -0.372 OA
BRANCH  15  16
HETATM   16  C2  UNL     1      -9.949  11.398  -0.056  1.00  0.00     0.225 C
HETATM   17  C1  UNL     1     -10.615  10.065   0.245  1.00  0.00     0.049 C
BRANCH  16  18
HETATM   18  C20 UNL     1     -10.972  12.211  -0.819  1.00  0.00     0.412 C
HETATM   19  F1  UNL     1     -10.814  13.545  -0.413  1.00  0.00    -0.168 F
HETATM   20  F2  UNL     1     -12.272  11.865  -0.505  1.00  0.00    -0.168 F
HETATM   21  F3  UNL     1     -10.736  12.145  -2.180  1.00  0.00    -0.168 F
ENDBRANCH  16  18
ENDBRANCH  15  16
ENDBRANCH   1  15
BRANCH  11  22
HETATM   22  C14 UNL     1      -1.213  13.130   0.771  1.00  0.00     0.196 C
HETATM   23  O4  UNL     1      -0.455  12.375   1.416  1.00  0.00    -0.289 OA
BRANCH  22  24
HETATM   24  C15 UNL     1      -0.891  13.395  -0.640  1.00  0.00     0.121 A
HETATM   25  C16 UNL     1      -1.473  12.829  -1.750  1.00  0.00     0.043 A
HETATM   26  C17 UNL     1      -0.868  13.364  -2.868  1.00  0.00     0.027 A
HETATM   27  C18 UNL     1       0.072  14.245  -2.384  1.00  0.00     0.142 A
HETATM   28  O5  UNL     1       0.026  14.233  -1.077  1.00  0.00    -0.319 OA
ENDBRANCH  22  24
ENDBRANCH  11  22
BRANCH  10  29
HETATM   29  O3  UNL     1      -1.426  15.265   2.977  1.00  0.00    -0.394 OA
ATOM     30  H3  UNL     1      -0.578  15.154   3.391  1.00  0.00     0.210 HD
ENDBRANCH  10  29
TORSDOF 6
ENDMDL