MODEL 5
REMARK VINA RESULT: -7.856338715      0.937      1.330
REMARK  5 active torsions:
REMARK  status: ('A' for Active; 'I' for Inactive)
REMARK    1  A    between atoms: C4_7  and  C5_8
REMARK    2  A    between atoms: C5_8  and  N3_12
REMARK    3  A    between atoms: C9_17  and  C10_18
REMARK    4  A    between atoms: C9_17  and  N4_21
REMARK    5  A    between atoms: C12_23  and  C13_24
ROOT
HETATM    1  N3  UNL     1      -3.306  13.485   1.346  1.00  0.00    -0.331 N
HETATM    2  C6  UNL     1      -2.238  14.026   2.157  1.00  0.00     0.164 C
HETATM    3  C7  UNL     1      -2.799  14.458   3.470  1.00  0.00     0.192 C
HETATM    4  F1  UNL     1      -2.189  13.796   4.521  1.00  0.00    -0.248 F
HETATM    5  C8  UNL     1      -4.269  14.177   3.403  1.00  0.00     0.100 C
HETATM    6  C9  UNL     1      -4.562  13.813   1.951  1.00  0.00     0.189 C
ENDROOT
BRANCH   6   7
HETATM    7  C10 UNL     1      -5.104  15.070   1.284  1.00  0.00     0.403 C
HETATM    8  F2  UNL     1      -5.700  15.895   2.251  1.00  0.00    -0.210 F
HETATM    9  F3  UNL     1      -4.123  15.820   0.702  1.00  0.00    -0.210 F
ENDBRANCH   6   7
BRANCH   6  10
HETATM   10  N4  UNL     1      -5.555  12.792   1.958  1.00  0.00    -0.250 N
HETATM   11  C11 UNL     1      -6.858  12.856   1.665  1.00  0.00     0.137 A
HETATM   12  C12 UNL     1      -7.403  11.581   1.839  1.00  0.00     0.045 A
HETATM   13  N5  UNL     1      -6.400  10.796   2.230  1.00  0.00    -0.286 N
HETATM   14  N6  UNL     1      -5.299  11.525   2.299  1.00  0.00    -0.018 NA
ATOM     15  H5  UNL     1      -6.470   9.800   2.440  1.00  0.00     0.184 HD
BRANCH  12  16
HETATM   16  C13 UNL     1      -8.812  11.224   1.626  1.00  0.00     0.038 C
HETATM   17  C14 UNL     1      -9.286  10.056   2.438  1.00  0.00     0.011 C
HETATM   18  C15 UNL     1     -10.775   9.961   2.297  1.00  0.00     0.001 C
HETATM   19  C16 UNL     1     -11.345  10.651   1.109  1.00  0.00     0.000 C
HETATM   20  C17 UNL     1     -10.493  10.620  -0.124  1.00  0.00     0.001 C
HETATM   21  C18 UNL     1      -9.028  10.847   0.166  1.00  0.00     0.011 C
ENDBRANCH  12  16
ENDBRANCH   6  10
BRANCH   1  22
HETATM   22  C5  UNL     1      -3.079  12.759   0.138  1.00  0.00     0.118 C
HETATM   23  N2  UNL     1      -3.496  11.585  -0.107  1.00  0.00    -0.384 N
ATOM     24  H22 UNL     1      -3.334  11.067  -0.969  1.00  0.00     0.157 HD
ATOM     25  H21 UNL     1      -4.040  11.144   0.635  1.00  0.00     0.157 HD
BRANCH  22  26
HETATM   26  C4  UNL     1      -2.292  13.398  -0.937  1.00  0.00     0.071 A
HETATM   27  C2  UNL     1      -2.706  14.182  -1.983  1.00  0.00     0.026 A
HETATM   28  C1  UNL     1      -4.176  14.526  -2.147  1.00  0.00     0.070 C
HETATM   29  N1  UNL     1      -1.805  14.609  -2.808  1.00  0.00    -0.362 N
HETATM   30  C3  UNL     1      -0.536  14.292  -2.634  1.00  0.00     0.139 A
ATOM     31  H1  UNL     1      -2.078  15.195  -3.598  1.00  0.00     0.165 HD
HETATM   32  S1  UNL     1      -0.595  13.332  -1.225  1.00  0.00    -0.079 SA
ENDBRANCH  22  26
ENDBRANCH   1  22
TORSDOF 5
ENDMDL