MODEL 4
REMARK VINA RESULT: -7.248608691      2.064      3.038
REMARK  6 active torsions:
REMARK  status: ('A' for Active; 'I' for Inactive)
REMARK    1  A    between atoms: O1_2  and  C2_3
REMARK    2  A    between atoms: C4_7  and  N2_8
REMARK    3  A    between atoms: N2_8  and  C5_10
REMARK    4  A    between atoms: C11_21  and  C12_22
REMARK    5  A    between atoms: C12_22  and  O3_24
REMARK    6  A    between atoms: O3_24  and  C13_25
ROOT
HETATM    1  C2  UNL     1      -3.471  12.463   1.294  1.00  0.00     0.117 A
HETATM    2  C3  UNL     1      -4.421  11.923   0.450  1.00  0.00     0.145 A
HETATM    3  N1  UNL     1      -5.713  12.252   0.609  1.00  0.00    -0.199 N
ATOM      4  H1  UNL     1      -6.395  11.840  -0.027  1.00  0.00     0.183 HD
HETATM    5  C4  UNL     1      -6.160  13.093   1.559  1.00  0.00     0.683 A
HETATM    6  N3  UNL     1      -5.243  13.624   2.387  1.00  0.00    -0.183 N
ATOM      7  H3  UNL     1      -5.545  14.266   3.120  1.00  0.00     0.184 HD
HETATM    8  C11 UNL     1      -3.931  13.325   2.269  1.00  0.00     0.159 A
ENDROOT
BRANCH   5   9
HETATM    9  N2  UNL     1      -7.404  13.404   1.708  1.00  0.00    -0.190 N
ATOM     10  H2  UNL     1      -7.644  14.380   1.886  1.00  0.00     0.184 HD
BRANCH   9  11
HETATM   11  C5  UNL     1      -8.451  12.452   1.634  1.00  0.00     0.072 A
HETATM   12  C6  UNL     1      -8.456  11.278   2.349  1.00  0.00     0.057 A
HETATM   13  C7  UNL     1      -9.490  10.351   2.268  1.00  0.00     0.058 A
HETATM   14 CL1  UNL     1      -9.407   8.886   3.217  1.00  0.00    -0.082 Cl
HETATM   15  C8  UNL     1     -10.561  10.593   1.449  1.00  0.00     0.057 A
HETATM   16 CL2  UNL     1     -11.894   9.455   1.308  1.00  0.00    -0.082 Cl
HETATM   17  C9  UNL     1     -10.581  11.769   0.716  1.00  0.00     0.051 A
HETATM   18  C10 UNL     1      -9.550  12.679   0.805  1.00  0.00     0.063 A
HETATM   19 CL3  UNL     1      -9.611  14.141  -0.127  1.00  0.00    -0.082 Cl
ENDBRANCH   9  11
ENDBRANCH   5   9
BRANCH   8  20
HETATM   20  C12 UNL     1      -2.942  13.918   3.187  1.00  0.00     0.315 C
HETATM   21  O2  UNL     1      -3.081  13.829   4.430  1.00  0.00    -0.257 OA
BRANCH  20  22
HETATM   22  O3  UNL     1      -1.826  14.591   2.709  1.00  0.00    -0.285 OA
BRANCH  22  23
HETATM   23  C13 UNL     1      -1.874  15.821   2.038  1.00  0.00     0.269 C
HETATM   24  C14 UNL     1      -0.662  16.682   2.361  1.00  0.00     0.063 C
HETATM   25  C15 UNL     1      -0.583  17.557   1.107  1.00  0.00     0.031 C
HETATM   26  C16 UNL     1      -1.648  16.979   0.193  1.00  0.00     0.171 C
HETATM   27  O4  UNL     1      -1.704  15.643   0.652  1.00  0.00    -0.361 OA
ENDBRANCH  22  23
ENDBRANCH  20  22
ENDBRANCH   8  20
BRANCH   1  28
HETATM   28  O1  UNL     1      -2.129  12.192   1.216  1.00  0.00    -0.352 OA
HETATM   29  C1  UNL     1      -1.375  12.145   0.044  1.00  0.00     0.210 C
ENDBRANCH   1  28
TORSDOF 6
ENDMDL