MODEL 2
REMARK VINA RESULT: -8.189075748      3.965      8.212
REMARK  5 active torsions:
REMARK  status: ('A' for Active; 'I' for Inactive)
REMARK    1  A    between atoms: C8_8  and  C9_9
REMARK    2  A    between atoms: N1_10  and  N2_12
REMARK       I    between atoms: N2_12  and  C10_14
REMARK    3  A    between atoms: C10_14  and  C11_16
REMARK    4  A    between atoms: C12_22  and  C13_23
REMARK    5  A    between atoms: C14_27  and  C16_29
ROOT
HETATM    1  C9  UNL     1      -5.679  13.430   2.012  1.00  0.00     0.086 C
HETATM    2  N1  UNL     1      -5.997  12.209   2.297  1.00  0.00    -0.312 N
ATOM      3  H1  UNL     1      -5.261  11.504   2.267  1.00  0.00     0.185 HD
ENDROOT
BRANCH   1   4
HETATM    4  C8  UNL     1      -4.265  13.781   1.649  1.00  0.00     0.048 C
HETATM    5  C6  UNL     1      -4.144  13.671   0.178  1.00  0.00    -0.004 C
HETATM    6  C5  UNL     1      -2.782  13.382  -0.345  1.00  0.00    -0.006 C
HETATM    7  C7  UNL     1      -5.116  12.635  -0.404  1.00  0.00     0.011 C
HETATM    8  C4  UNL     1      -2.369  11.972  -0.472  1.00  0.00     0.006 C
HETATM    9  C19 UNL     1      -1.706  13.911   0.613  1.00  0.00    -0.006 C
HETATM   10  C3  UNL     1      -0.836  12.039  -0.478  1.00  0.00     0.005 C
HETATM   11  C2  UNL     1      -0.483  13.492  -0.130  1.00  0.00    -0.014 C
HETATM   12  C1  UNL     1      -0.241  14.300  -1.377  1.00  0.00     0.010 C
HETATM   13  C18 UNL     1      -1.956  15.363   0.754  1.00  0.00     0.007 C
HETATM   14  C17 UNL     1      -2.575  15.604   2.096  1.00  0.00     0.021 C
HETATM   15  C14 UNL     1      -3.943  15.060   2.304  1.00  0.00     0.053 C
HETATM   16  C15 UNL     1      -4.014  14.742   3.821  1.00  0.00     0.027 C
BRANCH  15  17
HETATM   17  C16 UNL     1      -4.909  16.166   2.093  1.00  0.00     0.182 C
HETATM   18  O3  UNL     1      -5.422  16.836   3.030  1.00  0.00    -0.647 OA
HETATM   19  O4  UNL     1      -5.309  16.532   0.819  1.00  0.00    -0.647 OA
ENDBRANCH  15  17
ENDBRANCH   1   4
BRANCH   2  20
HETATM   20  N2  UNL     1      -7.266  11.801   2.638  1.00  0.00    -0.265 N
HETATM   21  C10 UNL     1      -8.034  10.866   1.876  1.00  0.00     0.290 C
HETATM   22  O1  UNL     1      -7.536  10.386   0.842  1.00  0.00    -0.264 OA
ATOM     23  H2  UNL     1      -7.683  12.189   3.485  1.00  0.00     0.190 HD
BRANCH  21  24
HETATM   24  C11 UNL     1      -9.355  10.505   2.320  1.00  0.00     0.159 A
HETATM   25  N3  UNL     1      -9.665   9.834   3.457  1.00  0.00    -0.234 N
HETATM   26  O2  UNL     1     -10.952   9.676   3.537  1.00  0.00    -0.156 OA
ATOM     27  H3  UNL     1      -8.989   9.504   4.145  1.00  0.00     0.197 HD
HETATM   28  N4  UNL     1     -11.502  10.218   2.494  1.00  0.00    -0.234 N
HETATM   29  C12 UNL     1     -10.538  10.754   1.696  1.00  0.00     0.174 A
ATOM     30  H4  UNL     1     -12.504  10.240   2.302  1.00  0.00     0.197 HD
BRANCH  29  31
HETATM   31  C13 UNL     1     -10.808  11.452   0.442  1.00  0.00     0.436 C
HETATM   32  F1  UNL     1     -10.442  12.775   0.510  1.00  0.00    -0.164 F
HETATM   33  F2  UNL     1     -12.181  11.453   0.161  1.00  0.00    -0.164 F
HETATM   34  F3  UNL     1     -10.212  10.813  -0.633  1.00  0.00    -0.164 F
ENDBRANCH  29  31
ENDBRANCH  21  24
ENDBRANCH   2  20
TORSDOF 5
ENDMDL