MODEL 1
REMARK VINA RESULT: -8.275352236      0.000      0.000
REMARK  4 active torsions:
REMARK  status: ('A' for Active; 'I' for Inactive)
REMARK    1  A    between atoms: C3_4  and  C4_5
REMARK    2  A    between atoms: C6_9  and  C7_10
REMARK    3  A    between atoms: C10_15  and  N4_16
REMARK    4  A    between atoms: C16_24  and  C17_25
ROOT
HETATM    1  C4  UNL     1      -5.855  12.820   0.886  1.00  0.00     0.037 A
HETATM    2  C5  UNL     1      -6.179  11.489   1.024  1.00  0.00     0.105 A
HETATM    3  N2  UNL     1      -7.200  10.949   0.383  1.00  0.00    -0.354 N
ATOM      4  H2  UNL     1      -7.424   9.961   0.499  1.00  0.00     0.166 HD
HETATM    5  C6  UNL     1      -7.931  11.725  -0.418  1.00  0.00     0.086 A
HETATM    6  N3  UNL     1      -7.642  13.019  -0.571  1.00  0.00    -0.331 N
ATOM      7  H3  UNL     1      -8.225  13.579  -1.192  1.00  0.00     0.168 HD
HETATM    8  C10 UNL     1      -6.581  13.636   0.078  1.00  0.00     0.117 A
ENDROOT
BRANCH   1   9
HETATM    9  C3  UNL     1      -4.660  13.231   1.611  1.00  0.00     0.022 A
HETATM   10  C2  UNL     1      -4.618  13.621   2.916  1.00  0.00     0.124 A
HETATM   11  N1  UNL     1      -3.376  14.015   3.198  1.00  0.00    -0.307 N
HETATM   12  C1  UNL     1      -2.838  14.524   4.474  1.00  0.00     0.177 C
HETATM   13  N6  UNL     1      -2.648  13.882   2.108  1.00  0.00    -0.300 N
HETATM   14  C16 UNL     1      -3.393  13.401   1.094  1.00  0.00     0.064 A
ATOM     15  H6  UNL     1      -1.656  14.111   2.042  1.00  0.00     0.187 HD
BRANCH  14  16
HETATM   16  C17 UNL     1      -2.903  13.132  -0.309  1.00  0.00     0.171 C
HETATM   17  N5  UNL     1      -1.728  13.887  -0.644  1.00  0.00    -0.348 N
HETATM   18  C18 UNL     1      -0.779  13.075  -1.362  1.00  0.00     0.221 C
ATOM     19  H5  UNL     1      -1.585  14.869  -0.407  1.00  0.00     0.163 HD
HETATM   20  O1  UNL     1       0.340  13.401  -1.827  1.00  0.00    -0.273 OA
HETATM   21  C19 UNL     1      -1.390  11.720  -1.458  1.00  0.00     0.142 C
HETATM   22  C20 UNL     1      -2.291  11.716  -0.247  1.00  0.00     0.207 C
HETATM   23  F3  UNL     1      -3.307  10.777  -0.358  1.00  0.00    -0.246 F
ENDBRANCH  14  16
ENDBRANCH   1   9
BRANCH   8  24
HETATM   24  N4  UNL     1      -6.380  15.007  -0.137  1.00  0.00    -0.366 N
HETATM   25  C11 UNL     1      -6.895  15.864   0.975  1.00  0.00     0.130 C
HETATM   26  C12 UNL     1      -8.117  16.572   0.370  1.00  0.00     0.099 C
HETATM   27  C13 UNL     1      -7.647  17.487  -0.731  1.00  0.00     0.246 C
HETATM   28  F1  UNL     1      -7.807  18.823  -0.379  1.00  0.00    -0.206 F
HETATM   29  F2  UNL     1      -8.385  17.326  -1.897  1.00  0.00    -0.206 F
HETATM   30  C14 UNL     1      -6.203  17.263  -0.992  1.00  0.00     0.099 C
HETATM   31  C15 UNL     1      -5.836  15.772  -1.191  1.00  0.00     0.130 C
ENDBRANCH   8  24
BRANCH   5  32
HETATM   32  C7  UNL     1      -9.089  11.084  -1.129  1.00  0.00     0.053 A
HETATM   33  C8  UNL     1     -10.431  11.426  -0.470  1.00  0.00     0.013 A
HETATM   34  C9  UNL     1     -10.048  11.953  -1.821  1.00  0.00     0.013 A
ENDBRANCH   5  32
TORSDOF 4
ENDMDL