MODEL 4
REMARK VINA RESULT: -7.321250161      1.363      1.567
REMARK  6 active torsions:
REMARK  status: ('A' for Active; 'I' for Inactive)
REMARK    1  A    between atoms: C2_2  and  C4_5
REMARK    2  A    between atoms: C4_5  and  O1_6
REMARK    3  A    between atoms: C4_5  and  C5_8
REMARK    4  A    between atoms: N1_11  and  C8_12
REMARK    5  A    between atoms: C8_12  and  C9_13
REMARK    6  A    between atoms: N2_15  and  C11_16
ROOT
HETATM    1  C5  UNL     1      24.626  12.414  63.639  1.00  0.00     0.020 C
HETATM    2  C6  UNL     1      24.989  10.968  63.761  1.00  0.00     0.037 C
HETATM    3  C7  UNL     1      24.164  10.375  64.887  1.00  0.00     0.273 C
HETATM    4  N1  UNL     1      23.071  11.249  65.265  1.00  0.00     0.094 N
HETATM    5  C18 UNL     1      23.545  12.514  65.823  1.00  0.00     0.273 C
HETATM    6  C19 UNL     1      24.727  13.018  65.022  1.00  0.00     0.037 C
ENDROOT
BRANCH   4   7
HETATM    7  C8  UNL     1      22.354  10.577  66.341  1.00  0.00     0.330 C
BRANCH   7   8
HETATM    8  C9  UNL     1      21.021  10.115  65.943  1.00  0.00     0.054 A
HETATM    9  C10 UNL     1      20.466  10.353  64.698  1.00  0.00     0.119 A
HETATM   10  N2  UNL     1      19.232   9.800  64.643  1.00  0.00    -0.346 N
HETATM   11  C17 UNL     1      19.012   9.226  65.828  1.00  0.00     0.183 A
HETATM   12  N3  UNL     1      20.087   9.415  66.612  1.00  0.00    -0.353 N
ATOM     13  H3  UNL     1      20.181   9.077  67.570  1.00  0.00     0.166 HD
BRANCH  10  14
HETATM   14  C11 UNL     1      18.348   9.840  63.508  1.00  0.00     0.090 C
HETATM   15  C12 UNL     1      16.929   9.443  63.878  1.00  0.00     0.026 C
HETATM   16  C13 UNL     1      16.169   9.243  62.582  1.00  0.00     0.002 C
HETATM   17  C14 UNL     1      16.118  10.556  61.828  1.00  0.00     0.000 C
HETATM   18  C15 UNL     1      17.515  11.083  61.564  1.00  0.00     0.002 C
HETATM   19  C16 UNL     1      18.308  11.202  62.848  1.00  0.00     0.026 C
ENDBRANCH  10  14
ENDBRANCH   7   8
ENDBRANCH   4   7
BRANCH   1  20
HETATM   20  C4  UNL     1      25.245  13.186  62.558  1.00  0.00     0.145 C
BRANCH  20  21
HETATM   21  C2  UNL     1      24.421  14.054  61.699  1.00  0.00     0.056 C
HETATM   22  C1  UNL     1      24.456  15.517  62.041  1.00  0.00     0.035 C
HETATM   23  C3  UNL     1      24.624  13.899  60.216  1.00  0.00     0.035 C
HETATM   24 CL1  UNL     1      22.706  13.548  61.991  1.00  0.00    -0.117 Cl
ENDBRANCH  20  21
BRANCH  20  25
HETATM   25  O1  UNL     1      25.883  12.251  61.705  1.00  0.00    -0.393 OA
ATOM     26  H1  UNL     1      26.390  12.753  61.078  1.00  0.00     0.210 HD
ENDBRANCH  20  25
ENDBRANCH   1  20
TORSDOF 6
ENDMDL