MODEL 4
REMARK VINA RESULT: -7.312220474      2.358      6.143
REMARK  5 active torsions:
REMARK  status: ('A' for Active; 'I' for Inactive)
REMARK    1  A    between atoms: O1_2  and  C2_3
REMARK    2  A    between atoms: C6_7  and  O2_8
REMARK    3  A    between atoms: C8_10  and  O3_11
REMARK    4  A    between atoms: C15_19  and  C16_20
REMARK    5  A    between atoms: C16_20  and  O4_23
ROOT
HETATM    1  C2  UNL     1      19.978  11.630  61.917  1.00  0.00     0.104 A
HETATM    2  C3  UNL     1      21.186  12.165  62.348  1.00  0.00     0.048 A
HETATM    3  C4  UNL     1      21.517  12.104  63.670  1.00  0.00    -0.042 A
HETATM    4  C5  UNL     1      20.631  11.501  64.574  1.00  0.00    -0.015 A
HETATM    5  C6  UNL     1      19.429  10.964  64.177  1.00  0.00     0.111 A
HETATM    6  C8  UNL     1      19.128  11.044  62.836  1.00  0.00     0.135 A
HETATM    7  C10 UNL     1      21.052  11.462  65.999  1.00  0.00     0.042 C
HETATM    8  C11 UNL     1      22.437  10.797  65.962  1.00  0.00     0.013 C
HETATM    9  C12 UNL     1      23.388  11.505  65.076  1.00  0.00     0.028 C
HETATM   10  C13 UNL     1      24.079  10.544  64.154  1.00  0.00     0.175 C
HETATM   11  F1  UNL     1      24.490   9.426  64.834  1.00  0.00    -0.249 F
HETATM   12  C14 UNL     1      25.237  11.294  63.529  1.00  0.00     0.045 C
HETATM   13  C15 UNL     1      24.637  12.349  62.631  1.00  0.00     0.022 C
HETATM   14  C19 UNL     1      23.707  13.275  63.337  1.00  0.00     0.017 C
HETATM   15  C20 UNL     1      22.760  12.630  64.282  1.00  0.00     0.026 C
ENDROOT
BRANCH  13  16
HETATM   16  C16 UNL     1      25.755  13.143  61.986  1.00  0.00     0.054 C
HETATM   17  C17 UNL     1      26.818  12.162  61.477  1.00  0.00     0.045 C
HETATM   18  C18 UNL     1      25.280  13.975  60.816  1.00  0.00     0.045 C
BRANCH  16  19
HETATM   19  O4  UNL     1      26.407  13.956  62.911  1.00  0.00    -0.390 OA
ATOM     20  H4  UNL     1      26.906  13.443  63.538  1.00  0.00     0.210 HD
ENDBRANCH  16  19
ENDBRANCH  13  16
BRANCH   1  21
HETATM   21  O1  UNL     1      19.602  11.671  60.582  1.00  0.00    -0.353 OA
HETATM   22  C1  UNL     1      20.348  12.339  59.595  1.00  0.00     0.210 C
ENDBRANCH   1  21
BRANCH   5  23
HETATM   23  O2  UNL     1      18.621  10.393  65.132  1.00  0.00    -0.352 OA
HETATM   24  C7  UNL     1      18.541   9.013  65.396  1.00  0.00     0.210 C
ENDBRANCH   5  23
BRANCH   6  25
HETATM   25  O3  UNL     1      17.926  10.514  62.396  1.00  0.00    -0.351 OA
HETATM   26  C9  UNL     1      16.753  11.300  62.515  1.00  0.00     0.210 C
ENDBRANCH   6  25
TORSDOF 5
ENDMDL