MODEL 5
REMARK VINA RESULT: -7.241332940      4.438      5.023
REMARK  4 active torsions:
REMARK  status: ('A' for Active; 'I' for Inactive)
REMARK    1  A    between atoms: N2_7  and  C5_8
REMARK    2  A    between atoms: C8_11  and  N3_12
REMARK       I    between atoms: N3_12  and  C9_14
REMARK    3  A    between atoms: C9_14  and  C10_16
REMARK    4  A    between atoms: C10_16  and  C11_17
ROOT
HETATM    1  C5  UNL     1      25.430  12.072  64.554  1.00  0.00     0.114 C
HETATM    2  C6  UNL     1      24.826  10.723  64.232  1.00  0.00     0.032 C
HETATM    3  C7  UNL     1      23.980  10.262  65.390  1.00  0.00     0.056 C
HETATM    4  C8  UNL     1      23.018  11.337  65.748  1.00  0.00     0.223 C
HETATM    5  O2  UNL     1      23.127  12.369  64.819  1.00  0.00    -0.365 OA
HETATM    6  C18 UNL     1      24.361  13.014  64.902  1.00  0.00     0.196 C
ENDROOT
BRANCH   4   7
HETATM    7  N3  UNL     1      21.672  10.882  65.912  1.00  0.00    -0.335 N
HETATM    8  C9  UNL     1      20.880  10.349  64.861  1.00  0.00     0.220 C
HETATM    9  O1  UNL     1      21.395  10.274  63.715  1.00  0.00    -0.274 OA
ATOM     10  H3  UNL     1      21.257  10.943  66.841  1.00  0.00     0.165 HD
BRANCH   8  11
HETATM   11  C10 UNL     1      19.498   9.885  65.053  1.00  0.00     0.109 C
BRANCH  11  12
HETATM   12  C11 UNL     1      18.766   9.693  63.749  1.00  0.00     0.013 C
HETATM   13  C12 UNL     1      17.946   8.446  63.766  1.00  0.00     0.007 C
HETATM   14  C13 UNL     1      16.464   8.694  63.577  1.00  0.00     0.005 C
HETATM   15  C14 UNL     1      16.155   9.509  62.355  1.00  0.00    -0.017 C
HETATM   16  C15 UNL     1      14.853  10.264  62.649  1.00  0.00     0.010 C
HETATM   17  C16 UNL     1      17.203  10.575  62.105  1.00  0.00     0.024 C
HETATM   18  C17 UNL     1      17.904  10.885  63.421  1.00  0.00     0.087 C
HETATM   19 CL1  UNL     1      18.869  12.361  63.208  1.00  0.00    -0.125 Cl
ENDBRANCH  11  12
ENDBRANCH   8  11
ENDBRANCH   4   7
BRANCH   1  20
HETATM   20  N2  UNL     1      26.281  12.441  63.461  1.00  0.00    -0.339 N
HETATM   21  C2  UNL     1      27.201  13.413  63.350  1.00  0.00     0.079 A
HETATM   22  C1  UNL     1      27.504  14.349  64.455  1.00  0.00     0.089 C
HETATM   23  N1  UNL     1      27.738  13.357  62.121  1.00  0.00    -0.355 N
HETATM   24  C3  UNL     1      27.168  12.350  61.443  1.00  0.00     0.106 A
ATOM     25  H1  UNL     1      28.463  13.978  61.762  1.00  0.00     0.166 HD
HETATM   26  C4  UNL     1      26.251  11.777  62.290  1.00  0.00     0.110 A
ENDBRANCH   1  20
TORSDOF 4
ENDMDL