MODEL 4
REMARK VINA RESULT: -7.663565743      1.643      7.771
REMARK  4 active torsions:
REMARK  status: ('A' for Active; 'I' for Inactive)
REMARK       I    between atoms: C1_2  and  N1_3
REMARK    1  A    between atoms: C1_2  and  C8_11
REMARK    2  A    between atoms: N1_3  and  C2_5
REMARK    3  A    between atoms: C10_13  and  N2_14
REMARK    4  A    between atoms: C18_23  and  N3_24
ROOT
HETATM    1  C8  UNL     1      21.580  12.608  63.737  1.00  0.00     0.036 A
HETATM    2  C9  UNL     1      21.961  13.933  63.771  1.00  0.00     0.049 A
HETATM    3  C10 UNL     1      23.306  14.225  63.824  1.00  0.00     0.072 A
HETATM    4  C17 UNL     1      24.277  13.247  63.845  1.00  0.00     0.175 A
HETATM    5  F1  UNL     1      25.592  13.557  63.898  1.00  0.00    -0.201 F
HETATM    6  C18 UNL     1      23.890  11.925  63.811  1.00  0.00     0.144 A
HETATM    7  C19 UNL     1      22.521  11.611  63.755  1.00  0.00     0.056 A
ENDROOT
BRANCH   1   8
HETATM    8  C1  UNL     1      20.159  12.312  63.675  1.00  0.00     0.252 C
HETATM    9  O1  UNL     1      19.335  13.182  63.213  1.00  0.00    -0.268 OA
HETATM   10  N1  UNL     1      19.579  11.091  64.101  1.00  0.00    -0.352 N
ATOM     11  H1  UNL     1      20.178  10.357  64.480  1.00  0.00     0.163 HD
BRANCH  10  12
HETATM   12  C2  UNL     1      18.141  10.864  64.007  1.00  0.00     0.084 C
HETATM   13  C3  UNL     1      17.679   9.764  64.936  1.00  0.00     0.025 C
HETATM   14  C4  UNL     1      17.793   8.465  64.173  1.00  0.00     0.002 C
HETATM   15  C5  UNL     1      16.658   8.386  63.169  1.00  0.00     0.000 C
HETATM   16  C6  UNL     1      16.599   9.681  62.406  1.00  0.00     0.002 C
HETATM   17  C7  UNL     1      17.853  10.503  62.583  1.00  0.00     0.025 C
ENDBRANCH  10  12
ENDBRANCH   1   8
BRANCH   3  18
HETATM   18  N2  UNL     1      23.758  15.577  63.861  1.00  0.00    -0.378 N
HETATM   19  C11 UNL     1      24.083  16.238  62.611  1.00  0.00     0.123 C
HETATM   20  C12 UNL     1      25.416  16.905  62.766  1.00  0.00     0.020 C
HETATM   21  C13 UNL     1      25.161  18.318  63.272  1.00  0.00     0.002 C
HETATM   22  C14 UNL     1      24.981  18.335  64.778  1.00  0.00     0.002 C
HETATM   23  C15 UNL     1      23.709  17.648  65.199  1.00  0.00     0.020 C
HETATM   24  C16 UNL     1      23.840  16.143  65.193  1.00  0.00     0.123 C
ENDBRANCH   3  18
BRANCH   6  25
HETATM   25  N3  UNL     1      24.873  10.906  63.830  1.00  0.00    -0.112 N
HETATM   26  O2  UNL     1      25.714  10.807  62.933  1.00  0.00    -0.532 OA
HETATM   27  O3  UNL     1      24.892  10.013  64.864  1.00  0.00    -0.532 OA
ENDBRANCH   6  25
TORSDOF 4
ENDMDL