MODEL 1
REMARK VINA RESULT: -7.829719860      0.000      0.000
REMARK  4 active torsions:
REMARK  status: ('A' for Active; 'I' for Inactive)
REMARK    1  A    between atoms: C7_9  and  C8_10
REMARK    2  A    between atoms: C12_14  and  O1_15
REMARK    3  A    between atoms: O1_15  and  C13_16
REMARK    4  A    between atoms: N2_19  and  C16_20
ROOT
HETATM    1  C1  UNL     1      24.725   9.868  64.814  1.00  0.00     0.051 C
HETATM    2  C2  UNL     1      24.776  11.098  63.953  1.00  0.00    -0.025 A
HETATM    3  C3  UNL     1      25.712  11.105  62.994  1.00  0.00     0.053 A
HETATM    4  C4  UNL     1      25.781  12.144  62.103  1.00  0.00     0.138 A
HETATM    5  F1  UNL     1      26.737  12.115  61.146  1.00  0.00    -0.204 F
HETATM    6  C5  UNL     1      24.885  13.158  62.207  1.00  0.00     0.096 A
HETATM    7  C6  UNL     1      25.046  14.321  61.371  1.00  0.00     0.103 C
HETATM    8  N1  UNL     1      25.194  15.283  60.731  1.00  0.00    -0.191 NA
HETATM    9  C7  UNL     1      23.869  13.244  63.170  1.00  0.00     0.024 A
HETATM   10  C12 UNL     1      23.872  12.137  64.051  1.00  0.00     0.087 A
ENDROOT
BRANCH   9  11
HETATM   11  C8  UNL     1      22.792  14.156  62.937  1.00  0.00    -0.065 C
HETATM   12  C9  UNL     1      21.592  14.235  62.168  1.00  0.00     0.035 C
HETATM   13  C10 UNL     1      21.111  15.359  63.169  1.00  0.00     0.009 C
HETATM   14  C11 UNL     1      22.485  15.313  63.856  1.00  0.00     0.035 C
ENDBRANCH   9  11
BRANCH  10  15
HETATM   15  O1  UNL     1      22.918  12.098  65.066  1.00  0.00    -0.344 OA
BRANCH  15  16
HETATM   16  C13 UNL     1      21.685  11.491  64.821  1.00  0.00     0.132 C
HETATM   17  C14 UNL     1      21.496  10.165  65.614  1.00  0.00     0.062 C
HETATM   18  C15 UNL     1      20.042   9.801  65.708  1.00  0.00     0.275 C
HETATM   19  N2  UNL     1      19.241  10.201  64.609  1.00  0.00     0.095 N
HETATM   20  C20 UNL     1      19.328  11.550  64.215  1.00  0.00     0.275 C
HETATM   21  C21 UNL     1      20.453  12.287  64.962  1.00  0.00     0.062 C
BRANCH  19  22
HETATM   22  C16 UNL     1      17.921   9.680  64.732  1.00  0.00     0.250 C
HETATM   23  C17 UNL     1      17.705   8.466  63.850  1.00  0.00     0.065 C
HETATM   24  C18 UNL     1      16.784   8.957  62.766  1.00  0.00     0.234 C
HETATM   25  N3  UNL     1      16.209  10.199  63.159  1.00  0.00    -0.073 N
HETATM   26  C19 UNL     1      16.824  10.619  64.400  1.00  0.00     0.268 C
ATOM     27  H32 UNL     1      16.275  10.909  62.430  1.00  0.00     0.277 HD
ATOM     28  H31 UNL     1      15.192  10.157  63.222  1.00  0.00     0.277 HD
ENDBRANCH  19  22
ENDBRANCH  15  16
ENDBRANCH  10  15
TORSDOF 4
ENDMDL