MODEL 4
REMARK VINA RESULT: -7.061953585      3.018      7.608
REMARK  4 active torsions:
REMARK  status: ('A' for Active; 'I' for Inactive)
REMARK    1  A    between atoms: C2_2  and  S1_3
REMARK    2  A    between atoms: C2_2  and  C7_13
REMARK    3  A    between atoms: S1_3  and  C3_4
REMARK       I    between atoms: C7_13  and  N3_15
REMARK    4  A    between atoms: N3_15  and  C8_17
ROOT
HETATM    1  C7  UNL     1      22.495  13.744  63.354  1.00  0.00     0.232 C
HETATM    2  O1  UNL     1      22.960  14.879  63.105  1.00  0.00    -0.272 OA
HETATM    3  N3  UNL     1      23.231  12.545  63.448  1.00  0.00    -0.351 N
ATOM      4  H3  UNL     1      22.743  11.676  63.661  1.00  0.00     0.163 HD
ENDROOT
BRANCH   1   5
HETATM    5  C2  UNL     1      21.015  13.593  63.585  1.00  0.00     0.143 C
HETATM    6  C1  UNL     1      20.453  14.970  63.803  1.00  0.00     0.031 C
BRANCH   5   7
HETATM    7  S1  UNL     1      20.676  12.457  64.908  1.00  0.00    -0.080 SA
BRANCH   7   8
HETATM    8  C3  UNL     1      19.572  11.155  64.477  1.00  0.00     0.144 A
HETATM    9  N1  UNL     1      18.988  11.130  63.241  1.00  0.00    -0.345 N
HETATM   10  C4  UNL     1      18.144  10.140  62.937  1.00  0.00     0.115 A
ATOM     11  H1  UNL     1      19.195  11.859  62.559  1.00  0.00     0.167 HD
HETATM   12  C5  UNL     1      17.810   9.111  63.806  1.00  0.00     0.064 A
HETATM   13 CL1  UNL     1      16.700   7.840  63.348  1.00  0.00    -0.081 Cl
HETATM   14  C6  UNL     1      18.411   9.159  65.042  1.00  0.00     0.115 A
HETATM   15  N2  UNL     1      19.252  10.163  65.318  1.00  0.00    -0.345 N
ATOM     16  H2  UNL     1      19.684  10.172  66.242  1.00  0.00     0.167 HD
ENDBRANCH   7   8
ENDBRANCH   5   7
ENDBRANCH   1   5
BRANCH   3  17
HETATM   17  C8  UNL     1      24.654  12.523  63.250  1.00  0.00     0.034 C
HETATM   18  C9  UNL     1      24.957  12.983  61.858  1.00  0.00     0.035 C
HETATM   19  C10 UNL     1      26.457  13.022  61.648  1.00  0.00    -0.012 C
HETATM   20  C11 UNL     1      27.094  13.871  62.703  1.00  0.00     0.009 C
HETATM   21  C15 UNL     1      26.927  11.569  61.742  1.00  0.00     0.009 C
HETATM   22  C12 UNL     1      26.823  13.347  64.092  1.00  0.00    -0.012 C
HETATM   23  C13 UNL     1      27.383  11.963  64.182  1.00  0.00     0.009 C
HETATM   24  C17 UNL     1      25.307  13.355  64.320  1.00  0.00     0.035 C
HETATM   25  C14 UNL     1      26.659  11.116  63.156  1.00  0.00    -0.012 C
HETATM   26  C16 UNL     1      25.196  11.104  63.432  1.00  0.00     0.035 C
ENDBRANCH   3  17
TORSDOF 4
ENDMDL