MODEL 2
REMARK VINA RESULT: -6.324518664      1.626      2.153
REMARK  7 active torsions:
REMARK  status: ('A' for Active; 'I' for Inactive)
REMARK    1  A    between atoms: S1_2  and  C2_3
REMARK    2  A    between atoms: C2_3  and  C3_4
REMARK    3  A    between atoms: C2_3  and  C13_17
REMARK    4  A    between atoms: C3_4  and  C4_5
REMARK    5  A    between atoms: C4_5  and  C5_6
REMARK    6  A    between atoms: C5_6  and  O1_7
REMARK    7  A    between atoms: N1_12  and  C9_13
ROOT
HETATM    1  C3  UNL     1      23.531  12.412  63.814  1.00  0.00     0.049 C
ENDROOT
BRANCH   1   2
HETATM    2  C2  UNL     1      22.183  12.863  64.164  1.00  0.00     0.062 C
BRANCH   2   3
HETATM    3  S1  UNL     1      21.758  14.549  63.753  1.00  0.00    -0.168 SA
HETATM    4  C1  UNL     1      22.758  15.346  62.526  1.00  0.00     0.090 C
ENDBRANCH   2   3
BRANCH   2   5
HETATM    5  C13 UNL     1      21.068  11.950  63.709  1.00  0.00     0.033 C
HETATM    6  C14 UNL     1      21.404  10.585  63.279  1.00  0.00     0.017 C
HETATM    7  C15 UNL     1      20.146  10.022  62.575  1.00  0.00     0.031 C
HETATM    8  C16 UNL     1      18.896  10.235  63.355  1.00  0.00     0.276 C
HETATM    9  N2  UNL     1      18.794  11.564  63.931  1.00  0.00     0.122 N
HETATM   10  C17 UNL     1      18.857  12.543  62.876  1.00  0.00     0.277 C
HETATM   11  C19 UNL     1      19.973  11.849  64.755  1.00  0.00     0.414 C
HETATM   12  C18 UNL     1      20.303  12.688  62.579  1.00  0.00     0.045 C
HETATM   13  F1  UNL     1      20.150  10.760  65.602  1.00  0.00    -0.215 F
ENDBRANCH   2   5
ENDBRANCH   1   2
BRANCH   1  14
HETATM   14  C4  UNL     1      24.417  11.627  64.648  1.00  0.00     0.051 C
HETATM   15  C6  UNL     1      25.084  10.578  63.715  1.00  0.00     0.034 C
HETATM   16  C7  UNL     1      26.173  11.367  63.016  1.00  0.00     0.022 C
HETATM   17  C8  UNL     1      26.668  12.156  64.199  1.00  0.00     0.118 C
HETATM   18  N1  UNL     1      25.582  12.343  65.102  1.00  0.00    -0.394 N
BRANCH  14  19
HETATM   19  C5  UNL     1      23.987  10.810  65.796  1.00  0.00     0.195 C
BRANCH  19  20
HETATM   20  O1  UNL     1      24.276   9.510  65.918  1.00  0.00    -0.398 OA
ATOM     21  H1  UNL     1      24.709   9.143  66.680  1.00  0.00     0.209 HD
ENDBRANCH  19  20
ENDBRANCH  14  19
BRANCH  18  22
HETATM   22  C9  UNL     1      25.593  13.610  65.614  1.00  0.00     0.018 C
HETATM   23  C10 UNL     1      24.640  13.938  66.744  1.00  0.00     0.037 C
HETATM   24  C11 UNL     1      26.984  13.692  66.345  1.00  0.00     0.037 C
HETATM   25  C12 UNL     1      25.640  14.797  64.687  1.00  0.00     0.037 C
ENDBRANCH  18  22
ENDBRANCH   1  14
TORSDOF 7
ENDMDL