MODEL 3
REMARK VINA RESULT: -7.003966341      4.913      5.459
REMARK  4 active torsions:
REMARK  status: ('A' for Active; 'I' for Inactive)
REMARK       I    between atoms: C1_2  and  N1_3
REMARK    1  A    between atoms: C1_2  and  C13_17
REMARK    2  A    between atoms: N1_3  and  C2_5
REMARK    3  A    between atoms: N2_8  and  C5_9
REMARK    4  A    between atoms: C14_21  and  C15_22
ROOT
HETATM    1  O1  UNL     1      22.934  15.690  63.779  1.00  0.00    -0.266 OA
HETATM    2  C1  UNL     1      21.805  16.224  63.742  1.00  0.00     0.272 C
HETATM    3  N1  UNL     1      20.549  15.604  63.781  1.00  0.00    -0.351 N
ATOM      4  H1  UNL     1      19.747  16.232  63.806  1.00  0.00     0.163 HD
ENDROOT
BRANCH   3   5
HETATM    5  C2  UNL     1      20.248  14.237  63.790  1.00  0.00     0.088 C
HETATM    6  C3  UNL     1      21.038  13.232  64.493  1.00  0.00     0.055 C
HETATM    7  C4  UNL     1      20.768  11.856  63.797  1.00  0.00     0.275 C
HETATM    8  N2  UNL     1      19.443  11.859  63.353  1.00  0.00     0.093 N
HETATM    9  C11 UNL     1      19.291  12.685  62.155  1.00  0.00     0.275 C
HETATM   10  C12 UNL     1      20.267  13.813  62.242  1.00  0.00     0.055 C
BRANCH   8  11
HETATM   11  C5  UNL     1      18.835  10.560  63.022  1.00  0.00     0.223 C
HETATM   12  C6  UNL     1      17.455  10.964  62.446  1.00  0.00     0.036 C
HETATM   13  C7  UNL     1      16.526   9.834  62.202  1.00  0.00     0.002 C
HETATM   14  C8  UNL     1      16.500   8.795  63.257  1.00  0.00     0.000 C
HETATM   15  C9  UNL     1      17.896   8.435  63.719  1.00  0.00     0.002 C
HETATM   16  C10 UNL     1      18.540   9.737  64.219  1.00  0.00     0.036 C
ENDBRANCH   8  11
ENDBRANCH   3   5
BRANCH   2  17
HETATM   17  C13 UNL     1      21.794  17.709  63.610  1.00  0.00     0.146 A
HETATM   18  N3  UNL     1      21.429  18.481  62.566  1.00  0.00    -0.254 N
HETATM   19  O2  UNL     1      21.830  19.714  62.739  1.00  0.00    -0.240 OA
ATOM     20  H3  UNL     1      20.912  18.148  61.753  1.00  0.00     0.195 HD
HETATM   21  C14 UNL     1      22.479  19.845  63.895  1.00  0.00     0.104 A
HETATM   22  C18 UNL     1      22.465  18.573  64.478  1.00  0.00     0.100 A
HETATM   23 CL1  UNL     1      23.217  18.171  66.008  1.00  0.00    -0.079 Cl
BRANCH  21  24
HETATM   24  C15 UNL     1      23.121  21.087  64.496  1.00  0.00     0.047 A
HETATM   25  C16 UNL     1      23.292  22.205  63.507  1.00  0.00     0.012 A
HETATM   26  C17 UNL     1      22.100  22.259  64.391  1.00  0.00     0.012 A
ENDBRANCH  21  24
ENDBRANCH   2  17
TORSDOF 4
ENDMDL