MODEL 4
REMARK VINA RESULT: -5.687894790      0.862      1.428
REMARK  6 active torsions:
REMARK  status: ('A' for Active; 'I' for Inactive)
REMARK    1  A    between atoms: S1_2  and  C2_3
REMARK    2  A    between atoms: C6_8  and  O1_9
REMARK    3  A    between atoms: C9_14  and  C10_15
REMARK    4  A    between atoms: C10_15  and  C11_16
REMARK    5  A    between atoms: C11_16  and  N1_17
REMARK    6  A    between atoms: N1_17  and  N2_19
ROOT
HETATM    1  C2  UNL     1      21.066  13.651  62.369  1.00  0.00     0.001 C
HETATM    2  C3  UNL     1      20.712  14.005  61.132  1.00  0.00     0.002 C
HETATM    3 BR1  UNL     1      20.569  15.789  60.547  1.00  0.00    -0.055 Br
HETATM    4  C4  UNL     1      20.437  12.855  60.181  1.00  0.00     0.050 C
HETATM    5  C5  UNL     1      19.480  11.844  60.763  1.00  0.00     0.046 C
HETATM    6  C6  UNL     1      19.666  11.681  62.226  1.00  0.00     0.094 C
HETATM    7  C7  UNL     1      19.837  10.273  62.697  1.00  0.00     0.153 C
HETATM    8  C8  UNL     1      18.632   9.667  63.330  1.00  0.00     0.042 C
HETATM    9  O2  UNL     1      20.979  10.181  63.477  1.00  0.00    -0.377 OA
HETATM   10  C9  UNL     1      21.373  11.526  63.753  1.00  0.00     0.135 C
HETATM   11  C12 UNL     1      21.080  12.184  62.517  1.00  0.00     0.092 C
ENDROOT
BRANCH  10  12
HETATM   12  C10 UNL     1      20.720  11.883  65.021  1.00  0.00     0.054 C
BRANCH  12  13
HETATM   13  C11 UNL     1      21.603  11.449  66.215  1.00  0.00     0.143 C
BRANCH  13  14
HETATM   14  N1  UNL     1      21.929  10.041  66.109  1.00  0.00    -0.323 N
ATOM     15  H1  UNL     1      21.212   9.346  66.321  1.00  0.00     0.181 HD
BRANCH  14  16
HETATM   16  N2  UNL     1      23.055   9.663  65.768  1.00  0.00    -0.254 N
HETATM   17  N3  UNL     1      24.296   9.605  65.757  1.00  0.00    -0.331 N
ATOM     18  H32 UNL     1      24.479  10.305  66.475  1.00  0.00     0.178 HD
ATOM     19  H31 UNL     1      25.226   9.293  65.476  1.00  0.00     0.178 HD
ATOM     20  H2  UNL     1      22.821   8.970  65.056  1.00  0.00     0.207 HD
ENDBRANCH  14  16
ENDBRANCH  13  14
ENDBRANCH  12  13
ENDBRANCH  10  12
BRANCH   1  21
HETATM   21  S1  UNL     1      21.447  14.785  63.614  1.00  0.00    -0.137 SA
HETATM   22  C1  UNL     1      23.052  14.791  64.300  1.00  0.00     0.095 C
ENDBRANCH   1  21
BRANCH   6  23
HETATM   23  O1  UNL     1      18.695  12.408  62.883  1.00  0.00    -0.386 OA
ATOM     24  H1  UNL     1      17.972  11.830  63.097  1.00  0.00     0.210 HD
ENDBRANCH   6  23
TORSDOF 6
ENDMDL