MODEL 5
REMARK VINA RESULT: -7.716959066      3.501      6.904
REMARK  4 active torsions:
REMARK  status: ('A' for Active; 'I' for Inactive)
REMARK    1  A    between atoms: C3_4  and  C4_5
REMARK    2  A    between atoms: C4_5  and  N2_6
REMARK    3  A    between atoms: C8_10  and  C9_11
REMARK    4  A    between atoms: C13_21  and  C14_22
ROOT
HETATM    1  C1  UNL     1      24.749  14.596  66.386  1.00  0.00     0.157 C
HETATM    2  N1  UNL     1      23.949  14.408  65.186  1.00  0.00    -0.348 N
HETATM    3  C2  UNL     1      23.681  13.257  64.556  1.00  0.00     0.122 A
HETATM    4  C3  UNL     1      22.898  13.552  63.484  1.00  0.00     0.065 A
HETATM    5  N5  UNL     1      22.707  14.882  63.487  1.00  0.00    -0.343 N
ATOM      6  H5  UNL     1      22.158  15.401  62.801  1.00  0.00     0.167 HD
HETATM    7  C13 UNL     1      23.349  15.418  64.530  1.00  0.00     0.087 A
ENDROOT
BRANCH   4   8
HETATM    8  C4  UNL     1      22.336  12.640  62.477  1.00  0.00     0.121 C
BRANCH   8   9
HETATM    9  N2  UNL     1      20.944  12.644  62.358  1.00  0.00    -0.367 N
HETATM   10  C5  UNL     1      20.348  12.133  61.190  1.00  0.00     0.127 C
HETATM   11  C6  UNL     1      19.633  10.838  61.606  1.00  0.00     0.021 C
HETATM   12  C7  UNL     1      18.460  11.280  62.442  1.00  0.00     0.018 C
HETATM   13  C8  UNL     1      18.995  11.942  63.689  1.00  0.00     0.075 C
HETATM   14  C12 UNL     1      20.149  12.841  63.502  1.00  0.00     0.074 C
BRANCH  13  15
HETATM   15  C9  UNL     1      19.215  10.881  64.703  1.00  0.00     0.036 A
HETATM   16  C10 UNL     1      18.381   9.797  64.874  1.00  0.00     0.046 A
HETATM   17  C11 UNL     1      18.856   8.996  65.897  1.00  0.00     0.109 A
HETATM   18  N3  UNL     1      19.974   9.617  66.325  1.00  0.00    -0.312 N
HETATM   19  N4  UNL     1      20.176  10.721  65.617  1.00  0.00    -0.304 N
ATOM     20  H3  UNL     1      20.576   9.287  67.079  1.00  0.00     0.186 HD
ATOM     21  H4  UNL     1      20.958  11.361  65.752  1.00  0.00     0.186 HD
ENDBRANCH  13  15
ENDBRANCH   8   9
ENDBRANCH   4   8
BRANCH   7  22
HETATM   22  C14 UNL     1      23.400  16.870  64.911  1.00  0.00     0.054 C
HETATM   23  C15 UNL     1      22.089  17.547  64.547  1.00  0.00     0.015 C
HETATM   24  C16 UNL     1      22.342  19.020  64.346  1.00  0.00     0.044 C
HETATM   25  C17 UNL     1      23.391  19.524  65.313  1.00  0.00     0.100 C
HETATM   26  C18 UNL     1      23.442  21.044  65.173  1.00  0.00     0.051 C
HETATM   27  F1  UNL     1      22.922  19.290  66.600  1.00  0.00    -0.243 F
HETATM   28  C19 UNL     1      24.737  18.897  65.074  1.00  0.00     0.044 C
HETATM   29  C20 UNL     1      24.583  17.572  64.319  1.00  0.00     0.015 C
ENDBRANCH   7  22
TORSDOF 4
ENDMDL