MODEL 3
REMARK VINA RESULT: -6.443331653      2.357      4.089
REMARK  4 active torsions:
REMARK  status: ('A' for Active; 'I' for Inactive)
REMARK    1  A    between atoms: C3_3  and  C4_4
REMARK    2  A    between atoms: C4_4  and  C5_5
REMARK    3  A    between atoms: N1_8  and  C8_9
REMARK    4  A    between atoms: C9_12  and  N3_13
ROOT
HETATM    1  C1  UNL     1      18.323   3.432   9.486  1.00  0.00     0.112 C
HETATM    2  C2  UNL     1      19.654   3.686  10.066  1.00  0.00    -0.111 C
HETATM    3  C3  UNL     1      20.744   3.916  10.556  1.00  0.00    -0.107 C
ENDROOT
BRANCH   3   4
HETATM    4  C4  UNL     1      22.022   4.220  11.137  1.00  0.00     0.100 C
BRANCH   4   5
HETATM    5  C5  UNL     1      22.381   5.638  10.982  1.00  0.00     0.017 C
HETATM    6  C6  UNL     1      23.785   6.014  11.395  1.00  0.00     0.027 C
HETATM    7  C7  UNL     1      23.779   7.483  10.941  1.00  0.00     0.141 C
HETATM    8  N1  UNL     1      23.198   7.346   9.627  1.00  0.00    -0.217 N
HETATM    9  C12 UNL     1      22.365   6.164   9.554  1.00  0.00     0.146 C
BRANCH   8  10
HETATM   10  C8  UNL     1      23.420   8.236   8.552  1.00  0.00     0.696 A
HETATM   11  N2  UNL     1      22.822   9.436   8.501  1.00  0.00    -0.022 N
HETATM   12  C9  UNL     1      22.966  10.325   7.513  1.00  0.00     0.691 A
ATOM     13  H2  UNL     1      22.210   9.690   9.276  1.00  0.00     0.203 HD
HETATM   14  N4  UNL     1      23.792   9.961   6.488  1.00  0.00    -0.180 N
HETATM   15  C10 UNL     1      24.410   8.767   6.499  1.00  0.00     0.109 A
ATOM     16  H4  UNL     1      23.941  10.600   5.706  1.00  0.00     0.185 HD
HETATM   17  C11 UNL     1      25.303   8.358   5.384  1.00  0.00     0.090 C
HETATM   18  N5  UNL     1      24.241   7.897   7.513  1.00  0.00    -0.180 N
ATOM     19  H5  UNL     1      24.718   6.996   7.506  1.00  0.00     0.185 HD
BRANCH  12  20
HETATM   20  N3  UNL     1      22.396  11.479   7.464  1.00  0.00    -0.234 N
ATOM     21  H32 UNL     1      22.299  12.012   8.329  1.00  0.00     0.174 HD
ATOM     22  H31 UNL     1      22.022  11.914   6.621  1.00  0.00     0.174 HD
ENDBRANCH  12  20
ENDBRANCH   8  10
ENDBRANCH   4   5
ENDBRANCH   3   4
TORSDOF 4
ENDMDL