MODEL 4
REMARK VINA RESULT: -4.313905223      1.807      2.021
REMARK  4 active torsions:
REMARK  status: ('A' for Active; 'I' for Inactive)
REMARK    1  A    between atoms: C3_4  and  C4_5
REMARK    2  A    between atoms: C4_5  and  O1_6
REMARK    3  A    between atoms: C5_10  and  S1_11
REMARK    4  A    between atoms: S1_11  and  C6_12
ROOT
HETATM    1  C1  UNL     1      23.954   9.358  13.270  1.00  0.00     0.151 C
HETATM    2  N1  UNL     1      23.840   8.213  14.151  1.00  0.00    -0.364 N
HETATM    3  C2  UNL     1      23.981   8.323  15.599  1.00  0.00     0.151 C
HETATM    4  C3  UNL     1      23.395   7.034  16.066  1.00  0.00     0.125 C
HETATM    5  N2  UNL     1      23.338   6.208  14.917  1.00  0.00    -0.362 N
ATOM      6  H2  UNL     1      23.126   5.210  14.946  1.00  0.00     0.162 HD
HETATM    7  C5  UNL     1      23.585   6.853  13.839  1.00  0.00     0.139 C
ENDROOT
BRANCH   4   8
HETATM    8  C4  UNL     1      24.263   6.472  17.173  1.00  0.00     0.191 C
BRANCH   8   9
HETATM    9  O1  UNL     1      24.694   5.195  16.915  1.00  0.00    -0.399 OA
ATOM     10  H1  UNL     1      24.663   4.976  15.991  1.00  0.00     0.209 HD
ENDBRANCH   8   9
ENDBRANCH   4   8
BRANCH   7  11
HETATM   11  S1  UNL     1      23.616   6.190  12.189  1.00  0.00    -0.084 SA
BRANCH  11  12
HETATM   12  C6  UNL     1      23.005   4.485  12.151  1.00  0.00     0.167 C
HETATM   13 BR1  UNL     1      21.712   4.355  10.717  1.00  0.00    -0.085 Br
ENDBRANCH  11  12
ENDBRANCH   7  11
TORSDOF 4
ENDMDL