MODEL 4
REMARK VINA RESULT: -5.191543839      7.440      8.210
REMARK  3 active torsions:
REMARK  status: ('A' for Active; 'I' for Inactive)
REMARK    1  A    between atoms: C3_5  and  N2_6
REMARK    2  A    between atoms: N2_6  and  O1_7
REMARK    3  A    between atoms: C4_11  and  C6_13
ROOT
HETATM    1  C1  UNL     1      22.265   7.411  15.749  1.00  0.00     0.063 C
HETATM    2  C2  UNL     1      22.952   6.722  14.632  1.00  0.00    -0.017 C
HETATM    3  N1  UNL     1      24.152   6.296  14.804  1.00  0.00    -0.362 N
ATOM      4  H1  UNL     1      24.591   6.448  15.712  1.00  0.00     0.162 HD
HETATM    5  C3  UNL     1      24.897   5.627  13.806  1.00  0.00     0.303 C
HETATM    6  N3  UNL     1      24.487   6.040  12.503  1.00  0.00    -0.378 N
ATOM      7  H3  UNL     1      25.154   6.347  11.797  1.00  0.00     0.157 HD
HETATM    8  C4  UNL     1      23.089   5.996  12.254  1.00  0.00     0.039 C
HETATM    9  C5  UNL     1      22.747   4.532  11.963  1.00  0.00     0.039 C
HETATM   10  C7  UNL     1      22.227   6.546  13.342  1.00  0.00     0.082 C
ENDROOT
BRANCH   5  11
HETATM   11  N2  UNL     1      26.328   5.868  13.933  1.00  0.00    -0.056 NA
BRANCH  11  12
HETATM   12  O1  UNL     1      26.587   6.931  14.719  1.00  0.00    -0.293 OA
ATOM     13  H1  UNL     1      27.372   7.389  14.443  1.00  0.00     0.238 HD
ENDBRANCH  11  12
ENDBRANCH   5  11
BRANCH   8  14
HETATM   14  C6  UNL     1      22.830   6.799  10.973  1.00  0.00     0.115 C
HETATM   15 BR1  UNL     1      22.034   5.732   9.604  1.00  0.00    -0.094 Br
ENDBRANCH   8  14
TORSDOF 3
ENDMDL