MODEL 3
REMARK VINA RESULT: -6.171768726      2.190      2.840
REMARK  6 active torsions:
REMARK  status: ('A' for Active; 'I' for Inactive)
REMARK    1  A    between atoms: C2_2  and  O1_3
REMARK    2  A    between atoms: C2_2  and  N1_6
REMARK    3  A    between atoms: N1_6  and  C3_8
REMARK    4  A    between atoms: C3_8  and  N2_10
REMARK    5  A    between atoms: N2_10  and  N3_12
REMARK    6  A    between atoms: C4_14  and  C5_15
ROOT
HETATM    1  N2  UNL     1      24.888   5.810  15.942  1.00  0.00    -0.277 N
ATOM      2  H2  UNL     1      25.700   5.221  16.131  1.00  0.00     0.189 HD
ENDROOT
BRANCH   1   3
HETATM    3  C3  UNL     1      24.467   6.757  16.888  1.00  0.00     0.190 C
HETATM    4  S1  UNL     1      24.622   6.440  18.471  1.00  0.00    -0.039 SA
BRANCH   3   5
HETATM    5  N1  UNL     1      23.912   7.985  16.479  1.00  0.00    -0.308 N
ATOM      6  H1  UNL     1      22.936   8.175  16.708  1.00  0.00     0.167 HD
BRANCH   5   7
HETATM    7  C2  UNL     1      24.658   8.991  15.751  1.00  0.00     0.282 C
HETATM    8  C1  UNL     1      23.991   9.413  14.483  1.00  0.00     0.111 C
HETATM    9  F1  UNL     1      24.863  10.062  16.596  1.00  0.00    -0.188 F
BRANCH   7  10
HETATM   10  O1  UNL     1      25.917   8.412  15.481  1.00  0.00    -0.345 OA
ATOM     11  H1  UNL     1      26.431   8.978  14.917  1.00  0.00     0.215 HD
ENDBRANCH   7  10
ENDBRANCH   5   7
ENDBRANCH   3   5
ENDBRANCH   1   3
BRANCH   1  12
HETATM   12  N3  UNL     1      24.198   5.678  14.754  1.00  0.00    -0.308 N
HETATM   13  C4  UNL     1      24.681   5.742  13.590  1.00  0.00     0.136 C
ATOM     14  H3  UNL     1      23.193   5.513  14.825  1.00  0.00     0.186 HD
BRANCH  13  15
HETATM   15  C5  UNL     1      23.826   5.584  12.430  1.00  0.00     0.049 A
HETATM   16  C6  UNL     1      23.860   6.474  11.359  1.00  0.00     0.031 A
HETATM   17  C7  UNL     1      23.043   6.315  10.259  1.00  0.00     0.004 A
HETATM   18  C8  UNL     1      22.188   5.260  10.232  1.00  0.00     0.017 A
HETATM   19  C9  UNL     1      22.160   4.394  11.283  1.00  0.00     0.088 A
HETATM   20  N4  UNL     1      22.948   4.555  12.333  1.00  0.00    -0.365 N
ATOM     21  H4  UNL     1      22.894   3.881  13.097  1.00  0.00     0.165 HD
ENDBRANCH  13  15
ENDBRANCH   1  12
TORSDOF 6
ENDMDL