MODEL 4
REMARK VINA RESULT: -5.962794939      2.055      2.623
REMARK  4 active torsions:
REMARK  status: ('A' for Active; 'I' for Inactive)
REMARK    1  A    between atoms: C5_9  and  C6_10
REMARK    2  A    between atoms: C7_11  and  C8_12
REMARK    3  A    between atoms: C8_12  and  S1_13
REMARK    4  A    between atoms: S1_13  and  C9_14
ROOT
HETATM    1  C6  UNL     1      23.431   7.483   9.564  1.00  0.00    -0.098 C
HETATM    2  C7  UNL     1      23.866   7.954   8.521  1.00  0.00    -0.096 C
ENDROOT
BRANCH   2   3
HETATM    3  C8  UNL     1      24.443   8.583   7.338  1.00  0.00     0.176 C
BRANCH   3   4
HETATM    4  S1  UNL     1      23.273   8.715   6.016  1.00  0.00    -0.080 SA
BRANCH   4   5
HETATM    5  C9  UNL     1      24.123   8.788   4.434  1.00  0.00     0.160 A
HETATM    6  N2  UNL     1      23.584   8.362   3.289  1.00  0.00    -0.331 N
HETATM    7  C10 UNL     1      24.455   8.682   2.300  1.00  0.00     0.199 A
ATOM      8  H2  UNL     1      22.688   7.888   3.178  1.00  0.00     0.168 HD
HETATM    9  N3  UNL     1      25.526   9.302   2.868  1.00  0.00    -0.294 N
HETATM   10  N4  UNL     1      25.329   9.368   4.165  1.00  0.00    -0.279 N
ATOM     11  H3  UNL     1      26.343   9.656   2.370  1.00  0.00     0.187 HD
ATOM     12  H4  UNL     1      25.964   9.779   4.848  1.00  0.00     0.189 HD
ENDBRANCH   4   5
ENDBRANCH   3   4
ENDBRANCH   2   3
BRANCH   1  13
HETATM   13  C5  UNL     1      22.950   6.960  10.883  1.00  0.00     0.102 C
HETATM   14  C1  UNL     1      22.007   5.819  10.563  1.00  0.00     0.211 C
HETATM   15  F1  UNL     1      22.451   5.263   9.366  1.00  0.00    -0.246 F
HETATM   16  C2  UNL     1      21.860   4.777  11.593  1.00  0.00     0.270 C
HETATM   17  N1  UNL     1      23.048   4.461  12.343  1.00  0.00    -0.072 N
HETATM   18  C3  UNL     1      23.761   5.635  12.780  1.00  0.00     0.233 C
ATOM     19  H12 UNL     1      22.832   3.851  13.131  1.00  0.00     0.277 HD
ATOM     20  H11 UNL     1      23.659   3.838  11.815  1.00  0.00     0.277 HD
HETATM   21  C4  UNL     1      24.190   6.428  11.590  1.00  0.00     0.047 C
ENDBRANCH   1  13
TORSDOF 4
ENDMDL