MODEL 4
REMARK VINA RESULT: -5.658834272      5.437      8.287
REMARK  3 active torsions:
REMARK  status: ('A' for Active; 'I' for Inactive)
REMARK    1  A    between atoms: C2_2  and  N1_3
REMARK    2  A    between atoms: N2_8  and  C6_9
REMARK    3  A    between atoms: C9_14  and  N4_15
ROOT
HETATM    1  C6  UNL     1      23.605   7.130  13.771  1.00  0.00     0.122 A
HETATM    2  C7  UNL     1      24.023   8.432  13.928  1.00  0.00     0.066 A
HETATM    3  C8  UNL     1      24.650   8.780  15.115  1.00  0.00     0.110 A
HETATM    4  N3  UNL     1      24.839   7.856  16.076  1.00  0.00    -0.202 N
ATOM      5  H3  UNL     1      25.303   8.132  16.941  1.00  0.00     0.183 HD
HETATM    6  C9  UNL     1      24.435   6.579  15.932  1.00  0.00     0.677 A
HETATM    7  N5  UNL     1      23.831   6.240  14.793  1.00  0.00    -0.177 N
ATOM      8  H5  UNL     1      23.524   5.275  14.674  1.00  0.00     0.185 HD
ENDROOT
BRANCH   1   9
HETATM    9  N2  UNL     1      22.952   6.711  12.595  1.00  0.00    -0.331 N
HETATM   10  C5  UNL     1      23.383   7.321  11.384  1.00  0.00     0.277 C
HETATM   11  C4  UNL     1      22.354   7.243  10.279  1.00  0.00     0.104 C
HETATM   12  F1  UNL     1      24.573   6.849  10.922  1.00  0.00    -0.226 F
HETATM   13  C3  UNL     1      22.145   5.886   9.715  1.00  0.00     0.067 C
HETATM   14  N1  UNL     1      21.604   4.911  10.558  1.00  0.00    -0.372 N
HETATM   15  C11 UNL     1      22.226   4.615  11.776  1.00  0.00     0.083 C
HETATM   16  C10 UNL     1      21.922   5.705  12.784  1.00  0.00     0.172 C
BRANCH  14  17
HETATM   17  C2  UNL     1      20.572   4.089  10.084  1.00  0.00     0.122 C
HETATM   18  C1  UNL     1      20.176   4.576   8.685  1.00  0.00     0.027 C
ENDBRANCH  14  17
ENDBRANCH   1   9
BRANCH   6  19
HETATM   19  N4  UNL     1      24.644   5.739  16.891  1.00  0.00    -0.234 N
ATOM     20  H42 UNL     1      24.000   5.619  17.673  1.00  0.00     0.174 HD
ATOM     21  H41 UNL     1      25.487   5.164  16.875  1.00  0.00     0.174 HD
ENDBRANCH   6  19
TORSDOF 3
ENDMDL