MODEL 3
REMARK VINA RESULT: -6.372047441      1.149      1.213
REMARK  2 active torsions:
REMARK  status: ('A' for Active; 'I' for Inactive)
REMARK    1  A    between atoms: C7_13  and  C8_14
REMARK    2  A    between atoms: C8_14  and  N4_15
ROOT
HETATM    1  N1  UNL     1      25.638   6.022  13.220  1.00  0.00    -0.086 NA
HETATM    2  C1  UNL     1      24.739   6.428  14.226  1.00  0.00     0.123 C
HETATM    3  N2  UNL     1      25.215   6.604  15.452  1.00  0.00    -0.348 N
ATOM      4  H2  UNL     1      26.190   6.464  15.717  1.00  0.00     0.163 HD
HETATM    5  C2  UNL     1      24.190   7.015  16.348  1.00  0.00     0.199 C
HETATM    6  C3  UNL     1      24.349   6.531  17.759  1.00  0.00     0.061 C
HETATM    7  C4  UNL     1      24.856   7.696  18.545  1.00  0.00     0.004 C
HETATM    8  C5  UNL     1      24.841   8.897  17.627  1.00  0.00     0.004 C
HETATM    9  C6  UNL     1      24.033   8.513  16.427  1.00  0.00     0.061 C
HETATM   10  N3  UNL     1      23.009   6.474  15.713  1.00  0.00    -0.036 N
ATOM     11  H31 UNL     1      22.117   6.856  16.028  1.00  0.00     0.281 HD
ATOM     12  H32 UNL     1      22.772   5.512  15.954  1.00  0.00     0.281 HD
HETATM   13  C7  UNL     1      23.366   6.728  14.263  1.00  0.00     0.280 C
ENDROOT
BRANCH  13  14
HETATM   14  C8  UNL     1      22.311   6.166  13.422  1.00  0.00     0.312 C
BRANCH  14  15
HETATM   15  N4  UNL     1      22.441   5.989  12.035  1.00  0.00     0.093 N
HETATM   16  C9  UNL     1      22.593   4.524  11.832  1.00  0.00     0.275 C
HETATM   17  C10 UNL     1      21.523   4.071  10.916  1.00  0.00     0.069 C
HETATM   18  C11 UNL     1      20.456   5.117  11.005  1.00  0.00     0.200 C
HETATM   19  F1  UNL     1      19.713   5.214   9.868  1.00  0.00    -0.248 F
HETATM   20  C12 UNL     1      21.343   6.368  11.221  1.00  0.00     0.309 C
ENDBRANCH  14  15
ENDBRANCH  13  14
TORSDOF 2
ENDMDL