MODEL 3
REMARK VINA RESULT: -5.559565718      2.434      3.553
REMARK  4 active torsions:
REMARK  status: ('A' for Active; 'I' for Inactive)
REMARK    1  A    between atoms: C6_7  and  O2_8
REMARK    2  A    between atoms: C6_7  and  C7_10
REMARK    3  A    between atoms: C7_10  and  C8_11
REMARK    4  A    between atoms: C10_13  and  O3_14
ROOT
HETATM    1  C1  UNL     1      19.464   7.262  11.535  1.00  0.00     0.042 C
HETATM    2  C2  UNL     1      20.300   6.258  12.276  1.00  0.00     0.156 C
HETATM    3  O1  UNL     1      20.388   5.000  11.715  1.00  0.00    -0.370 OA
HETATM    4  C3  UNL     1      21.718   5.226  11.355  1.00  0.00     0.087 C
HETATM    5  C4  UNL     1      22.633   4.101  11.711  1.00  0.00     0.049 C
HETATM    6  C5  UNL     1      21.774   5.465   9.841  1.00  0.00     0.049 C
HETATM    7  C6  UNL     1      21.790   6.462  12.182  1.00  0.00     0.116 C
ENDROOT
BRANCH   7   8
HETATM    8  O2  UNL     1      22.147   7.623  11.496  1.00  0.00    -0.384 OA
ATOM      9  H2  UNL     1      22.454   8.318  12.066  1.00  0.00     0.210 HD
ENDBRANCH   7   8
BRANCH   7  10
HETATM   10  C7  UNL     1      22.430   6.371  13.519  1.00  0.00     0.075 C
BRANCH  10  11
HETATM   11  C8  UNL     1      23.626   7.273  13.685  1.00  0.00     0.130 C
HETATM   12  C9  UNL     1      24.846   6.451  14.046  1.00  0.00     0.069 C
HETATM   13  C10 UNL     1      25.466   7.300  15.163  1.00  0.00     0.180 C
HETATM   14  C11 UNL     1      24.787   8.639  14.888  1.00  0.00     0.336 C
HETATM   15  F1  UNL     1      24.897   9.503  15.937  1.00  0.00    -0.217 F
HETATM   16  O4  UNL     1      23.467   8.216  14.670  1.00  0.00    -0.349 OA
BRANCH  13  17
HETATM   17  O3  UNL     1      26.837   7.367  15.009  1.00  0.00    -0.390 OA
ATOM     18  H3  UNL     1      27.227   6.513  15.152  1.00  0.00     0.210 HD
ENDBRANCH  13  17
ENDBRANCH  10  11
ENDBRANCH   7  10
TORSDOF 4
ENDMDL