MODEL 2
REMARK VINA RESULT: -5.786637083      3.505      5.580
REMARK  3 active torsions:
REMARK  status: ('A' for Active; 'I' for Inactive)
REMARK    1  A    between atoms: C8_12  and  N2_13
REMARK    2  A    between atoms: C10_15  and  C11_16
REMARK    3  A    between atoms: C11_16  and  O1_17
ROOT
HETATM    1  C1  UNL     1      20.456   6.392  14.491  1.00  0.00     0.012 C
HETATM    2  C2  UNL     1      21.595   6.643  14.813  1.00  0.00    -0.107 C
HETATM    3  C3  UNL     1      22.975   6.944  15.185  1.00  0.00     0.124 C
HETATM    4  C4  UNL     1      23.005   8.260  15.932  1.00  0.00     0.189 C
HETATM    5  F1  UNL     1      22.499   8.049  17.188  1.00  0.00    -0.248 F
HETATM    6  C5  UNL     1      24.395   8.842  16.002  1.00  0.00     0.066 C
HETATM    7  C6  UNL     1      25.374   7.768  16.362  1.00  0.00     0.235 C
HETATM    8  N1  UNL     1      26.037   7.356  15.143  1.00  0.00    -0.073 N
ATOM      9  H11 UNL     1      26.977   7.007  15.332  1.00  0.00     0.277 HD
ATOM     10  H12 UNL     1      26.278   8.158  14.561  1.00  0.00     0.277 HD
HETATM   11  C7  UNL     1      25.254   6.387  14.404  1.00  0.00     0.260 C
HETATM   12  C8  UNL     1      23.894   6.932  14.010  1.00  0.00     0.151 C
ENDROOT
BRANCH  12  13
HETATM   13  N2  UNL     1      23.375   6.120  12.905  1.00  0.00    -0.295 N
HETATM   14  C9  UNL     1      22.959   6.567  11.706  1.00  0.00     0.121 A
HETATM   15  C10 UNL     1      22.541   5.501  10.934  1.00  0.00    -0.001 A
HETATM   16  C12 UNL     1      22.726   4.387  11.728  1.00  0.00     0.118 A
HETATM   17  N3  UNL     1      23.222   4.818  12.883  1.00  0.00    -0.309 N
ATOM     18  H3  UNL     1      23.457   4.205  13.663  1.00  0.00     0.186 HD
BRANCH  15  19
HETATM   19  C11 UNL     1      22.001   5.528   9.534  1.00  0.00     0.205 C
BRANCH  19  20
HETATM   20  O1  UNL     1      22.763   6.372   8.721  1.00  0.00    -0.396 OA
ATOM     21  H1  UNL     1      22.600   6.196   7.802  1.00  0.00     0.209 HD
ENDBRANCH  19  20
ENDBRANCH  15  19
ENDBRANCH  12  13
TORSDOF 3
ENDMDL