MODEL 1
REMARK VINA RESULT: -6.172201786      0.000      0.000
REMARK  7 active torsions:
REMARK  status: ('A' for Active; 'I' for Inactive)
REMARK    1  A    between atoms: O1_1  and  C1_3
REMARK    2  A    between atoms: C1_3  and  C2_4
REMARK    3  A    between atoms: C2_4  and  C3_5
REMARK    4  A    between atoms: N1_12  and  C10_13
REMARK    5  A    between atoms: C10_13  and  C11_14
REMARK    6  A    between atoms: C11_14  and  O2_15
REMARK    7  A    between atoms: C11_14  and  C12_17
ROOT
HETATM    1  C3  UNL     1      80.354   5.077  26.229  1.00  0.00     0.090 C
HETATM    2  C4  UNL     1      81.062   6.009  27.165  1.00  0.00     0.026 C
HETATM    3  C5  UNL     1      81.086   7.412  26.633  1.00  0.00     0.002 C
HETATM    4  C6  UNL     1      80.225   8.266  27.549  1.00  0.00     0.000 C
HETATM    5  C7  UNL     1      78.779   8.047  27.101  1.00  0.00     0.005 C
HETATM    6  C8  UNL     1      78.131   6.994  27.928  1.00  0.00     0.044 C
HETATM    7  C9  UNL     1      78.315   5.585  27.405  1.00  0.00     0.063 C
HETATM    8  N1  UNL     1      78.973   5.471  26.175  1.00  0.00    -0.367 N
ENDROOT
BRANCH   8   9
HETATM    9  C10 UNL     1      78.183   4.943  25.142  1.00  0.00     0.095 C
BRANCH   9  10
HETATM   10  C11 UNL     1      77.809   5.832  24.006  1.00  0.00     0.160 C
BRANCH  10  11
HETATM   11  O2  UNL     1      78.135   5.391  22.755  1.00  0.00    -0.390 OA
ATOM     12  H2  UNL     1      77.700   4.600  22.460  1.00  0.00     0.210 HD
ENDBRANCH  10  11
BRANCH  10  13
HETATM   13  C12 UNL     1      76.314   6.137  24.073  1.00  0.00     0.019 A
HETATM   14  C13 UNL     1      75.753   7.272  23.297  1.00  0.00     0.008 A
HETATM   15  C14 UNL     1      75.395   5.808  22.995  1.00  0.00     0.008 A
ENDBRANCH  10  13
ENDBRANCH   9  10
ENDBRANCH   8   9
BRANCH   1  16
HETATM   16  C2  UNL     1      81.007   5.002  24.918  1.00  0.00     0.051 C
BRANCH  16  17
HETATM   17  C1  UNL     1      82.443   4.584  24.890  1.00  0.00     0.166 C
BRANCH  17  18
HETATM   18  O1  UNL     1      82.820   3.762  23.851  1.00  0.00    -0.401 OA
ATOM     19  H1  UNL     1      83.010   4.189  23.024  1.00  0.00     0.209 HD
ENDBRANCH  17  18
ENDBRANCH  16  17
ENDBRANCH   1  16
TORSDOF 7
ENDMDL