MODEL 1
REMARK VINA RESULT: -6.200831738      0.000      0.000
REMARK  5 active torsions:
REMARK  status: ('A' for Active; 'I' for Inactive)
REMARK    1  A    between atoms: N1_5  and  C5_6
REMARK    2  A    between atoms: C5_6  and  C6_7
REMARK    3  A    between atoms: C6_7  and  N2_8
REMARK    4  A    between atoms: N2_8  and  C7_11
REMARK    5  A    between atoms: C7_11  and  C8_12
ROOT
HETATM    1  N2  UNL     1      77.904   6.513  29.095  1.00  0.00    -0.073 N
ATOM      2  H21 UNL     1      76.967   6.906  29.173  1.00  0.00     0.277 HD
ATOM      3  H22 UNL     1      77.650   5.531  29.203  1.00  0.00     0.277 HD
ENDROOT
BRANCH   1   4
HETATM    4  C6  UNL     1      78.820   6.991  30.166  1.00  0.00     0.262 C
BRANCH   4   5
HETATM    5  C5  UNL     1      80.028   6.110  30.092  1.00  0.00     0.299 C
BRANCH   5   6
HETATM    6  N1  UNL     1      80.615   5.864  31.396  1.00  0.00     0.090 N
HETATM    7  C4  UNL     1      79.757   5.042  32.219  1.00  0.00     0.272 C
HETATM    8  C3  UNL     1      79.866   5.554  33.639  1.00  0.00     0.030 C
HETATM    9  C2  UNL     1      80.866   4.754  34.431  1.00  0.00     0.002 C
HETATM   10  C1  UNL     1      82.065   4.327  33.608  1.00  0.00     0.002 C
HETATM   11  C14 UNL     1      82.551   5.426  32.711  1.00  0.00     0.030 C
HETATM   12  C13 UNL     1      81.929   5.315  31.313  1.00  0.00     0.272 C
ENDBRANCH   5   6
ENDBRANCH   4   5
ENDBRANCH   1   4
BRANCH   1  13
HETATM   13  C7  UNL     1      78.529   6.796  27.806  1.00  0.00     0.237 C
BRANCH  13  14
HETATM   14  C8  UNL     1      78.073   5.765  26.832  1.00  0.00     0.014 C
HETATM   15  C9  UNL     1      79.009   4.608  26.647  1.00  0.00     0.034 C
HETATM   16  C10 UNL     1      78.897   4.035  25.244  1.00  0.00     0.232 C
HETATM   17  N3  UNL     1      77.590   4.117  24.675  1.00  0.00    -0.075 N
HETATM   18  C11 UNL     1      77.023   5.436  24.662  1.00  0.00     0.232 C
ATOM     19  H32 UNL     1      77.587   3.722  23.735  1.00  0.00     0.277 HD
ATOM     20  H31 UNL     1      76.959   3.465  25.142  1.00  0.00     0.277 HD
HETATM   21  C12 UNL     1      77.900   6.382  25.439  1.00  0.00     0.034 C
ENDBRANCH  13  14
ENDBRANCH   1  13
TORSDOF 5
ENDMDL