MODEL 5
REMARK VINA RESULT: -5.658532115      3.227      7.587
REMARK  6 active torsions:
REMARK  status: ('A' for Active; 'I' for Inactive)
REMARK    1  A    between atoms: N1_1  and  C1_5
REMARK    2  A    between atoms: C1_5  and  C2_6
REMARK    3  A    between atoms: C2_6  and  C3_7
REMARK    4  A    between atoms: C3_7  and  N2_8
REMARK    5  A    between atoms: N2_8  and  C4_10
REMARK    6  A    between atoms: C4_10  and  C5_11
ROOT
HETATM    1  C5  UNL     1      80.379   6.467  29.308  1.00  0.00     0.041 C
HETATM    2  C6  UNL     1      79.482   7.632  29.541  1.00  0.00     0.011 C
HETATM    3  C7  UNL     1      78.191   7.614  28.793  1.00  0.00     0.003 C
HETATM    4  C8  UNL     1      78.318   7.945  27.336  1.00  0.00     0.025 C
HETATM    5  C9  UNL     1      78.894   6.876  26.478  1.00  0.00     0.083 C
HETATM    6  C10 UNL     1      77.787   6.009  25.878  1.00  0.00     0.025 C
HETATM    7  C11 UNL     1      78.155   4.581  25.750  1.00  0.00     0.004 C
HETATM    8  C12 UNL     1      79.583   4.275  25.540  1.00  0.00     0.020 C
HETATM    9  C13 UNL     1      80.548   5.305  26.003  1.00  0.00     0.122 C
HETATM   10  N3  UNL     1      79.946   6.110  27.027  1.00  0.00    -0.388 N
HETATM   11  C14 UNL     1      79.798   5.518  28.280  1.00  0.00     0.065 C
ENDROOT
BRANCH   1  12
HETATM   12  C4  UNL     1      80.779   5.756  30.577  1.00  0.00     0.123 C
BRANCH  12  13
HETATM   13  N2  UNL     1      79.647   5.029  31.064  1.00  0.00    -0.420 N
ATOM     14  H2  UNL     1      79.032   4.501  30.445  1.00  0.00     0.153 HD
BRANCH  13  15
HETATM   15  C3  UNL     1      79.441   5.094  32.471  1.00  0.00     0.115 C
BRANCH  15  16
HETATM   16  C2  UNL     1      80.215   3.947  33.107  1.00  0.00     0.046 C
BRANCH  16  17
HETATM   17  C1  UNL     1      81.058   4.513  34.205  1.00  0.00     0.231 C
BRANCH  17  18
HETATM   18  N1  UNL     1      80.561   5.795  34.609  1.00  0.00    -0.079 N
ATOM     19  H13 UNL     1      80.882   6.050  35.543  1.00  0.00     0.274 HD
ATOM     20  H12 UNL     1      80.999   6.554  34.086  1.00  0.00     0.274 HD
ATOM     21  H11 UNL     1      79.544   5.822  34.536  1.00  0.00     0.274 HD
ENDBRANCH  17  18
ENDBRANCH  16  17
ENDBRANCH  15  16
ENDBRANCH  13  15
ENDBRANCH  12  13
ENDBRANCH   1  12
TORSDOF 6
ENDMDL