MODEL 3
REMARK VINA RESULT: -5.513088050      2.606      4.780
REMARK  6 active torsions:
REMARK  status: ('A' for Active; 'I' for Inactive)
REMARK    1  A    between atoms: N1_1  and  C1_5
REMARK    2  A    between atoms: C1_5  and  C2_6
REMARK    3  A    between atoms: C2_6  and  N2_7
REMARK    4  A    between atoms: N2_7  and  C3_10
REMARK    5  A    between atoms: C3_10  and  C4_11
REMARK    6  A    between atoms: C4_11  and  N3_12
ROOT
HETATM    1  C4  UNL     1      80.212   6.255  30.039  1.00  0.00     0.052 C
HETATM    2  C10 UNL     1      81.340   7.234  29.736  1.00  0.00     0.032 C
HETATM    3  C11 UNL     1      81.088   8.637  30.067  1.00  0.00     0.002 C
HETATM    4  C12 UNL     1      79.705   9.169  29.881  1.00  0.00     0.000 C
HETATM    5  C13 UNL     1      78.963   8.172  29.003  1.00  0.00     0.002 C
HETATM    6  C14 UNL     1      78.860   6.936  29.890  1.00  0.00     0.032 C
ENDROOT
BRANCH   1   7
HETATM    7  C3  UNL     1      80.332   5.218  28.939  1.00  0.00     0.263 C
BRANCH   7   8
HETATM    8  N2  UNL     1      79.107   4.741  28.402  1.00  0.00    -0.071 N
ATOM      9  H22 UNL     1      78.321   5.322  28.692  1.00  0.00     0.277 HD
ATOM     10  H21 UNL     1      78.823   3.864  28.840  1.00  0.00     0.277 HD
BRANCH   8  11
HETATM   11  C2  UNL     1      79.175   4.615  26.932  1.00  0.00     0.259 C
BRANCH  11  12
HETATM   12  C1  UNL     1      78.140   5.629  26.431  1.00  0.00     0.257 C
BRANCH  12  13
HETATM   13  N1  UNL     1      77.127   4.864  25.732  1.00  0.00    -0.078 N
ATOM     14  H13 UNL     1      77.512   4.151  25.114  1.00  0.00     0.274 HD
ATOM     15  H12 UNL     1      76.604   4.234  26.340  1.00  0.00     0.274 HD
ATOM     16  H11 UNL     1      76.538   5.543  25.249  1.00  0.00     0.274 HD
ENDBRANCH  12  13
ENDBRANCH  11  12
ENDBRANCH   8  11
ENDBRANCH   7   8
ENDBRANCH   1   7
BRANCH   1  17
HETATM   17  N3  UNL     1      80.265   5.695  31.282  1.00  0.00    -0.397 N
HETATM   18  C5  UNL     1      81.435   5.204  31.886  1.00  0.00     0.122 C
HETATM   19  C6  UNL     1      80.761   4.414  33.025  1.00  0.00     0.007 C
HETATM   20  C7  UNL     1      79.844   5.523  33.543  1.00  0.00     0.031 C
HETATM   21  C9  UNL     1      79.515   3.869  32.383  1.00  0.00     0.031 C
HETATM   22  C8  UNL     1      79.238   5.371  32.131  1.00  0.00     0.081 C
ENDBRANCH   1  17
TORSDOF 6
ENDMDL