MODEL 5
REMARK VINA RESULT: -5.788691939      1.898      2.394
REMARK  6 active torsions:
REMARK  status: ('A' for Active; 'I' for Inactive)
REMARK    1  A    between atoms: C2_2  and  O1_3
REMARK    2  A    between atoms: C2_2  and  C3_5
REMARK    3  A    between atoms: C2_2  and  C10_17
REMARK    4  A    between atoms: C3_5  and  N1_6
REMARK    5  A    between atoms: C6_9  and  C7_10
REMARK    6  A    between atoms: C7_10  and  N2_11
ROOT
HETATM    1  N1  UNL     1      80.338   6.141  29.942  1.00  0.00     0.091 N
HETATM    2  C4  UNL     1      80.643   5.873  31.282  1.00  0.00     0.273 C
HETATM    3  C5  UNL     1      81.956   5.255  31.594  1.00  0.00     0.036 C
HETATM    4  C6  UNL     1      83.032   5.361  30.592  1.00  0.00     0.014 C
HETATM    5  C8  UNL     1      82.650   6.294  29.463  1.00  0.00     0.036 C
HETATM    6  C9  UNL     1      81.315   5.789  28.963  1.00  0.00     0.273 C
ENDROOT
BRANCH   1   7
HETATM    7  C3  UNL     1      79.052   5.769  29.459  1.00  0.00     0.310 C
BRANCH   7   8
HETATM    8  C2  UNL     1      78.066   6.894  29.300  1.00  0.00     0.084 C
HETATM    9  C1  UNL     1      78.546   8.141  30.014  1.00  0.00     0.048 C
BRANCH   8  10
HETATM   10  O1  UNL     1      76.801   6.599  29.799  1.00  0.00    -0.388 OA
ATOM     11  H1  UNL     1      76.338   7.424  29.891  1.00  0.00     0.210 HD
ENDBRANCH   8  10
BRANCH   8  12
HETATM   12  C10 UNL     1      78.026   7.237  27.826  1.00  0.00     0.021 C
HETATM   13  C11 UNL     1      78.236   6.015  26.961  1.00  0.00     0.007 C
HETATM   14  C12 UNL     1      78.787   6.668  25.685  1.00  0.00     0.000 C
HETATM   15  C13 UNL     1      79.822   7.586  26.297  1.00  0.00     0.000 C
HETATM   16  C14 UNL     1      79.008   8.265  27.400  1.00  0.00     0.007 C
ENDBRANCH   8  12
ENDBRANCH   7   8
ENDBRANCH   1   7
BRANCH   4  17
HETATM   17  C7  UNL     1      84.372   5.820  31.101  1.00  0.00     0.234 C
BRANCH  17  18
HETATM   18  N2  UNL     1      85.429   5.739  30.159  1.00  0.00    -0.079 N
ATOM     19  H23 UNL     1      85.351   6.493  29.476  1.00  0.00     0.274 HD
ATOM     20  H22 UNL     1      86.314   5.991  30.600  1.00  0.00     0.274 HD
ATOM     21  H21 UNL     1      85.516   4.841  29.684  1.00  0.00     0.274 HD
ENDBRANCH  17  18
ENDBRANCH   4  17
TORSDOF 6
ENDMDL