MODEL 2
REMARK VINA RESULT: -6.317892930      2.714      6.408
REMARK  8 active torsions:
REMARK  status: ('A' for Active; 'I' for Inactive)
REMARK    1  A    between atoms: C2_2  and  O1_3
REMARK    2  A    between atoms: C2_2  and  C3_5
REMARK    3  A    between atoms: C3_5  and  C4_6
REMARK    4  A    between atoms: C4_6  and  C5_7
REMARK    5  A    between atoms: C10_12  and  C11_13
REMARK    6  A    between atoms: C11_13  and  C12_14
REMARK    7  A    between atoms: C12_14  and  C13_15
REMARK    8  A    between atoms: C13_15  and  N1_16
ROOT
HETATM    1  C5  UNL     1      77.052   5.871  24.859  1.00  0.00     0.016 C
HETATM    2  C6  UNL     1      77.406   4.413  25.012  1.00  0.00     0.042 C
HETATM    3  C7  UNL     1      78.560   4.456  25.983  1.00  0.00     0.224 C
HETATM    4  C8  UNL     1      79.898   4.358  25.305  1.00  0.00     0.038 C
HETATM    5  C9  UNL     1      80.819   5.131  26.223  1.00  0.00     0.038 C
HETATM    6  C10 UNL     1      79.907   5.973  27.054  1.00  0.00     0.223 C
HETATM    7  N2  UNL     1      78.566   5.768  26.583  1.00  0.00     0.098 N
HETATM    8  C14 UNL     1      78.216   6.627  25.468  1.00  0.00     0.278 C
ENDROOT
BRANCH   6   9
HETATM    9  C11 UNL     1      79.956   5.511  28.504  1.00  0.00     0.037 C
BRANCH   9  10
HETATM   10  C12 UNL     1      78.895   6.210  29.327  1.00  0.00     0.029 C
BRANCH  10  11
HETATM   11  C13 UNL     1      78.749   5.581  30.699  1.00  0.00     0.229 C
BRANCH  11  12
HETATM   12  N1  UNL     1      78.340   4.193  30.613  1.00  0.00    -0.079 N
ATOM     13  H13 UNL     1      78.597   3.785  29.715  1.00  0.00     0.274 HD
ATOM     14  H12 UNL     1      78.902   3.602  31.225  1.00  0.00     0.274 HD
ATOM     15  H11 UNL     1      77.344   4.081  30.800  1.00  0.00     0.274 HD
ENDBRANCH  11  12
ENDBRANCH  10  11
ENDBRANCH   9  10
ENDBRANCH   6   9
BRANCH   1  16
HETATM   16  C4  UNL     1      76.853   6.229  23.401  1.00  0.00     0.009 C
BRANCH  16  17
HETATM   17  C3  UNL     1      75.502   6.882  23.202  1.00  0.00     0.032 C
BRANCH  17  18
HETATM   18  C2  UNL     1      74.724   6.086  22.172  1.00  0.00     0.114 C
HETATM   19  C1  UNL     1      73.715   7.033  21.518  1.00  0.00     0.039 C
BRANCH  18  20
HETATM   20  O1  UNL     1      73.981   5.074  22.760  1.00  0.00    -0.396 OA
ATOM     21  H1  UNL     1      73.711   4.500  22.054  1.00  0.00     0.210 HD
ENDBRANCH  18  20
ENDBRANCH  17  18
ENDBRANCH  16  17
ENDBRANCH   1  16
TORSDOF 8
ENDMDL