MODEL 4
REMARK VINA RESULT: -5.815299646      1.606      2.536
REMARK  6 active torsions:
REMARK  status: ('A' for Active; 'I' for Inactive)
REMARK    1  A    between atoms: O1_1  and  C1_3
REMARK    2  A    between atoms: N1_8  and  C6_9
REMARK    3  A    between atoms: C6_9  and  C7_10
REMARK    4  A    between atoms: C7_10  and  C8_11
REMARK    5  A    between atoms: C8_11  and  N2_12
REMARK    6  A    between atoms: N2_12  and  C9_15
ROOT
HETATM    1  C7  UNL     1      79.854   5.726  31.477  1.00  0.00     0.072 C
ENDROOT
BRANCH   1   2
HETATM    2  C6  UNL     1      78.626   5.618  30.641  1.00  0.00     0.067 C
BRANCH   2   3
HETATM    3  N1  UNL     1      78.603   6.296  29.417  1.00  0.00    -0.347 N
HETATM    4  C1  UNL     1      79.064   5.641  28.259  1.00  0.00     0.223 C
HETATM    5  C2  UNL     1      78.329   6.115  27.007  1.00  0.00     0.054 C
HETATM    6  C3  UNL     1      78.520   7.603  26.916  1.00  0.00     0.009 C
HETATM    7  C4  UNL     1      79.122   8.238  28.125  1.00  0.00     0.045 C
HETATM    8  C5  UNL     1      78.505   7.701  29.383  1.00  0.00     0.066 C
BRANCH   4   9
HETATM    9  O1  UNL     1      79.171   4.270  28.312  1.00  0.00    -0.376 OA
ATOM     10  H1  UNL     1      80.005   3.962  27.979  1.00  0.00     0.212 HD
ENDBRANCH   4   9
ENDBRANCH   2   3
ENDBRANCH   1   2
BRANCH   1  11
HETATM   11  C8  UNL     1      79.521   5.348  32.911  1.00  0.00     0.237 C
BRANCH  11  12
HETATM   12  N2  UNL     1      80.249   4.139  33.221  1.00  0.00    -0.071 N
ATOM     13  H22 UNL     1      79.623   3.349  33.380  1.00  0.00     0.277 HD
ATOM     14  H21 UNL     1      80.747   3.777  32.408  1.00  0.00     0.277 HD
BRANCH  12  15
HETATM   15  C9  UNL     1      81.135   4.358  34.340  1.00  0.00     0.185 C
HETATM   16  C10 UNL     1      82.588   4.264  34.012  1.00  0.00     0.033 C
HETATM   17  C11 UNL     1      83.441   4.495  35.207  1.00  0.00     0.002 C
HETATM   18  C12 UNL     1      82.981   5.487  36.199  1.00  0.00     0.000 C
HETATM   19  C13 UNL     1      81.498   5.629  36.353  1.00  0.00     0.002 C
HETATM   20  C14 UNL     1      80.894   5.727  34.944  1.00  0.00     0.033 C
ENDBRANCH  12  15
ENDBRANCH  11  12
ENDBRANCH   1  11
TORSDOF 6
ENDMDL