MODEL 2
REMARK VINA RESULT: -6.208044147      2.022      6.523
REMARK  7 active torsions:
REMARK  status: ('A' for Active; 'I' for Inactive)
REMARK    1  A    between atoms: C2_2  and  C4_4
REMARK    2  A    between atoms: C4_4  and  C5_5
REMARK    3  A    between atoms: C7_8  and  C8_9
REMARK    4  A    between atoms: C8_9  and  O2_10
REMARK    5  A    between atoms: C8_9  and  C9_12
REMARK    6  A    between atoms: C10_13  and  C11_14
REMARK    7  A    between atoms: C13_16  and  O3_17
ROOT
HETATM    1  C8  UNL     1      81.279   5.970  29.449  1.00  0.00     0.149 C
ENDROOT
BRANCH   1   2
HETATM    2  C7  UNL     1      80.481   6.546  30.576  1.00  0.00     0.071 C
HETATM    3  C5  UNL     1      79.175   5.921  30.893  1.00  0.00     0.130 C
HETATM    4  O1  UNL     1      78.661   7.198  31.151  1.00  0.00    -0.385 OA
HETATM    5  C6  UNL     1      79.547   7.659  30.154  1.00  0.00     0.178 C
BRANCH   3   6
HETATM    6  C4  UNL     1      79.088   5.066  32.124  1.00  0.00     0.036 C
BRANCH   6   7
HETATM    7  C2  UNL     1      80.297   5.130  32.993  1.00  0.00    -0.020 C
HETATM    8  C1  UNL     1      80.096   5.930  34.260  1.00  0.00     0.009 C
HETATM    9  C3  UNL     1      80.599   3.696  33.443  1.00  0.00     0.009 C
ENDBRANCH   6   7
ENDBRANCH   3   6
ENDBRANCH   1   2
BRANCH   1  10
HETATM   10  O2  UNL     1      82.063   4.893  29.914  1.00  0.00    -0.391 OA
ATOM     11  H2  UNL     1      82.677   4.624  29.241  1.00  0.00     0.210 HD
ENDBRANCH   1  10
BRANCH   1  12
HETATM   12  C9  UNL     1      80.483   5.515  28.307  1.00  0.00     0.001 C
HETATM   13  C10 UNL     1      80.744   5.948  27.096  1.00  0.00    -0.023 C
BRANCH  13  14
HETATM   14  C11 UNL     1      79.983   5.532  25.892  1.00  0.00     0.013 C
HETATM   15  C12 UNL     1      80.704   4.608  24.957  1.00  0.00     0.040 C
HETATM   16  C13 UNL     1      79.385   3.881  24.765  1.00  0.00     0.119 C
HETATM   17  C14 UNL     1      78.986   4.402  26.138  1.00  0.00     0.040 C
BRANCH  16  18
HETATM   18  O3  UNL     1      78.609   4.423  23.723  1.00  0.00    -0.396 OA
ATOM     19  H3  UNL     1      78.765   3.998  22.887  1.00  0.00     0.210 HD
ENDBRANCH  16  18
ENDBRANCH  13  14
ENDBRANCH   1  12
TORSDOF 7
ENDMDL