MODEL 2
REMARK VINA RESULT: -6.344910554      1.294      1.927
REMARK  7 active torsions:
REMARK  status: ('A' for Active; 'I' for Inactive)
REMARK    1  A    between atoms: C4_4  and  C5_5
REMARK    2  A    between atoms: C5_5  and  C6_6
REMARK    3  A    between atoms: C6_6  and  C7_7
REMARK    4  A    between atoms: C7_7  and  N1_8
REMARK    5  A    between atoms: C7_7  and  N2_12
REMARK    6  A    between atoms: C7_7  and  C8_16
REMARK    7  A    between atoms: C8_16  and  C10_18
ROOT
HETATM    1  C7  UNL     1      78.791   6.153  29.414  1.00  0.00     0.288 C
ENDROOT
BRANCH   1   2
HETATM    2  C6  UNL     1      79.528   6.479  30.642  1.00  0.00     0.070 C
BRANCH   2   3
HETATM    3  C5  UNL     1      79.188   5.795  31.910  1.00  0.00     0.009 C
BRANCH   3   4
HETATM    4  C4  UNL     1      80.427   5.211  32.586  1.00  0.00    -0.014 C
HETATM    5  C3  UNL     1      80.298   3.797  33.044  1.00  0.00     0.009 C
HETATM    6  C2  UNL     1      81.015   4.229  34.332  1.00  0.00    -0.018 C
HETATM    7  C1  UNL     1      82.510   4.272  34.127  1.00  0.00     0.010 C
HETATM    8  C14 UNL     1      80.443   5.626  34.054  1.00  0.00     0.009 C
ENDBRANCH   3   4
ENDBRANCH   2   3
ENDBRANCH   1   2
BRANCH   1   9
HETATM    9  N1  UNL     1      77.372   6.462  29.479  1.00  0.00    -0.044 N
ATOM     10  H13 UNL     1      76.832   5.779  28.947  1.00  0.00     0.277 HD
ATOM     11  H12 UNL     1      77.007   6.280  30.414  1.00  0.00     0.277 HD
ATOM     12  H11 UNL     1      77.142   7.410  29.183  1.00  0.00     0.277 HD
ENDBRANCH   1   9
BRANCH   1  13
HETATM   13  N2  UNL     1      78.741   4.629  29.435  1.00  0.00    -0.044 N
ATOM     14  H23 UNL     1      78.187   4.232  30.194  1.00  0.00     0.277 HD
ATOM     15  H22 UNL     1      78.198   4.211  28.680  1.00  0.00     0.277 HD
ATOM     16  H21 UNL     1      79.727   4.366  29.445  1.00  0.00     0.277 HD
ENDBRANCH   1  13
BRANCH   1  17
HETATM   17  C8  UNL     1      79.351   6.476  28.084  1.00  0.00     0.078 C
HETATM   18  C9  UNL     1      80.538   5.512  27.884  1.00  0.00     0.017 C
BRANCH  17  19
HETATM   19  C10 UNL     1      78.444   6.555  26.925  1.00  0.00     0.164 A
HETATM   20  O1  UNL     1      77.523   5.465  26.864  1.00  0.00    -0.369 OA
HETATM   21  C11 UNL     1      78.357   5.773  25.740  1.00  0.00     0.081 A
HETATM   22  C12 UNL     1      79.228   4.685  25.239  1.00  0.00     0.048 C
HETATM   23  C13 UNL     1      77.439   6.338  24.627  1.00  0.00     0.048 C
ENDBRANCH  17  19
ENDBRANCH   1  17
TORSDOF 7
ENDMDL