MODEL 3
REMARK VINA RESULT: -7.177470059      4.409      9.451
REMARK  4 active torsions:
REMARK  status: ('A' for Active; 'I' for Inactive)
REMARK    1  A    between atoms: C5_7  and  N2_8
REMARK    2  A    between atoms: N2_8  and  C6_10
REMARK    3  A    between atoms: C6_10  and  C7_11
REMARK    4  A    between atoms: C7_11  and  C8_12
ROOT
HETATM    1  C1  UNL     1      78.555   7.174  25.496  1.00  0.00     0.002 A
HETATM    2  C2  UNL     1      79.663   6.374  25.634  1.00  0.00     0.002 A
HETATM    3  C3  UNL     1      79.979   5.779  26.860  1.00  0.00     0.032 A
HETATM    4  C4  UNL     1      79.153   6.012  27.939  1.00  0.00     0.077 A
HETATM    5  N1  UNL     1      79.394   5.471  29.155  1.00  0.00    -0.188 N
ATOM      6  H1  UNL     1      80.215   4.877  29.267  1.00  0.00     0.184 HD
HETATM    7  C5  UNL     1      78.605   5.681  30.224  1.00  0.00     0.693 A
HETATM    8  N4  UNL     1      77.519   6.475  30.060  1.00  0.00    -0.132 N
ATOM      9  H4  UNL     1      76.899   6.654  30.850  1.00  0.00     0.205 HD
HETATM   10  N5  UNL     1      77.253   7.019  28.883  1.00  0.00    -0.284 N
ATOM     11  H5  UNL     1      76.429   7.613  28.788  1.00  0.00     0.187 HD
HETATM   12  C12 UNL     1      78.036   6.814  27.812  1.00  0.00     0.075 A
HETATM   13  C13 UNL     1      77.759   7.384  26.579  1.00  0.00     0.033 A
ENDROOT
BRANCH   7  14
HETATM   14  N2  UNL     1      78.889   5.137  31.359  1.00  0.00    -0.224 N
ATOM     15  H2  UNL     1      78.221   4.508  31.803  1.00  0.00     0.177 HD
BRANCH  14  16
HETATM   16  C6  UNL     1      80.142   5.415  31.995  1.00  0.00     0.142 C
BRANCH  16  17
HETATM   17  C7  UNL     1      80.258   4.767  33.356  1.00  0.00     0.060 C
BRANCH  17  18
HETATM   18  C8  UNL     1      80.266   5.862  34.359  1.00  0.00    -0.040 A
HETATM   19  C9  UNL     1      79.724   7.130  34.256  1.00  0.00     0.025 A
HETATM   20  C10 UNL     1      79.952   7.837  35.414  1.00  0.00     0.088 A
HETATM   21  N3  UNL     1      80.632   7.016  36.234  1.00  0.00    -0.375 N
HETATM   22  C11 UNL     1      80.833   5.834  35.630  1.00  0.00     0.094 A
ATOM     23  H3  UNL     1      80.949   7.256  37.173  1.00  0.00     0.164 HD
ENDBRANCH  17  18
ENDBRANCH  16  17
ENDBRANCH  14  16
ENDBRANCH   7  14
TORSDOF 4
ENDMDL