MODEL 5
REMARK VINA RESULT: -7.088157609      1.170      1.591
REMARK  5 active torsions:
REMARK  status: ('A' for Active; 'I' for Inactive)
REMARK    1  A    between atoms: O1_2  and  C2_3
REMARK    2  A    between atoms: C2_3  and  N1_5
REMARK    3  A    between atoms: N1_5  and  C4_7
REMARK    4  A    between atoms: C5_12  and  C6_13
REMARK    5  A    between atoms: C6_13  and  C7_14
ROOT
HETATM    1  C4  UNL     1      79.615   5.797  28.533  1.00  0.00     0.696 A
HETATM    2  N2  UNL     1      78.700   4.826  28.708  1.00  0.00    -0.131 N
ATOM      3  H2  UNL     1      78.455   4.092  28.043  1.00  0.00     0.205 HD
HETATM    4  N3  UNL     1      78.187   5.008  29.896  1.00  0.00    -0.274 N
ATOM      5  H3  UNL     1      77.462   4.421  30.311  1.00  0.00     0.189 HD
HETATM    6  C5  UNL     1      78.744   6.072  30.497  1.00  0.00     0.116 A
HETATM    7  N4  UNL     1      79.646   6.569  29.633  1.00  0.00    -0.178 N
ATOM      8  H4  UNL     1      80.244   7.382  29.783  1.00  0.00     0.185 HD
ENDROOT
BRANCH   6   9
HETATM    9  C6  UNL     1      78.412   6.581  31.849  1.00  0.00     0.116 C
BRANCH   9  10
HETATM   10  C7  UNL     1      79.326   6.047  32.886  1.00  0.00    -0.051 A
HETATM   11  C8  UNL     1      79.674   6.840  33.958  1.00  0.00     0.007 A
HETATM   12  C9  UNL     1      80.533   6.377  34.954  1.00  0.00     0.001 A
HETATM   13  C10 UNL     1      81.064   5.105  34.901  1.00  0.00     0.000 A
HETATM   14  C11 UNL     1      80.713   4.316  33.827  1.00  0.00     0.001 A
HETATM   15  C12 UNL     1      79.856   4.774  32.827  1.00  0.00     0.007 A
ENDBRANCH   9  10
ENDBRANCH   6   9
BRANCH   1  16
HETATM   16  N1  UNL     1      80.365   5.982  27.476  1.00  0.00    -0.199 N
ATOM     17  H1  UNL     1      81.324   6.308  27.595  1.00  0.00     0.180 HD
BRANCH  16  18
HETATM   18  C2  UNL     1      79.864   5.735  26.146  1.00  0.00     0.233 C
HETATM   19  C3  UNL     1      78.923   6.847  25.727  1.00  0.00     0.063 C
BRANCH  18  20
HETATM   20  O1  UNL     1      79.311   4.488  25.996  1.00  0.00    -0.371 OA
HETATM   21  C1  UNL     1      78.698   4.282  24.779  1.00  0.00     0.204 C
ENDBRANCH  18  20
ENDBRANCH  16  18
ENDBRANCH   1  16
TORSDOF 5
ENDMDL