MODEL 5
REMARK VINA RESULT: -6.807765366      1.783      4.556
REMARK  3 active torsions:
REMARK  status: ('A' for Active; 'I' for Inactive)
REMARK    1  A    between atoms: N3_4  and  N4_6
REMARK    2  A    between atoms: C2_8  and  C3_9
REMARK    3  A    between atoms: C2_8  and  C9_15
ROOT
HETATM    1  N4  UNL     1      79.656   5.730  28.756  1.00  0.00    -0.297 N
ATOM      2  H4  UNL     1      80.529   5.825  29.277  1.00  0.00     0.187 HD
HETATM    3  C2  UNL     1      79.820   6.014  27.539  1.00  0.00     0.070 C
ENDROOT
BRANCH   3   4
HETATM    4  C3  UNL     1      78.716   5.947  26.612  1.00  0.00    -0.007 A
HETATM    5  C4  UNL     1      78.212   7.067  25.952  1.00  0.00     0.014 A
HETATM    6  C5  UNL     1      77.228   7.017  24.979  1.00  0.00     0.001 A
HETATM    7  C6  UNL     1      76.702   5.799  24.632  1.00  0.00     0.000 A
HETATM    8  C7  UNL     1      77.146   4.651  25.237  1.00  0.00     0.001 A
HETATM    9  C8  UNL     1      78.125   4.753  26.194  1.00  0.00     0.014 A
ENDBRANCH   3   4
BRANCH   3  10
HETATM   10  C9  UNL     1      81.166   6.380  27.146  1.00  0.00     0.008 A
HETATM   11  C10 UNL     1      81.678   5.788  25.982  1.00  0.00     0.016 A
HETATM   12  C11 UNL     1      82.920   6.155  25.529  1.00  0.00     0.018 A
HETATM   13  C12 UNL     1      83.711   7.090  26.161  1.00  0.00     0.087 A
HETATM   14  N5  UNL     1      83.214   7.644  27.260  1.00  0.00    -0.374 N
HETATM   15  C13 UNL     1      81.983   7.300  27.734  1.00  0.00     0.101 A
ATOM     16  H5  UNL     1      83.765   8.341  27.760  1.00  0.00     0.164 HD
ENDBRANCH   3  10
BRANCH   1  17
HETATM   17  N3  UNL     1      78.666   5.342  29.549  1.00  0.00    -0.276 N
HETATM   18  C1  UNL     1      78.064   6.133  30.386  1.00  0.00     0.215 C
HETATM   19  N1  UNL     1      77.024   5.601  31.176  1.00  0.00    -0.065 NA
HETATM   20  N2  UNL     1      78.484   7.469  30.455  1.00  0.00    -0.065 NA
ATOM     21  H3  UNL     1      78.360   4.370  29.499  1.00  0.00     0.189 HD
ENDBRANCH   1  17
TORSDOF 3
ENDMDL