MODEL 2
REMARK VINA RESULT: -6.802656865      0.765      1.211
REMARK  4 active torsions:
REMARK  status: ('A' for Active; 'I' for Inactive)
REMARK    1  A    between atoms: N1_1  and  C1_4
REMARK    2  A    between atoms: C4_7  and  S1_8
REMARK    3  A    between atoms: S1_8  and  C5_10
REMARK    4  A    between atoms: C5_10  and  C6_11
ROOT
HETATM    1  C1  UNL     1      78.161   5.557  25.447  1.00  0.00     0.098 A
HETATM    2  C2  UNL     1      77.599   6.758  25.814  1.00  0.00     0.049 A
HETATM    3  C3  UNL     1      77.687   7.143  27.131  1.00  0.00     0.026 A
HETATM    4  C4  UNL     1      78.312   6.374  28.089  1.00  0.00     0.047 A
HETATM    5  C11 UNL     1      78.861   5.177  27.678  1.00  0.00     0.110 A
HETATM    6  N3  UNL     1      78.772   4.802  26.375  1.00  0.00    -0.351 N
ATOM      7  H3  UNL     1      79.185   3.913  26.090  1.00  0.00     0.166 HD
ENDROOT
BRANCH   4   8
HETATM    8  S1  UNL     1      78.425   6.852  29.746  1.00  0.00     0.056 S
HETATM    9  O1  UNL     1      77.650   8.279  30.085  1.00  0.00    -0.252 OA
BRANCH   8  10
HETATM   10  C5  UNL     1      77.951   5.547  30.816  1.00  0.00     0.171 C
BRANCH  10  11
HETATM   11  C6  UNL     1      78.855   5.470  31.993  1.00  0.00     0.021 A
HETATM   12  C7  UNL     1      78.962   6.600  32.794  1.00  0.00     0.026 A
HETATM   13  C8  UNL     1      79.773   6.635  33.908  1.00  0.00     0.003 A
HETATM   14  C9  UNL     1      80.495   5.504  34.225  1.00  0.00     0.017 A
HETATM   15  C10 UNL     1      80.357   4.397  33.397  1.00  0.00     0.088 A
HETATM   16  N2  UNL     1      79.557   4.395  32.315  1.00  0.00    -0.368 N
ATOM     17  H2  UNL     1      79.491   3.556  31.738  1.00  0.00     0.165 HD
ENDBRANCH  10  11
ENDBRANCH   8  10
ENDBRANCH   4   8
BRANCH   1  18
HETATM   18  N1  UNL     1      78.105   5.146  24.205  1.00  0.00    -0.385 N
ATOM     19  H12 UNL     1      77.600   5.696  23.510  1.00  0.00     0.157 HD
ATOM     20  H11 UNL     1      78.562   4.278  23.924  1.00  0.00     0.157 HD
ENDBRANCH   1  18
TORSDOF 4
ENDMDL