MODEL 5
REMARK VINA RESULT: -7.105926955      3.127      4.796
REMARK  3 active torsions:
REMARK  status: ('A' for Active; 'I' for Inactive)
REMARK    1  A    between atoms: C5_5  and  C6_6
REMARK    2  A    between atoms: C6_6  and  C7_7
REMARK    3  A    between atoms: C7_7  and  N1_8
ROOT
HETATM    1  C6  UNL     1      79.173   8.579  28.526  1.00  0.00     0.079 C
ENDROOT
BRANCH   1   2
HETATM    2  C5  UNL     1      78.646   7.507  29.411  1.00  0.00     0.040 A
HETATM    3  C4  UNL     1      79.352   6.860  30.431  1.00  0.00     0.016 A
HETATM    4  C3  UNL     1      80.647   7.037  30.858  1.00  0.00     0.016 A
HETATM    5  C12 UNL     1      78.527   5.928  31.026  1.00  0.00     0.060 A
HETATM    6  C2  UNL     1      81.115   6.270  31.892  1.00  0.00     0.001 A
HETATM    7  C1  UNL     1      80.279   5.343  32.477  1.00  0.00     0.002 A
HETATM    8  C13 UNL     1      78.980   5.148  32.068  1.00  0.00     0.032 A
HETATM    9  N5  UNL     1      77.352   6.013  30.379  1.00  0.00    -0.300 N
HETATM   10  N4  UNL     1      77.428   6.941  29.431  1.00  0.00    -0.303 N
ATOM     11  H5  UNL     1      76.527   5.449  30.584  1.00  0.00     0.187 HD
ATOM     12  H4  UNL     1      76.664   7.191  28.803  1.00  0.00     0.186 HD
ENDBRANCH   1   2
BRANCH   1  13
HETATM   13  C7  UNL     1      78.659   8.380  27.119  1.00  0.00     0.127 C
BRANCH  13  14
HETATM   14  N1  UNL     1      79.341   7.343  26.417  1.00  0.00    -0.376 N
HETATM   15  C8  UNL     1      78.685   6.371  25.883  1.00  0.00     0.102 A
HETATM   16  C9  UNL     1      79.433   5.409  25.220  1.00  0.00     0.065 A
HETATM   17  N3  UNL     1      77.358   6.236  25.926  1.00  0.00    -0.339 N
HETATM   18  C10 UNL     1      78.797   4.341  24.626  1.00  0.00     0.092 A
HETATM   19  N2  UNL     1      77.443   4.220  24.681  1.00  0.00    -0.362 N
HETATM   20  C11 UNL     1      76.770   5.181  25.335  1.00  0.00     0.181 A
ATOM     21  H2  UNL     1      76.960   3.434  24.245  1.00  0.00     0.165 HD
ATOM     22  H3  UNL     1      76.790   6.932  26.408  1.00  0.00     0.168 HD
ATOM     23  H1  UNL     1      80.357   7.371  26.337  1.00  0.00     0.161 HD
ENDBRANCH  13  14
ENDBRANCH   1  13
TORSDOF 3
ENDMDL