MODEL 3
REMARK VINA RESULT: -7.090811388      1.015      1.027
REMARK  5 active torsions:
REMARK  status: ('A' for Active; 'I' for Inactive)
REMARK    1  A    between atoms: C2_2  and  C3_3
REMARK    2  A    between atoms: C3_3  and  N1_4
REMARK    3  A    between atoms: N1_4  and  C4_6
REMARK    4  A    between atoms: C6_12  and  N4_13
REMARK    5  A    between atoms: N4_13  and  C7_15
ROOT
HETATM    1  C4  UNL     1      78.458   6.724  27.611  1.00  0.00     0.693 A
HETATM    2  N2  UNL     1      79.782   6.593  27.398  1.00  0.00    -0.187 N
ATOM      3  H2  UNL     1      80.179   6.951  26.529  1.00  0.00     0.185 HD
HETATM    4  C5  UNL     1      80.607   6.002  28.295  1.00  0.00     0.215 A
HETATM    5  N3  UNL     1      80.094   5.529  29.437  1.00  0.00    -0.187 N
ATOM      6  H3  UNL     1      80.704   5.083  30.121  1.00  0.00     0.185 HD
HETATM    7  C6  UNL     1      78.778   5.640  29.687  1.00  0.00     0.698 A
HETATM    8  N5  UNL     1      77.984   6.234  28.772  1.00  0.00    -0.022 N
ATOM      9  H5  UNL     1      76.986   6.315  28.968  1.00  0.00     0.203 HD
ENDROOT
BRANCH   7  10
HETATM   10  N4  UNL     1      78.329   5.173  30.797  1.00  0.00    -0.191 N
ATOM     11  H4  UNL     1      77.472   4.621  30.797  1.00  0.00     0.184 HD
BRANCH  10  12
HETATM   12  C7  UNL     1      79.004   5.410  32.022  1.00  0.00     0.049 A
HETATM   13  C8  UNL     1      79.747   4.433  32.653  1.00  0.00     0.030 A
HETATM   14  C9  UNL     1      80.406   4.659  33.846  1.00  0.00     0.002 A
HETATM   15  C10 UNL     1      80.347   5.891  34.464  1.00  0.00     0.000 A
HETATM   16  C11 UNL     1      79.608   6.875  33.842  1.00  0.00     0.002 A
HETATM   17  C12 UNL     1      78.946   6.656  32.650  1.00  0.00     0.030 A
ENDBRANCH  10  12
ENDBRANCH   7  10
BRANCH   1  18
HETATM   18  N1  UNL     1      77.681   7.289  26.747  1.00  0.00    -0.222 N
ATOM     19  H1  UNL     1      76.948   7.932  27.048  1.00  0.00     0.178 HD
BRANCH  18  20
HETATM   20  C3  UNL     1      77.873   6.989  25.343  1.00  0.00     0.164 C
BRANCH  20  21
HETATM   21  C2  UNL     1      76.719   6.237  24.794  1.00  0.00    -0.017 C
HETATM   22  C1  UNL     1      76.037   6.678  23.742  1.00  0.00     0.008 C
ENDBRANCH  20  21
ENDBRANCH  18  20
ENDBRANCH   1  18
TORSDOF 5
ENDMDL