MODEL 2
REMARK VINA RESULT: -7.390480071     10.050     12.728
REMARK  4 active torsions:
REMARK  status: ('A' for Active; 'I' for Inactive)
REMARK    1  A    between atoms: C5_7  and  N2_8
REMARK    2  A    between atoms: N2_8  and  C6_10
REMARK    3  A    between atoms: C6_10  and  C7_11
REMARK    4  A    between atoms: C7_11  and  C8_12
ROOT
HETATM    1  N2  UNL     1      76.437   5.650  24.011  1.00  0.00    -0.376 N
ATOM      2  H2  UNL     1      76.010   4.753  23.776  1.00  0.00     0.161 HD
ENDROOT
BRANCH   1   3
HETATM    3  C5  UNL     1      77.147   5.755  25.071  1.00  0.00     0.101 A
HETATM    4  N1  UNL     1      77.294   6.958  25.651  1.00  0.00    -0.342 N
HETATM    5  C4  UNL     1      78.020   7.154  26.761  1.00  0.00     0.043 A
ATOM      6  H1  UNL     1      76.831   7.761  25.226  1.00  0.00     0.167 HD
HETATM    7  C3  UNL     1      78.168   8.390  27.352  1.00  0.00     0.030 A
HETATM    8  C12 UNL     1      78.637   6.061  27.320  1.00  0.00    -0.009 A
HETATM    9  C2  UNL     1      78.942   8.527  28.515  1.00  0.00     0.002 A
HETATM   10  C1  UNL     1      79.563   7.436  29.079  1.00  0.00     0.001 A
HETATM   11  C13 UNL     1      79.395   6.226  28.467  1.00  0.00     0.013 A
HETATM   12  C11 UNL     1      78.529   4.787  26.775  1.00  0.00     0.017 A
HETATM   13  C10 UNL     1      77.771   4.638  25.633  1.00  0.00     0.049 A
ENDBRANCH   1   3
BRANCH   1  14
HETATM   14  C6  UNL     1      76.235   6.777  23.153  1.00  0.00     0.128 C
BRANCH  14  15
HETATM   15  C7  UNL     1      74.766   6.881  22.799  1.00  0.00     0.097 C
BRANCH  15  16
HETATM   16  C8  UNL     1      74.400   5.751  21.930  1.00  0.00     0.098 A
HETATM   17  N3  UNL     1      74.967   5.454  20.756  1.00  0.00    -0.340 N
HETATM   18  C9  UNL     1      74.353   4.343  20.264  1.00  0.00     0.198 A
ATOM     19  H3  UNL     1      75.726   5.968  20.308  1.00  0.00     0.168 HD
HETATM   20  N4  UNL     1      73.418   3.980  21.151  1.00  0.00    -0.295 N
HETATM   21  N5  UNL     1      73.452   4.836  22.154  1.00  0.00    -0.288 N
ATOM     22  H4  UNL     1      72.788   3.182  21.066  1.00  0.00     0.187 HD
ATOM     23  H5  UNL     1      72.848   4.804  22.975  1.00  0.00     0.188 HD
ENDBRANCH  15  16
ENDBRANCH  14  15
ENDBRANCH   1  14
TORSDOF 4
ENDMDL