MODEL 5
REMARK VINA RESULT: -6.544779489      2.744      4.418
REMARK  4 active torsions:
REMARK  status: ('A' for Active; 'I' for Inactive)
REMARK    1  A    between atoms: C2_2  and  C3_3
REMARK    2  A    between atoms: C3_3  and  N1_4
REMARK    3  A    between atoms: N1_4  and  C4_6
REMARK    4  A    between atoms: C5_9  and  C6_10
ROOT
HETATM    1  C4  UNL     1      78.543   5.608  27.834  1.00  0.00     0.681 A
HETATM    2  N2  UNL     1      78.836   5.344  29.112  1.00  0.00    -0.189 N
ATOM      3  H2  UNL     1      78.833   4.374  29.426  1.00  0.00     0.184 HD
HETATM    4  C5  UNL     1      79.135   6.316  30.002  1.00  0.00     0.081 A
HETATM    5  C11 UNL     1      79.132   7.614  29.554  1.00  0.00     0.107 A
HETATM    6  C12 UNL     1      78.829   7.916  28.222  1.00  0.00     0.261 A
HETATM    7  O1  UNL     1      78.824   9.100  27.804  1.00  0.00    -0.268 OA
HETATM    8  N4  UNL     1      78.547   6.880  27.422  1.00  0.00    -0.156 N
ATOM      9  H4  UNL     1      78.322   7.071  26.446  1.00  0.00     0.187 HD
ENDROOT
BRANCH   4  10
HETATM   10  C6  UNL     1      79.452   6.018  31.391  1.00  0.00     0.059 A
HETATM   11  C7  UNL     1      79.271   6.901  32.428  1.00  0.00     0.032 A
HETATM   12  C8  UNL     1      79.580   6.600  33.751  1.00  0.00     0.004 A
HETATM   13  C9  UNL     1      80.091   5.364  34.047  1.00  0.00     0.017 A
HETATM   14  C10 UNL     1      80.273   4.481  33.003  1.00  0.00     0.088 A
HETATM   15  N3  UNL     1      79.964   4.801  31.734  1.00  0.00    -0.364 N
ATOM     16  H3  UNL     1      80.118   4.108  31.002  1.00  0.00     0.165 HD
ENDBRANCH   4  10
BRANCH   1  17
HETATM   17  N1  UNL     1      78.260   4.689  26.994  1.00  0.00    -0.223 N
ATOM     18  H1  UNL     1      78.107   3.749  27.359  1.00  0.00     0.178 HD
BRANCH  17  19
HETATM   19  C3  UNL     1      78.141   4.876  25.570  1.00  0.00     0.164 C
BRANCH  19  20
HETATM   20  C2  UNL     1      76.741   5.078  25.136  1.00  0.00    -0.017 C
HETATM   21  C1  UNL     1      76.344   6.083  24.380  1.00  0.00     0.008 C
ENDBRANCH  19  20
ENDBRANCH  17  19
ENDBRANCH   1  17
TORSDOF 4
ENDMDL