MODEL 4
REMARK VINA RESULT: -7.167103634      4.724      8.393
REMARK  4 active torsions:
REMARK  status: ('A' for Active; 'I' for Inactive)
REMARK    1  A    between atoms: C6_7  and  C7_8
REMARK    2  A    between atoms: C7_8  and  N2_9
REMARK    3  A    between atoms: N2_9  and  C8_11
REMARK    4  A    between atoms: C10_13  and  C11_14
ROOT
HETATM    1  N1  UNL     1      80.037   8.930  36.031  1.00  0.00    -0.191 NA
HETATM    2  C1  UNL     1      80.012   7.987  35.361  1.00  0.00     0.099 C
HETATM    3  C2  UNL     1      79.992   6.807  34.528  1.00  0.00     0.045 A
HETATM    4  C3  UNL     1      80.725   5.673  34.873  1.00  0.00     0.022 A
HETATM    5  C4  UNL     1      80.711   4.542  34.083  1.00  0.00     0.002 A
HETATM    6  C5  UNL     1      79.968   4.497  32.919  1.00  0.00     0.009 A
HETATM    7  C6  UNL     1      79.240   5.601  32.561  1.00  0.00    -0.039 A
HETATM    8  C12 UNL     1      79.265   6.728  33.365  1.00  0.00     0.031 A
ENDROOT
BRANCH   7   9
HETATM    9  C7  UNL     1      78.415   5.616  31.316  1.00  0.00     0.160 C
BRANCH   9  10
HETATM   10  N2  UNL     1      79.261   5.892  30.198  1.00  0.00    -0.371 N
ATOM     11  H2  UNL     1      80.221   6.184  30.379  1.00  0.00     0.161 HD
BRANCH  10  12
HETATM   12  C8  UNL     1      78.875   5.792  28.971  1.00  0.00     0.118 A
HETATM   13  C9  UNL     1      78.713   6.848  28.098  1.00  0.00     0.083 A
HETATM   14  C10 UNL     1      78.285   6.358  26.860  1.00  0.00     0.089 A
HETATM   15  N3  UNL     1      78.205   5.026  27.034  1.00  0.00    -0.296 N
HETATM   16  N4  UNL     1      78.548   4.697  28.264  1.00  0.00    -0.285 N
ATOM     17  H3  UNL     1      77.918   4.363  26.315  1.00  0.00     0.187 HD
ATOM     18  H4  UNL     1      78.563   3.744  28.627  1.00  0.00     0.188 HD
BRANCH  14  19
HETATM   19  C11 UNL     1      77.998   7.141  25.667  1.00  0.00     0.289 C
HETATM   20  O1  UNL     1      77.163   6.761  24.817  1.00  0.00    -0.300 OA
ENDBRANCH  14  19
ENDBRANCH  10  12
ENDBRANCH   9  10
ENDBRANCH   7   9
TORSDOF 4
ENDMDL