MODEL 1
REMARK VINA RESULT: -6.863205380      0.000      0.000
REMARK  2 active torsions:
REMARK  status: ('A' for Active; 'I' for Inactive)
REMARK    1  A    between atoms: C6_7  and  C7_8
REMARK    2  A    between atoms: C8_9  and  C9_10
ROOT
HETATM    1  N1  UNL     1      25.878   7.420  14.310  1.00  0.00    -0.190 NA
HETATM    2  C1  UNL     1      25.690   7.098  15.409  1.00  0.00     0.117 C
HETATM    3  C2  UNL     1      25.455   6.682  16.768  1.00  0.00     0.114 A
HETATM    4  C3  UNL     1      24.287   6.012  17.072  1.00  0.00     0.041 A
HETATM    5  C4  UNL     1      24.034   5.598  18.381  1.00  0.00     0.006 A
HETATM    6  C5  UNL     1      24.971   5.869  19.364  1.00  0.00     0.039 A
HETATM    7  C6  UNL     1      26.129   6.541  19.026  1.00  0.00     0.088 A
HETATM    8  N4  UNL     1      26.357   6.934  17.757  1.00  0.00    -0.341 N
ATOM      9  H4  UNL     1      27.221   7.428  17.534  1.00  0.00     0.167 HD
ENDROOT
BRANCH   7  10
HETATM   10  C7  UNL     1      27.097   6.819  20.052  1.00  0.00    -0.043 C
HETATM   11  C8  UNL     1      27.924   7.042  20.904  1.00  0.00    -0.057 C
BRANCH  11  12
HETATM   12  C9  UNL     1      28.925   7.300  21.897  1.00  0.00     0.051 A
HETATM   13  C10 UNL     1      29.139   6.556  23.035  1.00  0.00     0.129 A
HETATM   14  N2  UNL     1      30.175   7.114  23.724  1.00  0.00    -0.311 N
HETATM   15  N3  UNL     1      30.612   8.169  23.065  1.00  0.00    -0.311 N
ATOM     16  H2  UNL     1      30.552   6.770  24.607  1.00  0.00     0.186 HD
HETATM   17  C11 UNL     1      29.870   8.302  21.954  1.00  0.00     0.129 A
ATOM     18  H3  UNL     1      31.379   8.779  23.349  1.00  0.00     0.186 HD
ENDBRANCH  11  12
ENDBRANCH   7  10
TORSDOF 2
ENDMDL