MODEL 2
REMARK VINA RESULT: -6.076725933      0.122      1.317
REMARK  3 active torsions:
REMARK  status: ('A' for Active; 'I' for Inactive)
REMARK    1  A    between atoms: O1_1  and  C1_3
REMARK    2  A    between atoms: C3_6  and  N1_7
REMARK    3  A    between atoms: N1_7  and  C4_9
ROOT
HETATM    1  C1  UNL     1      24.284   5.684  16.859  1.00  0.00     0.148 A
HETATM    2  C2  UNL     1      23.643   6.889  16.783  1.00  0.00     0.109 A
HETATM    3  S1  UNL     1      23.806   7.271  15.128  1.00  0.00    -0.061 SA
HETATM    4  C3  UNL     1      24.671   5.886  14.638  1.00  0.00     0.151 A
HETATM    5  N2  UNL     1      24.797   5.190  15.771  1.00  0.00    -0.317 N
ATOM      6  H2  UNL     1      25.283   4.293  15.782  1.00  0.00     0.170 HD
ENDROOT
BRANCH   4   7
HETATM    7  N1  UNL     1      25.119   5.551  13.448  1.00  0.00    -0.337 N
ATOM      8  H1  UNL     1      26.121   5.467  13.278  1.00  0.00     0.168 HD
BRANCH   7   9
HETATM    9  C4  UNL     1      24.190   5.306  12.400  1.00  0.00     0.034 A
HETATM   10  C5  UNL     1      23.358   4.227  12.370  1.00  0.00     0.029 A
HETATM   11  C6  UNL     1      22.478   4.046  11.324  1.00  0.00     0.002 A
HETATM   12  C7  UNL     1      22.405   4.948  10.265  1.00  0.00     0.000 A
HETATM   13  C8  UNL     1      23.255   6.047  10.295  1.00  0.00     0.002 A
HETATM   14  C9  UNL     1      24.122   6.201  11.354  1.00  0.00     0.029 A
ENDBRANCH   7   9
ENDBRANCH   4   7
BRANCH   1  15
HETATM   15  O1  UNL     1      24.366   5.019  18.114  1.00  0.00    -0.346 OA
ATOM     16  H1  UNL     1      23.849   4.234  18.259  1.00  0.00     0.219 HD
ENDBRANCH   1  15
TORSDOF 3
ENDMDL