MODEL 4
REMARK VINA RESULT: -5.490945582      1.637      6.976
REMARK  4 active torsions:
REMARK  status: ('A' for Active; 'I' for Inactive)
REMARK    1  A    between atoms: C2_2  and  C3_3
REMARK    2  A    between atoms: C5_9  and  C6_10
REMARK    3  A    between atoms: C6_10  and  C7_11
REMARK    4  A    between atoms: C7_11  and  C8_12
ROOT
HETATM    1  C6  UNL     1      28.503   7.196  21.521  1.00  0.00    -0.058 C
ENDROOT
BRANCH   1   2
HETATM    2  C5  UNL     1      29.493   7.709  22.421  1.00  0.00     0.059 A
HETATM    3  C3  UNL     1      29.715   7.307  23.742  1.00  0.00     0.045 A
HETATM    4  N1  UNL     1      30.738   8.027  24.236  1.00  0.00    -0.304 N
HETATM    5  N2  UNL     1      31.179   8.865  23.305  1.00  0.00    -0.310 N
ATOM      6  H1  UNL     1      31.117   7.942  25.180  1.00  0.00     0.186 HD
HETATM    7  C4  UNL     1      30.435   8.688  22.192  1.00  0.00     0.129 A
ATOM      8  H2  UNL     1      31.948   9.527  23.411  1.00  0.00     0.186 HD
BRANCH   3   9
HETATM    9  C2  UNL     1      28.895   6.252  24.398  1.00  0.00     0.056 C
HETATM   10  C1  UNL     1      29.684   4.972  24.462  1.00  0.00     0.011 C
ENDBRANCH   3   9
ENDBRANCH   1   2
BRANCH   1  11
HETATM   11  C7  UNL     1      27.655   6.785  20.771  1.00  0.00    -0.059 C
BRANCH  11  12
HETATM   12  C8  UNL     1      26.618   6.320  19.878  1.00  0.00     0.048 A
HETATM   13  C9  UNL     1      26.639   6.663  18.532  1.00  0.00     0.111 A
HETATM   14  N3  UNL     1      25.677   6.225  17.719  1.00  0.00    -0.361 N
HETATM   15  C10 UNL     1      24.674   5.450  18.167  1.00  0.00     0.180 A
ATOM     16  H3  UNL     1      25.703   6.483  16.733  1.00  0.00     0.166 HD
HETATM   17  N4  UNL     1      24.667   5.127  19.472  1.00  0.00    -0.361 N
HETATM   18  C11 UNL     1      25.608   5.536  20.351  1.00  0.00     0.111 A
ATOM     19  H4  UNL     1      23.909   4.539  19.818  1.00  0.00     0.166 HD
ENDBRANCH  11  12
ENDBRANCH   1  11
TORSDOF 4
ENDMDL