MODEL 4
REMARK VINA RESULT: -6.344965137      1.741      6.119
REMARK  2 active torsions:
REMARK  status: ('A' for Active; 'I' for Inactive)
REMARK    1  A    between atoms: C3_5  and  N2_6
REMARK    2  A    between atoms: N2_6  and  C4_8
ROOT
HETATM    1  N2  UNL     1      23.709   6.737  16.402  1.00  0.00    -0.195 N
ATOM      2  H2  UNL     1      23.469   7.725  16.480  1.00  0.00     0.180 HD
ENDROOT
BRANCH   1   3
HETATM    3  C3  UNL     1      23.944   6.187  15.260  1.00  0.00     0.679 A
HETATM    4  N1  UNL     1      25.170   5.935  14.778  1.00  0.00    -0.202 N
HETATM    5  C2  UNL     1      25.356   5.359  13.577  1.00  0.00     0.107 A
ATOM      6  H1  UNL     1      25.984   6.188  15.338  1.00  0.00     0.183 HD
HETATM    7  C1  UNL     1      24.248   5.021  12.831  1.00  0.00     0.035 A
HETATM    8  C11 UNL     1      22.979   5.271  13.306  1.00  0.00     0.107 A
HETATM    9  N3  UNL     1      22.876   5.850  14.517  1.00  0.00    -0.202 N
ATOM     10  H3  UNL     1      21.945   6.042  14.888  1.00  0.00     0.183 HD
ENDBRANCH   1   3
BRANCH   1  11
HETATM   11  C4  UNL     1      23.801   5.883  17.573  1.00  0.00     0.281 A
HETATM   12  O1  UNL     1      24.734   4.857  17.505  1.00  0.00    -0.320 OA
HETATM   13  C5  UNL     1      25.531   5.471  18.468  1.00  0.00     0.082 A
HETATM   14  C6  UNL     1      26.684   5.479  19.256  1.00  0.00     0.037 A
HETATM   15  C10 UNL     1      24.656   6.514  18.586  1.00  0.00     0.024 A
HETATM   16  C7  UNL     1      26.977   6.488  20.145  1.00  0.00     0.003 A
HETATM   17  C8  UNL     1      26.065   7.524  20.233  1.00  0.00     0.001 A
HETATM   18  C9  UNL     1      24.925   7.558  19.480  1.00  0.00     0.014 A
ENDBRANCH   1  11
TORSDOF 2
ENDMDL