MODEL 3
REMARK VINA RESULT: -6.371698942      1.866      2.013
REMARK  2 active torsions:
REMARK  status: ('A' for Active; 'I' for Inactive)
REMARK    1  A    between atoms: C2_3  and  C3_4
REMARK    2  A    between atoms: N2_12  and  O1_13
ROOT
HETATM    1  N1  UNL     1      28.725   8.193  21.401  1.00  0.00    -0.197 NA
HETATM    2  C1  UNL     1      28.113   7.367  20.885  1.00  0.00     0.063 C
HETATM    3  C2  UNL     1      27.367   6.320  20.238  1.00  0.00     0.165 C
ENDROOT
BRANCH   3   4
HETATM    4  C3  UNL     1      26.139   6.839  19.583  1.00  0.00    -0.001 A
HETATM    5  C4  UNL     1      26.157   7.761  18.558  1.00  0.00     0.025 A
HETATM    6  C5  UNL     1      24.957   8.182  18.014  1.00  0.00    -0.006 A
HETATM    7  C6  UNL     1      24.958   9.104  16.987  1.00  0.00     0.014 A
HETATM    8  C10 UNL     1      23.734   7.719  18.453  1.00  0.00     0.074 A
HETATM    9  C7  UNL     1      23.769   9.533  16.435  1.00  0.00     0.001 A
HETATM   10  C8  UNL     1      22.542   9.077  16.867  1.00  0.00     0.002 A
HETATM   11  C9  UNL     1      22.537   8.155  17.893  1.00  0.00     0.033 A
HETATM   12  N2  UNL     1      23.748   6.818  19.458  1.00  0.00    -0.210 N
HETATM   13  C11 UNL     1      24.901   6.392  20.004  1.00  0.00     0.151 A
HETATM   14  N3  UNL     1      24.852   5.446  21.055  1.00  0.00    -0.080 NA
BRANCH  12  15
HETATM   15  O1  UNL     1      22.512   6.366  19.885  1.00  0.00    -0.281 OA
ATOM     16  H1  UNL     1      22.153   6.797  20.651  1.00  0.00     0.245 HD
ENDBRANCH  12  15
ENDBRANCH   3   4
TORSDOF 2
ENDMDL