MODEL 3
REMARK VINA RESULT: -5.501018789      2.339      5.676
REMARK  2 active torsions:
REMARK  status: ('A' for Active; 'I' for Inactive)
REMARK    1  A    between atoms: N1_2  and  C2_4
REMARK    2  A    between atoms: C3_7  and  C4_8
ROOT
HETATM    1  C2  UNL     1      26.610   6.046  19.911  1.00  0.00     0.144 A
HETATM    2  N2  UNL     1      26.541   6.469  18.655  1.00  0.00    -0.336 N
ATOM      3  H2  UNL     1      27.331   6.949  18.224  1.00  0.00     0.168 HD
HETATM    4  C3  UNL     1      25.445   6.259  17.984  1.00  0.00     0.052 A
HETATM    5  C9  UNL     1      24.417   5.606  18.624  1.00  0.00     0.083 A
HETATM    6  S1  UNL     1      25.099   5.328  20.178  1.00  0.00    -0.064 SA
ENDROOT
BRANCH   4   7
HETATM    7  C4  UNL     1      25.254   6.692  16.565  1.00  0.00     0.006 A
HETATM    8  C5  UNL     1      26.017   7.685  15.996  1.00  0.00     0.016 A
HETATM    9  C6  UNL     1      25.832   8.072  14.693  1.00  0.00     0.018 A
HETATM   10  C7  UNL     1      24.864   7.449  13.949  1.00  0.00     0.087 A
HETATM   11  N3  UNL     1      24.110   6.479  14.480  1.00  0.00    -0.374 N
HETATM   12  C8  UNL     1      24.306   6.116  15.756  1.00  0.00     0.101 A
ATOM     13  H3  UNL     1      23.392   6.021  13.918  1.00  0.00     0.164 HD
ENDBRANCH   4   7
BRANCH   1  14
HETATM   14  N1  UNL     1      27.604   6.164  20.721  1.00  0.00    -0.375 N
HETATM   15  C1  UNL     1      28.118   7.444  21.141  1.00  0.00     0.148 C
ATOM     16  H1  UNL     1      28.046   5.317  21.080  1.00  0.00     0.161 HD
ENDBRANCH   1  14
TORSDOF 2
ENDMDL