MODEL 5
REMARK VINA RESULT: -5.852047002      5.632      9.561
REMARK  3 active torsions:
REMARK  status: ('A' for Active; 'I' for Inactive)
REMARK    1  A    between atoms: C2_2  and  C3_3
REMARK    2  A    between atoms: C2_2  and  N1_11
REMARK    3  A    between atoms: C4_4  and  C5_5
ROOT
HETATM    1  C1  UNL     1      25.777   7.713  18.053  1.00  0.00     0.048 C
HETATM    2  C2  UNL     1      25.994   6.514  18.950  1.00  0.00     0.184 C
ENDROOT
BRANCH   2   3
HETATM    3  C3  UNL     1      26.955   6.813  20.006  1.00  0.00    -0.074 C
HETATM    4  C4  UNL     1      27.739   7.058  20.899  1.00  0.00    -0.065 C
BRANCH   4   5
HETATM    5  C5  UNL     1      28.656   7.342  21.979  1.00  0.00     0.017 A
HETATM    6  C6  UNL     1      29.633   8.264  21.783  1.00  0.00     0.020 A
HETATM    7  C7  UNL     1      30.523   8.553  22.802  1.00  0.00     0.001 A
HETATM    8  C8  UNL     1      30.418   7.902  24.024  1.00  0.00     0.000 A
HETATM    9  C9  UNL     1      29.432   6.962  24.243  1.00  0.00     0.001 A
HETATM   10  C10 UNL     1      28.567   6.705  23.199  1.00  0.00     0.020 A
ENDBRANCH   4   5
ENDBRANCH   2   3
BRANCH   2  11
HETATM   11  N1  UNL     1      24.777   6.063  19.576  1.00  0.00    -0.271 N
HETATM   12  C11 UNL     1      24.498   4.977  20.288  1.00  0.00     0.202 A
HETATM   13  N2  UNL     1      23.211   5.021  20.648  1.00  0.00    -0.346 N
HETATM   14  C12 UNL     1      22.663   6.151  20.159  1.00  0.00     0.198 A
ATOM     15  H2  UNL     1      22.724   4.315  21.201  1.00  0.00     0.167 HD
HETATM   16  N3  UNL     1      23.640   6.774  19.505  1.00  0.00    -0.292 N
ATOM     17  H3  UNL     1      23.540   7.665  19.019  1.00  0.00     0.188 HD
ENDBRANCH   2  11
TORSDOF 3
ENDMDL