MODEL 5
REMARK VINA RESULT: -6.203016128      1.787      6.548
REMARK  2 active torsions:
REMARK  status: ('A' for Active; 'I' for Inactive)
REMARK    1  A    between atoms: N2_3  and  C2_5
REMARK    2  A    between atoms: C5_8  and  C6_9
ROOT
HETATM    1  N1  UNL     1      24.422   7.367  11.464  1.00  0.00    -0.172 NA
HETATM    2  C1  UNL     1      23.947   6.963  12.449  1.00  0.00     0.183 C
HETATM    3  N2  UNL     1      23.387   6.474  13.645  1.00  0.00    -0.279 N
ATOM      4  H2  UNL     1      22.454   6.062  13.623  1.00  0.00     0.179 HD
ENDROOT
BRANCH   3   5
HETATM    5  C2  UNL     1      24.016   6.532  14.764  1.00  0.00     0.113 A
HETATM    6  C3  UNL     1      25.049   7.398  15.021  1.00  0.00     0.050 A
HETATM    7  C4  UNL     1      25.706   7.440  16.228  1.00  0.00     0.017 A
HETATM    8  C5  UNL     1      25.315   6.579  17.220  1.00  0.00    -0.009 A
HETATM    9  C11 UNL     1      24.269   5.705  16.952  1.00  0.00     0.102 A
HETATM   10  N4  UNL     1      23.651   5.694  15.758  1.00  0.00    -0.351 N
ATOM     11  H4  UNL     1      22.887   5.036  15.600  1.00  0.00     0.166 HD
BRANCH   8  12
HETATM   12  C6  UNL     1      25.976   6.578  18.516  1.00  0.00    -0.009 A
HETATM   13  C7  UNL     1      26.238   7.781  19.128  1.00  0.00     0.015 A
HETATM   14  C8  UNL     1      26.865   7.771  20.361  1.00  0.00     0.018 A
HETATM   15  C9  UNL     1      27.211   6.576  20.942  1.00  0.00     0.087 A
HETATM   16  N3  UNL     1      26.957   5.404  20.346  1.00  0.00    -0.374 N
HETATM   17  C10 UNL     1      26.338   5.400  19.133  1.00  0.00     0.100 A
ATOM     18  H3  UNL     1      27.223   4.527  20.794  1.00  0.00     0.164 HD
ENDBRANCH   8  12
ENDBRANCH   3   5
TORSDOF 2
ENDMDL