MODEL 2
REMARK VINA RESULT: -6.673569312      1.610      2.510
REMARK  3 active torsions:
REMARK  status: ('A' for Active; 'I' for Inactive)
REMARK    1  A    between atoms: O1_2  and  C2_3
REMARK    2  A    between atoms: C6_7  and  C7_8
REMARK    3  A    between atoms: C8_9  and  C9_10
ROOT
HETATM    1  C7  UNL     1      26.624   7.497  19.983  1.00  0.00    -0.058 C
HETATM    2  C8  UNL     1      27.572   7.506  20.736  1.00  0.00    -0.023 C
ENDROOT
BRANCH   1   3
HETATM    3  C6  UNL     1      25.509   7.503  19.083  1.00  0.00     0.020 A
HETATM    4  C5  UNL     1      25.598   7.927  17.781  1.00  0.00     0.021 A
HETATM    5  C4  UNL     1      24.520   7.931  16.915  1.00  0.00     0.004 A
HETATM    6  C3  UNL     1      23.329   7.485  17.416  1.00  0.00     0.037 A
HETATM    7  C2  UNL     1      23.199   7.050  18.719  1.00  0.00     0.069 A
HETATM    8  C11 UNL     1      24.299   7.062  19.554  1.00  0.00     0.057 A
BRANCH   7   9
HETATM    9  O1  UNL     1      21.980   6.607  19.188  1.00  0.00    -0.356 OA
HETATM   10  C1  UNL     1      21.883   6.091  20.481  1.00  0.00     0.210 C
ENDBRANCH   7   9
ENDBRANCH   1   3
BRANCH   2  11
HETATM   11  C9  UNL     1      28.688   7.521  21.654  1.00  0.00     0.177 A
HETATM   12  N1  UNL     1      29.533   8.537  21.855  1.00  0.00    -0.329 N
HETATM   13  C10 UNL     1      30.435   8.168  22.783  1.00  0.00     0.199 A
ATOM     14  H1  UNL     1      29.500   9.441  21.382  1.00  0.00     0.168 HD
HETATM   15  N2  UNL     1      30.158   6.918  23.172  1.00  0.00    -0.294 N
HETATM   16  N3  UNL     1      29.093   6.536  22.477  1.00  0.00    -0.277 N
ATOM     17  H2  UNL     1      30.665   6.367  23.864  1.00  0.00     0.187 HD
ATOM     18  H3  UNL     1      28.645   5.623  22.555  1.00  0.00     0.189 HD
ENDBRANCH   2  11
TORSDOF 3
ENDMDL