MODEL 5
REMARK VINA RESULT: -7.740436526      3.112      6.376
REMARK  1 active torsions:
REMARK  status: ('A' for Active; 'I' for Inactive)
REMARK    1  A    between atoms: C4_7  and  C5_8
ROOT
HETATM    1  C5  UNL     1      -5.458  35.875 -13.961  1.00  0.00    -0.048 C
HETATM    2  C6  UNL     1      -4.655  34.881 -13.662  1.00  0.00    -0.007 C
HETATM    3  C7  UNL     1      -4.133  33.970 -14.751  1.00  0.00     0.003 A
HETATM    4  C8  UNL     1      -3.589  34.861 -15.836  1.00  0.00     0.015 C
HETATM    5  C9  UNL     1      -4.559  35.891 -16.296  1.00  0.00     0.006 C
HETATM    6  C10 UNL     1      -5.800  35.958 -15.416  1.00  0.00     0.039 C
HETATM    7  C11 UNL     1      -2.962  33.156 -14.242  1.00  0.00     0.042 A
HETATM    8  C12 UNL     1      -3.315  31.728 -14.451  1.00  0.00     0.233 A
HETATM    9  N2  UNL     1      -4.607  31.657 -15.058  1.00  0.00    -0.074 N
ATOM     10  H21 UNL     1      -5.239  31.040 -14.548  1.00  0.00     0.277 HD
ATOM     11  H22 UNL     1      -4.590  31.151 -15.943  1.00  0.00     0.277 HD
HETATM   12  C13 UNL     1      -5.134  32.968 -15.201  1.00  0.00     0.245 A
ENDROOT
BRANCH   1  13
HETATM   13  C4  UNL     1      -6.036  36.832 -12.978  1.00  0.00     0.000 A
HETATM   14  C2  UNL     1      -7.043  37.728 -13.135  1.00  0.00     0.023 A
HETATM   15  C1  UNL     1      -7.764  38.059 -14.441  1.00  0.00     0.069 C
HETATM   16  N1  UNL     1      -7.426  38.427 -12.055  1.00  0.00    -0.330 N
HETATM   17  S1  UNL     1      -6.456  37.909 -10.821  1.00  0.00    -0.026 SA
ATOM     18  H1  UNL     1      -8.163  39.131 -12.006  1.00  0.00     0.174 HD
HETATM   19  C3  UNL     1      -5.531  36.769 -11.682  1.00  0.00     0.082 A
ENDBRANCH   1  13
TORSDOF 1
ENDMDL