MODEL 2
REMARK VINA RESULT: -8.245971126      1.346      1.827
REMARK  2 active torsions:
REMARK  status: ('A' for Active; 'I' for Inactive)
REMARK    1  A    between atoms: C4_4  and  C5_5
REMARK    2  A    between atoms: C5_5  and  C6_6
ROOT
HETATM    1  C6  UNL     1      -6.551  39.130  -8.634  1.00  0.00     0.098 C
HETATM    2  C7  UNL     1      -7.890  39.164  -9.263  1.00  0.00     0.015 C
HETATM    3  C8  UNL     1      -8.487  38.162  -8.658  1.00  0.00    -0.073 C
HETATM    4  C9  UNL     1      -9.167  37.026  -7.975  1.00  0.00     0.035 C
HETATM    5  C10 UNL     1      -8.518  37.009  -6.553  1.00  0.00     0.011 C
HETATM    6  C11 UNL     1      -7.607  38.141  -6.640  1.00  0.00     0.023 C
HETATM    7  C12 UNL     1      -6.435  38.329  -5.801  1.00  0.00     0.171 C
HETATM    8  C13 UNL     1      -6.705  38.429  -4.366  1.00  0.00     0.072 C
HETATM    9  N1  UNL     1      -6.906  38.506  -3.249  1.00  0.00    -0.196 NA
HETATM   10  C14 UNL     1      -5.868  39.644  -6.314  1.00  0.00     0.131 C
HETATM   11  N2  UNL     1      -5.042  40.348  -5.673  1.00  0.00    -0.382 N
ATOM     12  H21 UNL     1      -4.662  41.229  -6.017  1.00  0.00     0.158 HD
ATOM     13  H22 UNL     1      -4.715  40.046  -4.755  1.00  0.00     0.158 HD
HETATM   14  O1  UNL     1      -6.314  40.056  -7.565  1.00  0.00    -0.322 OA
HETATM   15  C15 UNL     1      -7.079  37.921  -8.066  1.00  0.00     0.059 C
ENDROOT
BRANCH   1  16
HETATM   16  C5  UNL     1      -5.376  39.094  -9.550  1.00  0.00     0.071 C
BRANCH  16  17
HETATM   17  C4  UNL     1      -5.072  37.783 -10.121  1.00  0.00    -0.021 C
HETATM   18  C2  UNL     1      -5.466  37.465 -11.344  1.00  0.00    -0.091 C
HETATM   19  C1  UNL     1      -6.230  38.450 -12.157  1.00  0.00     0.042 C
HETATM   20  C3  UNL     1      -5.167  36.134 -11.946  1.00  0.00     0.042 C
ENDBRANCH  16  17
ENDBRANCH   1  16
TORSDOF 2
ENDMDL