MODEL 1
REMARK VINA RESULT: -8.165711000      0.000      0.000
REMARK  2 active torsions:
REMARK  status: ('A' for Active; 'I' for Inactive)
REMARK    1  A    between atoms: C2_2  and  C3_3
REMARK    2  A    between atoms: C13_14  and  N1_15
ROOT
HETATM    1  C3  UNL     1      -5.821  37.452 -10.835  1.00  0.00    -0.083 C
HETATM    2  C4  UNL     1      -5.929  38.741 -10.544  1.00  0.00    -0.013 C
HETATM    3  C5  UNL     1      -5.739  39.389  -9.216  1.00  0.00     0.087 C
HETATM    4  C6  UNL     1      -4.962  38.540  -8.258  1.00  0.00     0.022 C
HETATM    5  C7  UNL     1      -5.882  37.504  -7.654  1.00  0.00     0.021 C
HETATM    6  C8  UNL     1      -6.346  36.465  -8.619  1.00  0.00     0.012 C
HETATM    7  C9  UNL     1      -5.478  36.373  -9.858  1.00  0.00     0.034 C
HETATM    8  C10 UNL     1      -6.972  38.225  -6.933  1.00  0.00     0.061 C
HETATM    9  C11 UNL     1      -6.419  38.536  -5.529  1.00  0.00     0.046 C
HETATM   10  C12 UNL     1      -8.179  37.329  -6.657  1.00  0.00     0.046 C
HETATM   11  O1  UNL     1      -7.395  39.391  -7.441  1.00  0.00    -0.332 OA
HETATM   12  C13 UNL     1      -7.058  39.809  -8.660  1.00  0.00     0.321 C
HETATM   13  C14 UNL     1      -7.063  41.298  -8.640  1.00  0.00     0.129 C
HETATM   14  N2  UNL     1      -7.050  42.455  -8.609  1.00  0.00    -0.192 NA
ENDROOT
BRANCH  12  15
HETATM   15  N1  UNL     1      -8.152  39.476  -9.592  1.00  0.00    -0.032 N
ATOM     16  H13 UNL     1      -8.513  40.307 -10.061  1.00  0.00     0.279 HD
ATOM     17  H12 UNL     1      -7.810  38.972 -10.410  1.00  0.00     0.279 HD
ATOM     18  H11 UNL     1      -8.892  38.961  -9.115  1.00  0.00     0.279 HD
ENDBRANCH  12  15
BRANCH   1  19
HETATM   19  C2  UNL     1      -6.056  37.028 -12.244  1.00  0.00     0.029 C
HETATM   20  C1  UNL     1      -6.993  37.946 -12.966  1.00  0.00     0.010 C
ENDBRANCH   1  19
TORSDOF 2
ENDMDL