MODEL 4
REMARK VINA RESULT: -6.178975980      2.347      3.592
REMARK  3 active torsions:
REMARK  status: ('A' for Active; 'I' for Inactive)
REMARK    1  A    between atoms: C2_2  and  O1_4
REMARK    2  A    between atoms: C2_2  and  C4_6
REMARK    3  A    between atoms: C12_15  and  N1_16
ROOT
HETATM    1  C4  UNL     1      -4.678  37.595  -4.968  1.00  0.00     0.017 C
HETATM    2  C5  UNL     1      -5.934  37.946  -5.090  1.00  0.00    -0.051 C
HETATM    3  C6  UNL     1      -6.733  38.043  -3.853  1.00  0.00     0.049 C
HETATM    4  C7  UNL     1      -8.207  37.983  -3.993  1.00  0.00     0.083 C
HETATM    5  S1  UNL     1      -8.774  37.284  -5.564  1.00  0.00    -0.133 SA
HETATM    6  C8  UNL     1      -7.695  37.983  -6.793  1.00  0.00    -0.013 C
HETATM    7  C9  UNL     1      -6.449  38.221  -6.419  1.00  0.00    -0.039 C
HETATM    8  C10 UNL     1      -5.582  38.817  -7.498  1.00  0.00     0.042 C
HETATM    9  C11 UNL     1      -5.680  37.866  -8.672  1.00  0.00     0.037 C
HETATM   10  C12 UNL     1      -7.094  37.677  -9.134  1.00  0.00     0.188 C
HETATM   11  C13 UNL     1      -8.100  38.307  -8.163  1.00  0.00     0.079 C
ENDROOT
BRANCH   1  12
HETATM   12  C2  UNL     1      -3.934  37.277  -3.741  1.00  0.00     0.069 C
HETATM   13  C1  UNL     1      -4.737  36.804  -2.598  1.00  0.00     0.050 C
HETATM   14  C3  UNL     1      -2.854  36.219  -4.037  1.00  0.00     0.050 C
BRANCH  12  15
HETATM   15  O1  UNL     1      -3.213  38.415  -3.364  1.00  0.00    -0.387 OA
ATOM     16  H1  UNL     1      -2.698  38.222  -2.590  1.00  0.00     0.211 HD
ENDBRANCH  12  15
ENDBRANCH   1  12
BRANCH  10  17
HETATM   17  N1  UNL     1      -7.305  38.229 -10.471  1.00  0.00    -0.075 N
ATOM     18  H13 UNL     1      -6.869  39.146 -10.568  1.00  0.00     0.274 HD
ATOM     19  H12 UNL     1      -6.766  37.721 -11.173  1.00  0.00     0.274 HD
ATOM     20  H11 UNL     1      -8.295  38.261 -10.715  1.00  0.00     0.274 HD
ENDBRANCH  10  17
TORSDOF 3
ENDMDL