MODEL 4
REMARK VINA RESULT: -5.303228105      1.955      4.135
REMARK  4 active torsions:
REMARK  status: ('A' for Active; 'I' for Inactive)
REMARK    1  A    between atoms: O1_2  and  C2_3
REMARK    2  A    between atoms: C2_3  and  O2_4
REMARK    3  A    between atoms: C2_3  and  C3_6
REMARK    4  A    between atoms: C4_7  and  C5_8
ROOT
HETATM    1  C3  UNL     1      -7.228  37.896  -3.810  1.00  0.00     0.011 C
HETATM    2  C4  UNL     1      -6.592  38.512  -4.763  1.00  0.00    -0.055 C
HETATM    3  C9  UNL     1      -5.234  39.183  -4.360  1.00  0.00     0.087 C
HETATM    4  C10 UNL     1      -4.495  38.323  -3.437  1.00  0.00    -0.015 C
HETATM    5  N1  UNL     1      -3.237  38.402  -3.374  1.00  0.00    -0.405 N
ATOM      6  H11 UNL     1      -2.721  37.802  -2.730  1.00  0.00     0.155 HD
ATOM      7  H12 UNL     1      -2.749  39.070  -3.972  1.00  0.00     0.155 HD
HETATM    8  C11 UNL     1      -5.206  37.349  -2.565  1.00  0.00     0.066 C
HETATM    9  C12 UNL     1      -6.603  37.945  -2.404  1.00  0.00    -0.011 C
HETATM   10  C13 UNL     1      -6.546  39.349  -1.884  1.00  0.00     0.020 C
HETATM   11  C14 UNL     1      -7.278  37.115  -1.390  1.00  0.00     0.020 C
ENDROOT
BRANCH   1  12
HETATM   12  C2  UNL     1      -8.449  37.217  -4.015  1.00  0.00     0.185 C
BRANCH  12  13
HETATM   13  O1  UNL     1      -8.799  35.958  -4.360  1.00  0.00    -0.335 OA
HETATM   14  C1  UNL     1      -9.181  34.914  -3.483  1.00  0.00     0.212 C
ENDBRANCH  12  13
BRANCH  12  15
HETATM   15  O2  UNL     1      -9.539  37.922  -3.844  1.00  0.00    -0.341 OA
ATOM     16  H2  UNL     1      -9.413  38.777  -4.239  1.00  0.00     0.220 HD
ENDBRANCH  12  15
ENDBRANCH   1  12
BRANCH   2  17
HETATM   17  C5  UNL     1      -6.841  38.706  -6.137  1.00  0.00    -0.027 C
HETATM   18  C6  UNL     1      -5.745  37.879  -6.893  1.00  0.00     0.019 C
HETATM   19  C7  UNL     1      -6.368  40.209  -6.435  1.00  0.00     0.019 C
HETATM   20  C8  UNL     1      -8.007  38.582  -6.979  1.00  0.00     0.019 C
ENDBRANCH   2  17
TORSDOF 4
ENDMDL