MODEL 4
REMARK VINA RESULT: -5.502081436      2.501      4.707
REMARK  2 active torsions:
REMARK  status: ('A' for Active; 'I' for Inactive)
REMARK    1  A    between atoms: C10_11  and  C11_12
REMARK    2  A    between atoms: C11_12  and  N1_13
ROOT
HETATM    1  C1  UNL     1      -3.063  36.684  -4.176  1.00  0.00     0.046 C
HETATM    2  C2  UNL     1      -4.341  37.358  -3.899  1.00  0.00    -0.059 C
HETATM    3  C3  UNL     1      -4.498  37.820  -2.680  1.00  0.00    -0.022 C
HETATM    4  C4  UNL     1      -5.711  38.547  -2.147  1.00  0.00     0.030 C
HETATM    5  C5  UNL     1      -6.932  37.979  -2.782  1.00  0.00     0.036 C
HETATM    6  C6  UNL     1      -7.170  38.493  -4.179  1.00  0.00     0.126 C
HETATM    7  O1  UNL     1      -6.002  38.609  -4.884  1.00  0.00    -0.376 OA
HETATM    8  C7  UNL     1      -5.292  37.432  -5.023  1.00  0.00     0.150 C
HETATM    9  C8  UNL     1      -4.614  37.459  -6.369  1.00  0.00     0.037 C
HETATM   10  C9  UNL     1      -5.431  38.337  -7.288  1.00  0.00     0.009 C
HETATM   11  C10 UNL     1      -6.835  37.781  -7.496  1.00  0.00     0.011 C
HETATM   12  C12 UNL     1      -7.889  38.775  -7.175  1.00  0.00     0.007 C
HETATM   13  C13 UNL     1      -8.810  38.447  -6.068  1.00  0.00     0.007 C
HETATM   14  C14 UNL     1      -8.233  37.723  -4.906  1.00  0.00     0.011 C
HETATM   15  C15 UNL     1      -9.377  37.512  -3.897  1.00  0.00     0.012 C
ENDROOT
BRANCH  11  16
HETATM   16  C11 UNL     1      -6.935  37.462  -8.987  1.00  0.00     0.234 C
BRANCH  16  17
HETATM   17  N1  UNL     1      -7.737  38.497  -9.587  1.00  0.00    -0.079 N
ATOM     18  H13 UNL     1      -8.661  38.172  -9.874  1.00  0.00     0.274 HD
ATOM     19  H12 UNL     1      -8.048  39.201  -8.918  1.00  0.00     0.274 HD
ATOM     20  H11 UNL     1      -7.194  38.887 -10.357  1.00  0.00     0.274 HD
ENDBRANCH  16  17
ENDBRANCH  11  16
TORSDOF 2
ENDMDL