MODEL 2
REMARK VINA RESULT: -6.672262514      1.338      2.048
REMARK  1 active torsions:
REMARK  status: ('A' for Active; 'I' for Inactive)
REMARK    1  A    between atoms: N3_9  and  C4_10
ROOT
HETATM    1  C1  UNL     1      -5.063  40.003  -4.544  1.00  0.00     0.091 C
HETATM    2  C2  UNL     1      -6.147  39.114  -4.105  1.00  0.00     0.097 A
HETATM    3  N1  UNL     1      -6.484  38.848  -2.803  1.00  0.00    -0.287 N
ATOM      4  H1  UNL     1      -6.005  39.236  -1.991  1.00  0.00     0.188 HD
HETATM    5  N2  UNL     1      -7.505  38.028  -2.743  1.00  0.00    -0.275 N
ATOM      6  H2  UNL     1      -7.952  37.673  -1.897  1.00  0.00     0.189 HD
HETATM    7  C3  UNL     1      -7.847  37.749  -4.006  1.00  0.00     0.195 A
HETATM    8  S1  UNL     1      -9.094  36.769  -4.358  1.00  0.00    -0.039 SA
HETATM    9  N3  UNL     1      -7.010  38.418  -4.860  1.00  0.00    -0.302 N
ENDROOT
BRANCH   9  10
HETATM   10  C4  UNL     1      -7.148  38.299  -6.274  1.00  0.00     0.038 C
HETATM   11  C5  UNL     1      -7.795  39.580  -6.809  1.00  0.00     0.039 C
HETATM   12  C6  UNL     1      -8.059  37.195  -6.745  1.00  0.00     0.031 C
HETATM   13  C7  UNL     1      -8.308  37.232  -8.241  1.00  0.00     0.008 C
HETATM   14  C8  UNL     1      -7.113  37.573  -9.030  1.00  0.00    -0.005 A
HETATM   15  C9  UNL     1      -6.023  36.564  -9.069  1.00  0.00     0.015 A
HETATM   16  C10 UNL     1      -5.874  37.910  -8.401  1.00  0.00    -0.038 A
HETATM   17  C11 UNL     1      -4.927  38.839  -9.169  1.00  0.00     0.015 C
HETATM   18  C12 UNL     1      -5.808  38.042  -6.926  1.00  0.00     0.040 C
ENDBRANCH   9  10
TORSDOF 1
ENDMDL