MODEL 4
REMARK VINA RESULT: -6.523255226      3.076      4.913
REMARK  1 active torsions:
REMARK  status: ('A' for Active; 'I' for Inactive)
REMARK    1  A    between atoms: C4_8  and  C5_9
ROOT
HETATM    1  C1  UNL     1      -5.093  38.434  -4.541  1.00  0.00     0.069 C
HETATM    2  C2  UNL     1      -6.564  38.116  -4.864  1.00  0.00     0.020 A
HETATM    3  N1  UNL     1      -7.466  38.041  -3.942  1.00  0.00    -0.344 N
ATOM      4  H1  UNL     1      -7.245  38.289  -2.978  1.00  0.00     0.167 HD
HETATM    5  C3  UNL     1      -8.698  37.630  -4.275  1.00  0.00     0.143 A
HETATM    6  S1  UNL     1     -10.033  37.474  -3.332  1.00  0.00    -0.052 SA
HETATM    7  S2  UNL     1      -8.527  37.341  -5.974  1.00  0.00    -0.063 SA
HETATM    8  C4  UNL     1      -6.894  37.780  -6.144  1.00  0.00     0.013 A
ENDROOT
BRANCH   8   9
HETATM    9  C5  UNL     1      -6.086  38.009  -7.372  1.00  0.00     0.058 C
HETATM   10  C6  UNL     1      -6.257  36.920  -8.401  1.00  0.00     0.047 C
HETATM   11  C7  UNL     1      -6.595  37.570  -9.706  1.00  0.00     0.223 C
HETATM   12  C8  UNL     1      -5.540  37.221 -10.754  1.00  0.00     0.037 C
HETATM   13  N2  UNL     1      -6.534  38.985  -9.494  1.00  0.00     0.093 N
HETATM   14  C9  UNL     1      -4.898  38.547 -11.060  1.00  0.00     0.032 C
HETATM   15  C10 UNL     1      -5.151  39.310  -9.782  1.00  0.00     0.273 C
HETATM   16  C11 UNL     1      -6.774  39.221  -8.115  1.00  0.00     0.282 C
ENDBRANCH   8   9
TORSDOF 1
ENDMDL