MODEL 5
REMARK VINA RESULT: -7.345981687      3.603      8.033
REMARK  1 active torsions:
REMARK  status: ('A' for Active; 'I' for Inactive)
REMARK    1  A    between atoms: C6_7  and  C7_8
ROOT
HETATM    1  C1  UNL     1      -8.905  37.720  -3.503  1.00  0.00     0.000 C
HETATM    2  C2  UNL     1      -7.748  37.563  -2.528  1.00  0.00     0.000 C
HETATM    3  C3  UNL     1      -6.413  37.668  -3.182  1.00  0.00     0.001 C
HETATM    4  C4  UNL     1      -6.422  38.768  -4.217  1.00  0.00     0.017 C
HETATM    5  C5  UNL     1      -6.569  38.179  -5.582  1.00  0.00     0.076 C
HETATM    6  S1  UNL     1      -5.617  39.206  -6.787  1.00  0.00    -0.108 SA
HETATM    7  C6  UNL     1      -6.799  38.987  -8.114  1.00  0.00     0.074 C
HETATM    8  N2  UNL     1      -7.851  38.594  -7.574  1.00  0.00    -0.380 N
ATOM      9  H2  UNL     1      -8.670  38.403  -8.152  1.00  0.00     0.160 HD
HETATM   10  C11 UNL     1      -7.931  38.411  -6.192  1.00  0.00     0.096 C
HETATM   11  C12 UNL     1      -8.848  37.221  -5.966  1.00  0.00     0.026 C
HETATM   12  C13 UNL     1      -8.747  36.681  -4.564  1.00  0.00     0.002 C
ENDROOT
BRANCH   7  13
HETATM   13  C7  UNL     1      -6.538  39.234  -9.552  1.00  0.00     0.241 C
HETATM   14  C8  UNL     1      -6.890  38.016 -10.382  1.00  0.00     0.041 C
HETATM   15  C9  UNL     1      -5.575  37.412 -10.770  1.00  0.00     0.030 C
HETATM   16  C10 UNL     1      -4.654  38.609 -10.770  1.00  0.00     0.233 C
HETATM   17  N1  UNL     1      -5.155  39.539  -9.812  1.00  0.00    -0.065 N
ATOM     18  H12 UNL     1      -5.016  40.508 -10.099  1.00  0.00     0.278 HD
ATOM     19  H11 UNL     1      -4.594  39.562  -8.961  1.00  0.00     0.278 HD
ENDBRANCH   7  13
TORSDOF 1
ENDMDL