MODEL 2
REMARK VINA RESULT: -7.483578486      0.660      1.487
REMARK  2 active torsions:
REMARK  status: ('A' for Active; 'I' for Inactive)
REMARK    1  A    between atoms: C2_2  and  C5_5
REMARK    2  A    between atoms: N2_8  and  C6_9
ROOT
HETATM    1  C5  UNL     1      -5.429  35.928 -14.010  1.00  0.00     0.064 A
HETATM    2  N1  UNL     1      -5.070  35.979 -12.716  1.00  0.00    -0.298 N
ATOM      3  H1  UNL     1      -4.371  35.376 -12.284  1.00  0.00     0.187 HD
HETATM    4  N2  UNL     1      -5.752  36.925 -12.078  1.00  0.00    -0.270 N
HETATM    5  C11 UNL     1      -6.561  37.493 -12.967  1.00  0.00     0.152 A
HETATM    6  N3  UNL     1      -7.509  38.442 -13.161  1.00  0.00    -0.335 N
ATOM      7  H3  UNL     1      -7.871  39.072 -12.445  1.00  0.00     0.168 HD
HETATM    8  C12 UNL     1      -7.895  38.422 -14.450  1.00  0.00     0.182 A
HETATM    9  N4  UNL     1      -7.208  37.464 -15.106  1.00  0.00    -0.348 N
ATOM     10  H4  UNL     1      -7.292  37.221 -16.093  1.00  0.00     0.167 HD
HETATM   11  C13 UNL     1      -6.391  36.893 -14.206  1.00  0.00     0.104 A
ENDROOT
BRANCH   4  12
HETATM   12  C6  UNL     1      -5.614  37.242 -10.695  1.00  0.00     0.110 C
HETATM   13  C7  UNL     1      -6.900  37.427  -9.959  1.00  0.00     0.027 C
HETATM   14  C8  UNL     1      -6.527  38.258  -8.744  1.00  0.00     0.002 C
HETATM   15  C9  UNL     1      -5.090  38.686  -8.944  1.00  0.00     0.002 C
HETATM   16  C10 UNL     1      -4.942  38.590 -10.457  1.00  0.00     0.027 C
ENDBRANCH   4  12
BRANCH   1  17
HETATM   17  C2  UNL     1      -4.938  35.035 -15.096  1.00  0.00    -0.005 C
HETATM   18  C1  UNL     1      -4.085  35.779 -16.093  1.00  0.00     0.021 C
HETATM   19  C3  UNL     1      -6.149  34.441 -15.771  1.00  0.00     0.021 C
HETATM   20  C4  UNL     1      -4.103  33.925 -14.508  1.00  0.00     0.021 C
ENDBRANCH   1  17
TORSDOF 2
ENDMDL