MODEL 1
REMARK VINA RESULT: -6.169876065      0.000      0.000
REMARK  1 active torsions:
REMARK  status: ('A' for Active; 'I' for Inactive)
REMARK    1  A    between atoms: N1_2  and  C3_4
ROOT
HETATM    1  C3  UNL     1     -10.234  37.373  -2.566  1.00  0.00    -0.016 C
HETATM    2  C4  UNL     1      -9.585  36.405  -1.718  1.00  0.00    -0.003 C
HETATM    3  C5  UNL     1      -8.370  35.635  -2.074  1.00  0.00     0.010 C
HETATM    4  C6  UNL     1      -6.999  36.163  -1.653  1.00  0.00     0.013 C
HETATM    5  C7  UNL     1      -6.510  37.030  -2.866  1.00  0.00    -0.008 C
HETATM    6  C8  UNL     1      -5.587  38.095  -2.448  1.00  0.00     0.024 C
HETATM    7  C9  UNL     1      -5.463  39.068  -3.599  1.00  0.00     0.119 C
HETATM    8  N2  UNL     1      -5.655  38.444  -4.879  1.00  0.00    -0.396 N
ATOM      9  H2  UNL     1      -4.750  38.214  -5.290  1.00  0.00     0.159 HD
HETATM   10  C10 UNL     1      -6.583  38.088  -5.662  1.00  0.00    -0.014 C
HETATM   11  C11 UNL     1      -5.903  37.496  -6.821  1.00  0.00     0.052 C
HETATM   12  C12 UNL     1      -6.764  37.859  -8.033  1.00  0.00     0.006 C
HETATM   13  C13 UNL     1      -8.119  37.256  -7.939  1.00  0.00     0.001 C
HETATM   14  C14 UNL     1      -8.688  37.130  -6.549  1.00  0.00     0.011 C
HETATM   15  C15 UNL     1      -8.070  38.141  -5.658  1.00  0.00     0.036 C
HETATM   16  C16 UNL     1      -8.497  38.191  -4.246  1.00  0.00     0.005 C
HETATM   17  C17 UNL     1      -9.942  37.753  -3.959  1.00  0.00     0.056 C
HETATM   18  C18 UNL     1      -7.821  37.381  -3.304  1.00  0.00    -0.005 C
HETATM   19  C19 UNL     1      -8.244  35.956  -3.550  1.00  0.00     0.014 C
ENDROOT
BRANCH   1  20
HETATM   20  N1  UNL     1     -11.709  37.201  -2.548  1.00  0.00    -0.295 NA
HETATM   21  C1  UNL     1     -12.129  35.853  -2.518  1.00  0.00     0.116 C
HETATM   22  C2  UNL     1     -12.351  38.101  -1.651  1.00  0.00     0.116 C
ENDBRANCH   1  20
TORSDOF 1
ENDMDL