MODEL 2
REMARK VINA RESULT: -6.326329968      1.967      5.395
REMARK  1 active torsions:
REMARK  status: ('A' for Active; 'I' for Inactive)
REMARK    1  A    between atoms: C1_2  and  C2_3
REMARK       I    between atoms: C1_2  and  N2_17
ROOT
HETATM    1  C2  UNL     1      -6.767  38.502  -3.648  1.00  0.00     0.105 C
HETATM    2  C3  UNL     1      -5.303  38.479  -3.880  1.00  0.00     0.001 C
HETATM    3  C4  UNL     1      -4.625  39.538  -3.060  1.00  0.00     0.005 C
HETATM    4  C5  UNL     1      -5.267  39.891  -1.784  1.00  0.00     0.002 C
HETATM    5  C6  UNL     1      -6.278  38.971  -1.236  1.00  0.00     0.026 C
HETATM    6  C7  UNL     1      -7.099  38.199  -2.225  1.00  0.00     0.094 C
HETATM    7  N1  UNL     1      -6.921  36.771  -2.004  1.00  0.00    -0.391 N
ATOM      8  H1  UNL     1      -7.765  36.245  -1.778  1.00  0.00     0.159 HD
HETATM    9  C8  UNL     1      -5.847  36.099  -2.058  1.00  0.00    -0.014 C
HETATM   10  C9  UNL     1      -5.794  34.651  -1.812  1.00  0.00     0.052 C
HETATM   11  C10 UNL     1      -4.350  34.286  -1.722  1.00  0.00     0.006 C
HETATM   12  C11 UNL     1      -3.617  35.380  -2.467  1.00  0.00     0.011 C
HETATM   13  C12 UNL     1      -4.497  36.610  -2.371  1.00  0.00     0.031 C
HETATM   14  C13 UNL     1      -4.574  37.203  -3.757  1.00  0.00     0.016 C
ENDROOT
BRANCH   1  15
HETATM   15  C1  UNL     1      -7.575  37.754  -4.604  1.00  0.00     0.226 C
HETATM   16  O1  UNL     1      -8.526  37.055  -4.132  1.00  0.00    -0.273 OA
HETATM   17  N2  UNL     1      -7.384  37.751  -5.984  1.00  0.00    -0.352 N
HETATM   18  C14 UNL     1      -6.365  38.439  -6.734  1.00  0.00     0.125 C
HETATM   19  C18 UNL     1      -8.316  36.966  -6.820  1.00  0.00     0.125 C
HETATM   20  C15 UNL     1      -6.086  37.597  -7.985  1.00  0.00     0.020 C
HETATM   21  C16 UNL     1      -7.282  37.858  -8.909  1.00  0.00     0.003 C
HETATM   22  C17 UNL     1      -8.569  37.687  -8.120  1.00  0.00     0.020 C
ENDBRANCH   1  15
TORSDOF 1
ENDMDL