MODEL 1
REMARK VINA RESULT: -7.716670916      0.000      0.000
REMARK  1 active torsions:
REMARK  status: ('A' for Active; 'I' for Inactive)
REMARK    1  A    between atoms: C7_7  and  C9_9
ROOT
HETATM    1  C9  UNL     1      -6.567  37.727  -9.931  1.00  0.00     0.035 C
HETATM    2  C10 UNL     1      -6.764  36.392  -9.265  1.00  0.00     0.021 C
HETATM    3  C11 UNL     1      -7.260  36.693  -7.856  1.00  0.00    -0.013 C
HETATM    4  C12 UNL     1      -8.706  37.093  -7.989  1.00  0.00     0.008 C
HETATM    5  C13 UNL     1      -8.904  38.135  -9.033  1.00  0.00     0.053 C
HETATM    6  C14 UNL     1      -7.636  38.717  -9.601  1.00  0.00     0.174 C
HETATM    7  F1  UNL     1      -7.985  39.564 -10.611  1.00  0.00    -0.234 F
HETATM    8  C15 UNL     1      -7.085  39.591  -8.495  1.00  0.00     0.171 C
HETATM    9  O1  UNL     1      -7.502  40.656  -8.132  1.00  0.00    -0.294 OA
HETATM   10  C16 UNL     1      -5.921  38.822  -7.974  1.00  0.00     0.060 C
HETATM   11  C17 UNL     1      -6.438  37.690  -7.125  1.00  0.00     0.017 C
HETATM   12  C18 UNL     1      -5.325  38.315  -9.283  1.00  0.00     0.028 C
ENDROOT
BRANCH   1  13
HETATM   13  C7  UNL     1      -6.255  37.608 -11.408  1.00  0.00     0.069 C
HETATM   14  C6  UNL     1      -5.470  36.365 -11.744  1.00  0.00     0.038 C
HETATM   15  C5  UNL     1      -5.761  35.843 -13.118  1.00  0.00     0.006 C
HETATM   16  C4  UNL     1      -6.423  36.798 -14.040  1.00  0.00     0.037 C
HETATM   17  C2  UNL     1      -7.437  37.705 -13.423  1.00  0.00     0.055 C
HETATM   18  C1  UNL     1      -8.827  37.164 -13.814  1.00  0.00     0.045 C
HETATM   19  C3  UNL     1      -7.353  39.041 -14.128  1.00  0.00     0.045 C
HETATM   20  O2  UNL     1      -7.431  37.762 -12.062  1.00  0.00    -0.369 OA
HETATM   21  C8  UNL     1      -5.264  38.752 -11.698  1.00  0.00     0.047 C
ENDBRANCH   1  13
TORSDOF 1
ENDMDL