MODEL 3
REMARK VINA RESULT: -7.406723587      5.542      8.598
REMARK  1 active torsions:
REMARK  status: ('A' for Active; 'I' for Inactive)
REMARK    1  A    between atoms: N1_8  and  C6_9
ROOT
HETATM    1  F1  UNL     1      -7.462  37.717  -0.425  1.00  0.00    -0.247 F
HETATM    2  C1  UNL     1      -8.571  37.404  -1.171  1.00  0.00     0.198 C
HETATM    3  C2  UNL     1      -9.249  36.128  -0.767  1.00  0.00     0.113 C
HETATM    4  S1  UNL     1      -8.007  35.218  -1.704  1.00  0.00    -0.153 SA
HETATM    5  C3  UNL     1      -8.269  36.816  -2.546  1.00  0.00     0.045 C
HETATM    6  C4  UNL     1      -7.008  37.329  -3.157  1.00  0.00     0.043 C
HETATM    7  C5  UNL     1      -7.196  38.064  -4.442  1.00  0.00     0.124 C
HETATM    8  N1  UNL     1      -8.094  37.466  -5.368  1.00  0.00    -0.388 N
HETATM    9  C16 UNL     1      -9.260  36.875  -4.880  1.00  0.00     0.060 C
HETATM   10  C17 UNL     1      -9.472  36.858  -3.405  1.00  0.00     0.067 C
ENDROOT
BRANCH   8  11
HETATM   11  C6  UNL     1      -8.082  38.112  -6.617  1.00  0.00     0.091 C
HETATM   12  C7  UNL     1      -8.516  37.346  -7.816  1.00  0.00     0.009 C
HETATM   13  C8  UNL     1      -7.474  36.487  -8.454  1.00  0.00     0.011 C
HETATM   14  C12 UNL     1      -8.851  38.401  -8.876  1.00  0.00     0.011 C
HETATM   15  C9  UNL     1      -6.217  37.252  -8.782  1.00  0.00    -0.013 C
HETATM   16  C10 UNL     1      -6.560  38.271  -9.830  1.00  0.00     0.009 C
HETATM   17  C15 UNL     1      -5.735  37.859  -7.492  1.00  0.00     0.011 C
HETATM   18  C11 UNL     1      -7.620  39.178  -9.255  1.00  0.00    -0.013 C
HETATM   19  C13 UNL     1      -7.038  39.836  -8.039  1.00  0.00     0.011 C
HETATM   20  C14 UNL     1      -6.767  38.803  -6.955  1.00  0.00     0.009 C
ENDBRANCH   8  11
TORSDOF 1
ENDMDL