MODEL 2
REMARK VINA RESULT: -5.041540701      1.782      4.872
REMARK  1 active torsions:
REMARK  status: ('A' for Active; 'I' for Inactive)
REMARK    1  A    between atoms: C14_15  and  C15_17
ROOT
HETATM    1  C1  UNL     1      -7.237  36.957   0.075  1.00  0.00     0.015 C
HETATM    2  C2  UNL     1      -7.588  37.527  -1.048  1.00  0.00    -0.076 C
HETATM    3  C3  UNL     1      -8.842  38.332  -1.091  1.00  0.00     0.051 C
HETATM    4  C4  UNL     1      -9.824  37.640  -2.028  1.00  0.00     0.024 C
HETATM    5  C5  UNL     1     -11.045  38.517  -2.152  1.00  0.00     0.024 C
HETATM    6  C6  UNL     1     -10.260  36.342  -1.509  1.00  0.00     0.136 C
HETATM    7  O1  UNL     1     -10.510  36.056  -0.367  1.00  0.00    -0.297 OA
HETATM    8  C7  UNL     1     -10.352  35.393  -2.644  1.00  0.00     0.079 C
HETATM    9  C8  UNL     1      -9.490  35.950  -3.752  1.00  0.00     0.013 C
HETATM   10  C9  UNL     1      -9.180  37.346  -3.356  1.00  0.00     0.007 C
HETATM   11  C10 UNL     1      -7.816  37.821  -3.391  1.00  0.00     0.011 C
HETATM   12  C11 UNL     1      -6.960  37.622  -4.582  1.00  0.00    -0.009 C
HETATM   13  C12 UNL     1      -7.540  38.416  -5.735  1.00  0.00     0.010 C
HETATM   14  C13 UNL     1      -5.715  38.381  -4.134  1.00  0.00     0.057 C
HETATM   15  C14 UNL     1      -5.823  38.491  -2.589  1.00  0.00     0.174 C
HETATM   16  F1  UNL     1      -6.265  39.747  -2.233  1.00  0.00    -0.233 F
HETATM   17  C17 UNL     1      -6.853  37.422  -2.293  1.00  0.00     0.026 C
HETATM   18  C18 UNL     1      -6.156  36.119  -2.505  1.00  0.00     0.024 C
ENDROOT
BRANCH  15  19
HETATM   19  C15 UNL     1      -4.477  38.231  -2.046  1.00  0.00     0.163 C
HETATM   20  C16 UNL     1      -4.087  38.585  -0.662  1.00  0.00     0.094 C
HETATM   21  O2  UNL     1      -3.585  37.697  -2.724  1.00  0.00    -0.295 OA
ENDBRANCH  15  19
TORSDOF 1
ENDMDL