MODEL 5
REMARK VINA RESULT: -6.361567046      5.035      7.623
REMARK  3 active torsions:
REMARK  status: ('A' for Active; 'I' for Inactive)
REMARK    1  A    between atoms: C1_2  and  O1_3
REMARK    2  A    between atoms: C1_2  and  N1_15
REMARK    3  A    between atoms: O1_3  and  C2_4
ROOT
HETATM    1  C2  UNL     1      -7.442  38.047  -6.343  1.00  0.00     0.088 C
HETATM    2  C3  UNL     1      -6.146  37.292  -6.743  1.00  0.00     0.045 C
HETATM    3  C4  UNL     1      -5.999  37.212  -8.218  1.00  0.00    -0.011 C
HETATM    4  C5  UNL     1      -7.167  36.653  -8.962  1.00  0.00     0.009 C
HETATM    5  C6  UNL     1      -8.401  37.449  -8.591  1.00  0.00    -0.011 C
HETATM    6  C7  UNL     1      -8.223  38.856  -9.077  1.00  0.00     0.011 C
HETATM    7  C8  UNL     1      -7.029  39.440  -8.339  1.00  0.00     0.008 C
HETATM    8  C9  UNL     1      -5.809  38.650  -8.720  1.00  0.00     0.011 C
HETATM    9  C10 UNL     1      -7.324  39.451  -6.878  1.00  0.00     0.121 C
HETATM   10 CL1  UNL     1      -6.016  40.352  -6.074  1.00  0.00    -0.121 Cl
HETATM   11  C11 UNL     1      -8.541  37.338  -7.100  1.00  0.00     0.045 C
ENDROOT
BRANCH   1  12
HETATM   12  O1  UNL     1      -7.582  37.897  -5.034  1.00  0.00    -0.314 OA
BRANCH  12  13
HETATM   13  C1  UNL     1      -7.268  37.458  -3.853  1.00  0.00     0.213 C
HETATM   14  S1  UNL     1      -8.566  36.817  -2.979  1.00  0.00    -0.033 SA
BRANCH  13  15
HETATM   15  N1  UNL     1      -6.014  37.446  -3.212  1.00  0.00    -0.352 N
HETATM   16  C12 UNL     1      -5.622  36.510  -2.170  1.00  0.00     0.126 C
HETATM   17  C13 UNL     1      -4.230  36.102  -2.657  1.00  0.00     0.021 C
HETATM   18  C14 UNL     1      -3.816  37.158  -3.682  1.00  0.00     0.021 C
HETATM   19  C15 UNL     1      -4.840  38.256  -3.355  1.00  0.00     0.126 C
ENDBRANCH  13  15
ENDBRANCH  12  13
ENDBRANCH   1  12
TORSDOF 3
ENDMDL