MODEL 3
REMARK VINA RESULT: -5.418346500      5.730      8.364
REMARK  1 active torsions:
REMARK  status: ('A' for Active; 'I' for Inactive)
REMARK    1  A    between atoms: C6_9  and  C7_10
ROOT
HETATM    1  C1  UNL     1      -6.702  36.156  -9.253  1.00  0.00     0.021 C
HETATM    2  C2  UNL     1      -5.760  37.179  -9.830  1.00  0.00     0.096 C
HETATM    3  C3  UNL     1      -5.481  38.236  -8.891  1.00  0.00     0.263 C
HETATM    4  O1  UNL     1      -5.753  38.054  -7.666  1.00  0.00    -0.265 OA
HETATM    5  O2  UNL     1      -4.921  39.421  -9.364  1.00  0.00    -0.319 OA
HETATM    6  C4  UNL     1      -4.310  39.257 -10.635  1.00  0.00     0.211 C
HETATM    7  C5  UNL     1      -5.387  38.765 -11.599  1.00  0.00     0.159 C
HETATM    8  O3  UNL     1      -6.584  39.497 -11.404  1.00  0.00    -0.368 OA
HETATM    9  C6  UNL     1      -7.309  38.323 -11.546  1.00  0.00     0.098 C
HETATM   10  C8  UNL     1      -8.050  38.111 -12.800  1.00  0.00     0.041 C
HETATM   11  C9  UNL     1      -7.476  38.079 -14.128  1.00  0.00     0.004 C
HETATM   12  C10 UNL     1      -7.738  36.787 -14.838  1.00  0.00     0.005 C
HETATM   13  C11 UNL     1      -6.645  35.863 -15.122  1.00  0.00    -0.006 A
HETATM   14  C12 UNL     1      -5.324  36.287 -15.682  1.00  0.00     0.015 A
HETATM   15  C13 UNL     1      -5.542  35.523 -14.333  1.00  0.00    -0.040 A
HETATM   16  C14 UNL     1      -5.040  34.057 -14.386  1.00  0.00     0.015 C
HETATM   17  C15 UNL     1      -5.013  36.277 -13.194  1.00  0.00     0.010 C
HETATM   18  C16 UNL     1      -5.953  36.296 -12.068  1.00  0.00     0.017 C
HETATM   19  C17 UNL     1      -6.091  37.554 -11.257  1.00  0.00     0.034 C
ENDROOT
BRANCH   9  20
HETATM   20  C7  UNL     1      -8.400  38.342 -10.453  1.00  0.00     0.261 C
HETATM   21  F1  UNL     1      -8.194  39.480  -9.648  1.00  0.00    -0.252 F
ENDBRANCH   9  20
TORSDOF 1
ENDMDL