MODEL 2
REMARK VINA RESULT: -5.167578104      1.126      1.227
REMARK  3 active torsions:
REMARK  status: ('A' for Active; 'I' for Inactive)
REMARK    1  A    between atoms: C2_2  and  C3_4
REMARK    2  A    between atoms: C12_13  and  N1_14
REMARK    3  A    between atoms: N1_14  and  C13_16
ROOT
HETATM    1  C3  UNL     1      -7.253  38.456  -5.192  1.00  0.00     0.059 C
HETATM    2  C4  UNL     1      -5.832  37.902  -4.925  1.00  0.00     0.013 C
HETATM    3  C5  UNL     1      -5.938  37.709  -3.391  1.00  0.00     0.006 C
HETATM    4  C6  UNL     1      -7.206  36.993  -3.340  1.00  0.00    -0.003 C
HETATM    5  C7  UNL     1      -8.137  37.747  -4.268  1.00  0.00     0.001 C
HETATM    6  C8  UNL     1      -9.073  36.707  -4.759  1.00  0.00     0.007 C
HETATM    7  C9  UNL     1      -9.425  35.706  -3.692  1.00  0.00     0.012 C
HETATM    8  C10 UNL     1      -9.145  36.093  -2.273  1.00  0.00    -0.018 C
HETATM    9  C11 UNL     1      -8.917  34.727  -1.564  1.00  0.00     0.018 C
HETATM   10  C12 UNL     1     -10.420  36.591  -1.661  1.00  0.00     0.092 C
HETATM   11  C14 UNL     1     -10.205  37.509  -0.490  1.00  0.00     0.027 C
HETATM   12  C15 UNL     1      -9.424  38.679  -1.005  1.00  0.00     0.022 C
HETATM   13  C16 UNL     1      -8.072  38.233  -1.395  1.00  0.00     0.087 C
HETATM   14 CL1  UNL     1      -7.036  38.412   0.075  1.00  0.00    -0.125 Cl
HETATM   15  C17 UNL     1      -7.929  36.890  -2.017  1.00  0.00     0.018 C
ENDROOT
BRANCH  10  16
HETATM   16  N1  UNL     1     -11.288  37.279  -2.596  1.00  0.00    -0.363 N
ATOM     17  H1  UNL     1     -10.844  37.890  -3.282  1.00  0.00     0.162 HD
BRANCH  16  18
HETATM   18  C13 UNL     1     -12.532  37.188  -2.634  1.00  0.00     0.348 C
HETATM   19  O2  UNL     1     -13.750  37.170  -2.946  1.00  0.00    -0.284 OA
ENDBRANCH  16  18
ENDBRANCH  10  16
BRANCH   1  20
HETATM   20  C2  UNL     1      -7.587  38.557  -6.595  1.00  0.00     0.127 C
HETATM   21  C1  UNL     1      -7.052  37.581  -7.574  1.00  0.00     0.091 C
HETATM   22  O1  UNL     1      -8.301  39.428  -7.017  1.00  0.00    -0.298 OA
ENDBRANCH   1  20
TORSDOF 3
ENDMDL