MODEL 3
REMARK VINA RESULT: -4.866134453      1.694      2.101
REMARK  1 active torsions:
REMARK  status: ('A' for Active; 'I' for Inactive)
REMARK    1  A    between atoms: C11_11  and  C12_12
ROOT
HETATM    1  C1  UNL     1      -9.447  36.653  -7.123  1.00  0.00     0.010 C
HETATM    2  C2  UNL     1      -8.563  37.866  -6.794  1.00  0.00    -0.009 C
HETATM    3  C3  UNL     1      -7.710  38.119  -7.989  1.00  0.00     0.017 C
HETATM    4  C4  UNL     1      -6.549  39.029  -7.732  1.00  0.00    -0.029 C
HETATM    5  C5  UNL     1      -6.913  40.492  -7.783  1.00  0.00     0.019 C
HETATM    6  C6  UNL     1      -5.539  38.789  -8.859  1.00  0.00     0.019 C
HETATM    7  C7  UNL     1      -5.859  38.751  -6.464  1.00  0.00    -0.013 C
HETATM    8  C8  UNL     1      -6.442  38.093  -5.503  1.00  0.00    -0.045 C
HETATM    9  C9  UNL     1      -7.827  37.550  -5.543  1.00  0.00     0.021 C
HETATM   10  C10 UNL     1      -8.554  38.083  -4.353  1.00  0.00     0.025 C
HETATM   11  C11 UNL     1      -8.294  37.314  -3.088  1.00  0.00     0.106 C
HETATM   12  C13 UNL     1      -6.879  37.448  -2.590  1.00  0.00     0.235 C
HETATM   13  C14 UNL     1      -6.458  38.862  -2.346  1.00  0.00     0.039 C
HETATM   14  C15 UNL     1      -5.558  39.229  -3.514  1.00  0.00     0.042 C
HETATM   15  C16 UNL     1      -5.520  37.956  -4.343  1.00  0.00     0.252 C
HETATM   16  N1  UNL     1      -5.905  36.880  -3.462  1.00  0.00     0.098 N
HETATM   17  C17 UNL     1      -4.782  36.280  -2.799  1.00  0.00     0.311 C
ENDROOT
BRANCH  11  18
HETATM   18  C12 UNL     1      -8.674  35.901  -3.158  1.00  0.00     0.225 C
HETATM   19  O1  UNL     1      -9.482  35.476  -3.961  1.00  0.00    -0.279 OA
HETATM   20 CL1  UNL     1      -7.950  34.751  -2.051  1.00  0.00    -0.043 Cl
ENDBRANCH  11  18
TORSDOF 1
ENDMDL