MODEL 1
REMARK VINA RESULT: -7.679024680      0.000      0.000
REMARK  1 active torsions:
REMARK  status: ('A' for Active; 'I' for Inactive)
REMARK    1  A    between atoms: C2_2  and  C3_4
REMARK       I    between atoms: C3_4  and  N1_6
ROOT
HETATM    1  C3  UNL     1      -6.438  36.954 -13.661  1.00  0.00     0.238 C
HETATM    2  O1  UNL     1      -5.454  36.444 -14.270  1.00  0.00    -0.272 OA
HETATM    3  N1  UNL     1      -6.246  37.509 -12.374  1.00  0.00    -0.347 N
HETATM    4  C4  UNL     1      -4.964  37.536 -11.675  1.00  0.00     0.129 C
HETATM    5  C5  UNL     1      -5.160  38.566 -10.583  1.00  0.00     0.067 C
HETATM    6  C6  UNL     1      -6.598  38.262 -10.181  1.00  0.00     0.131 C
HETATM    7  C7  UNL     1      -7.179  39.345  -9.360  1.00  0.00     0.015 C
HETATM    8  C8  UNL     1      -7.712  39.072  -8.171  1.00  0.00     0.013 C
HETATM    9  C9  UNL     1      -7.705  37.669  -7.705  1.00  0.00     0.114 C
HETATM   10  C10 UNL     1      -8.945  37.314  -6.933  1.00  0.00     0.045 C
HETATM   11  C11 UNL     1      -8.750  37.265  -5.457  1.00  0.00     0.003 C
HETATM   12  C12 UNL     1      -7.738  38.252  -4.939  1.00  0.00     0.000 C
HETATM   13  C13 UNL     1      -6.414  38.149  -5.605  1.00  0.00     0.003 C
HETATM   14  C14 UNL     1      -6.439  37.438  -6.928  1.00  0.00     0.045 C
HETATM   15  O2  UNL     1      -7.663  36.848  -8.832  1.00  0.00    -0.224 OA
HETATM   16  O3  UNL     1      -6.612  37.030  -9.569  1.00  0.00    -0.223 OA
HETATM   17  C15 UNL     1      -7.254  38.138 -11.537  1.00  0.00     0.171 C
ENDROOT
BRANCH   1  18
HETATM   18  C2  UNL     1      -7.770  36.951 -14.325  1.00  0.00     0.170 C
HETATM   19  C1  UNL     1      -7.648  36.237 -15.630  1.00  0.00     0.036 C
HETATM   20 CL1  UNL     1      -8.455  38.578 -14.504  1.00  0.00    -0.115 Cl
ENDBRANCH   1  18
TORSDOF 1
ENDMDL