MODEL 5
REMARK VINA RESULT: -6.566796932      8.003     12.059
REMARK  2 active torsions:
REMARK  status: ('A' for Active; 'I' for Inactive)
REMARK    1  A    between atoms: C2_2  and  S1_4
REMARK    2  A    between atoms: S1_4  and  C4_5
ROOT
HETATM    1  C4  UNL     1     -22.647 -13.384  12.816  1.00  0.00     0.064 C
HETATM    2  C5  UNL     1     -23.093 -12.458  13.832  1.00  0.00     0.068 C
HETATM    3  C6  UNL     1     -24.141 -12.950  14.851  1.00  0.00    -0.013 C
HETATM    4  C7  UNL     1     -25.410 -13.024  14.159  1.00  0.00     0.057 C
HETATM    5  C8  UNL     1     -25.645 -14.238  13.246  1.00  0.00    -0.001 C
HETATM    6  C9  UNL     1     -24.910 -14.069  11.949  1.00  0.00     0.014 C
HETATM    7  C10 UNL     1     -23.561 -14.506  12.396  1.00  0.00     0.036 C
HETATM    8  C11 UNL     1     -23.793 -15.319  13.596  1.00  0.00     0.079 A
HETATM    9  O1  UNL     1     -22.618 -15.667  14.214  1.00  0.00    -0.362 OA
HETATM   10  C12 UNL     1     -23.392 -16.262  15.175  1.00  0.00     0.097 C
HETATM   11  C13 UNL     1     -22.896 -17.490  15.812  1.00  0.00     0.052 C
HETATM   12  C14 UNL     1     -23.800 -15.117  16.096  1.00  0.00     0.098 C
HETATM   13  N1  UNL     1     -23.581 -13.828  15.713  1.00  0.00    -0.373 N
ATOM     14  H1  UNL     1     -22.787 -13.418  16.206  1.00  0.00     0.164 HD
HETATM   15  C15 UNL     1     -24.369 -16.471  13.984  1.00  0.00     0.068 A
HETATM   16  C16 UNL     1     -25.168 -15.350  14.007  1.00  0.00     0.036 A
ENDROOT
BRANCH   1  17
HETATM   17  S1  UNL     1     -22.214 -12.463  11.304  1.00  0.00    -0.130 SA
BRANCH  17  18
HETATM   18  C2  UNL     1     -20.610 -11.708  11.443  1.00  0.00    -0.035 C
HETATM   19  C1  UNL     1     -19.758 -12.116  12.367  1.00  0.00     0.026 C
HETATM   20  C3  UNL     1     -20.234 -10.605  10.498  1.00  0.00     0.055 C
ENDBRANCH  17  18
ENDBRANCH   1  17
TORSDOF 2
ENDMDL