MODEL 1
REMARK VINA RESULT: -7.358225184      0.000      0.000
REMARK  3 active torsions:
REMARK  status: ('A' for Active; 'I' for Inactive)
REMARK    1  A    between atoms: C3_3  and  C4_4
REMARK    2  A    between atoms: C6_7  and  O2_8
REMARK    3  A    between atoms: C8_12  and  C9_13
ROOT
HETATM    1  C4  UNL     1     -24.048 -16.369  14.781  1.00  0.00     0.088 C
HETATM    2  C5  UNL     1     -24.697 -16.405  16.088  1.00  0.00     0.051 C
HETATM    3  O1  UNL     1     -22.648 -16.174  14.928  1.00  0.00    -0.333 OA
HETATM    4  C6  UNL     1     -22.883 -14.815  14.658  1.00  0.00     0.233 C
HETATM    5  C7  UNL     1     -21.921 -14.186  13.743  1.00  0.00     0.193 C
HETATM    6  O3  UNL     1     -20.870 -14.743  13.666  1.00  0.00    -0.292 OA
HETATM    7  C8  UNL     1     -22.108 -12.984  12.940  1.00  0.00     0.064 C
HETATM    8  C12 UNL     1     -23.453 -13.058  12.258  1.00  0.00     0.013 C
HETATM    9  C13 UNL     1     -24.609 -12.933  13.188  1.00  0.00     0.005 C
HETATM   10  C14 UNL     1     -25.137 -14.307  13.644  1.00  0.00    -0.006 C
HETATM   11  C15 UNL     1     -26.131 -14.056  14.713  1.00  0.00     0.010 C
HETATM   12  C16 UNL     1     -24.066 -15.258  13.865  1.00  0.00     0.098 C
ENDROOT
BRANCH   1  13
HETATM   13  C3  UNL     1     -24.212 -17.696  14.118  1.00  0.00     0.007 C
HETATM   14  C2  UNL     1     -23.832 -18.810  14.700  1.00  0.00    -0.032 C
HETATM   15  C1  UNL     1     -23.999 -20.122  14.031  1.00  0.00     0.036 C
ENDBRANCH   1  13
BRANCH   4  16
HETATM   16  O2  UNL     1     -23.075 -14.156  15.839  1.00  0.00    -0.359 OA
ATOM     17  H2  UNL     1     -23.950 -13.786  15.846  1.00  0.00     0.213 HD
ENDBRANCH   4  16
BRANCH   7  18
HETATM   18  C9  UNL     1     -20.996 -12.718  11.962  1.00  0.00    -0.011 C
HETATM   19  C10 UNL     1     -20.013 -11.702  12.423  1.00  0.00     0.010 C
HETATM   20  C11 UNL     1     -21.524 -12.315  10.604  1.00  0.00     0.010 C
ENDBRANCH   7  18
TORSDOF 3
ENDMDL