MODEL 4
REMARK VINA RESULT: -6.491244826      2.856      5.641
REMARK  4 active torsions:
REMARK  status: ('A' for Active; 'I' for Inactive)
REMARK    1  A    between atoms: C2_2  and  O1_3
REMARK    2  A    between atoms: C7_9  and  C8_10
REMARK    3  A    between atoms: C8_10  and  C9_11
REMARK    4  A    between atoms: C10_12  and  C11_13
ROOT
HETATM    1  C1  UNL     1     -28.800 -14.430  13.636  1.00  0.00     0.045 C
HETATM    2  C2  UNL     1     -28.072 -14.712  14.910  1.00  0.00     0.055 C
HETATM    3  C3  UNL     1     -27.519 -13.406  15.516  1.00  0.00     0.042 C
HETATM    4  C4  UNL     1     -26.126 -13.456  15.006  1.00  0.00    -0.007 C
HETATM    5  C5  UNL     1     -25.092 -12.613  15.601  1.00  0.00     0.006 C
HETATM    6  C6  UNL     1     -23.811 -12.845  14.769  1.00  0.00     0.013 C
HETATM    7  C7  UNL     1     -23.595 -14.252  14.421  1.00  0.00    -0.010 C
HETATM    8  C13 UNL     1     -22.251 -14.847  14.883  1.00  0.00     0.177 C
HETATM    9  O3  UNL     1     -22.504 -16.220  14.807  1.00  0.00    -0.390 OA
HETATM   10  C14 UNL     1     -23.840 -16.462  15.011  1.00  0.00     0.173 C
HETATM   11  C15 UNL     1     -24.426 -15.134  15.360  1.00  0.00     0.025 C
HETATM   12  C16 UNL     1     -25.818 -14.913  15.424  1.00  0.00    -0.001 C
HETATM   13  C17 UNL     1     -26.833 -15.581  14.606  1.00  0.00     0.043 C
ENDROOT
BRANCH   7  14
HETATM   14  C8  UNL     1     -23.706 -14.639  12.987  1.00  0.00     0.039 C
BRANCH  14  15
HETATM   15  C9  UNL     1     -23.382 -13.458  12.132  1.00  0.00    -0.027 C
HETATM   16  C10 UNL     1     -22.136 -13.104  11.847  1.00  0.00     0.003 C
BRANCH  16  17
HETATM   17  C11 UNL     1     -21.824 -11.945  11.007  1.00  0.00     0.167 A
HETATM   18  C12 UNL     1     -20.980 -10.865  11.547  1.00  0.00     0.204 A
HETATM   19  O2  UNL     1     -20.442 -11.848  10.593  1.00  0.00    -0.377 OA
ENDBRANCH  16  17
ENDBRANCH  14  15
ENDBRANCH   7  14
BRANCH   2  20
HETATM   20  O1  UNL     1     -28.823 -15.372  15.855  1.00  0.00    -0.390 OA
ATOM     21  H1  UNL     1     -29.574 -15.834  15.502  1.00  0.00     0.210 HD
ENDBRANCH   2  20
TORSDOF 4
ENDMDL