MODEL 1
REMARK VINA RESULT: -8.198055283      0.000      0.000
REMARK  3 active torsions:
REMARK  status: ('A' for Active; 'I' for Inactive)
REMARK       I    between atoms: C2_2  and  N1_4
REMARK    1  A    between atoms: N1_4  and  C3_6
REMARK    2  A    between atoms: C3_6  and  C4_7
REMARK    3  A    between atoms: C7_11  and  C8_12
ROOT
HETATM    1  C3  UNL     1     -13.180  -8.638  10.736  1.00  0.00     0.121 C
HETATM    2  C6  UNL     1     -14.643  -8.518  10.529  1.00  0.00     0.074 C
HETATM    3  C7  UNL     1     -14.863  -9.457   9.357  1.00  0.00     0.129 C
HETATM    4  O3  UNL     1     -13.876 -10.425   9.499  1.00  0.00    -0.378 OA
HETATM    5  C14 UNL     1     -12.728  -9.763   9.897  1.00  0.00     0.153 C
HETATM    6  C15 UNL     1     -11.950  -9.450   8.657  1.00  0.00     0.042 C
ENDROOT
BRANCH   1   7
HETATM    7  N1  UNL     1     -12.471  -7.391  10.601  1.00  0.00    -0.343 N
HETATM    8  C2  UNL     1     -12.710  -6.185  11.253  1.00  0.00     0.214 C
HETATM    9  C1  UNL     1     -11.836  -4.996  10.939  1.00  0.00     0.117 C
HETATM   10  O1  UNL     1     -13.602  -5.943  12.113  1.00  0.00    -0.274 OA
ATOM     11  H1  UNL     1     -11.694  -7.392   9.940  1.00  0.00     0.163 HD
ENDBRANCH   1   7
BRANCH   1  12
HETATM   12  C4  UNL     1     -12.970  -9.117  12.176  1.00  0.00     0.153 C
HETATM   13  C5  UNL     1     -11.663  -9.659  12.605  1.00  0.00     0.093 C
HETATM   14  O2  UNL     1     -13.875  -9.059  12.983  1.00  0.00    -0.296 OA
ENDBRANCH   1  12
BRANCH   3  15
HETATM   15  C8  UNL     1     -16.195 -10.182   9.462  1.00  0.00     0.015 C
HETATM   16  C9  UNL     1     -16.242 -11.151  10.584  1.00  0.00     0.007 C
HETATM   17  C10 UNL     1     -17.351 -10.961  11.551  1.00  0.00     0.000 C
HETATM   18  C11 UNL     1     -18.672 -10.620  10.947  1.00  0.00     0.000 C
HETATM   19  C12 UNL     1     -18.614  -9.672   9.803  1.00  0.00     0.000 C
HETATM   20  C13 UNL     1     -17.251  -9.099   9.562  1.00  0.00     0.007 C
ENDBRANCH   3  15
TORSDOF 3
ENDMDL