MODEL 3
REMARK VINA RESULT: -7.185234024      4.117      9.808
REMARK  4 active torsions:
REMARK  status: ('A' for Active; 'I' for Inactive)
REMARK    1  A    between atoms: C2_2  and  C3_3
REMARK    2  A    between atoms: C4_4  and  C5_5
REMARK    3  A    between atoms: C9_9  and  C10_10
REMARK    4  A    between atoms: C17_17  and  O1_18
ROOT
HETATM    1  C10 UNL     1     -13.867  -9.168   9.778  1.00  0.00    -0.005 C
HETATM    2  C11 UNL     1     -13.115  -8.784   8.500  1.00  0.00     0.013 C
HETATM    3  C12 UNL     1     -11.933  -9.703   8.424  1.00  0.00     0.001 C
HETATM    4  C13 UNL     1     -12.484 -10.970   9.054  1.00  0.00     0.005 C
HETATM    5  C14 UNL     1     -13.202 -10.381  10.278  1.00  0.00    -0.003 C
HETATM    6  C15 UNL     1     -12.178 -10.201  11.337  1.00  0.00     0.008 C
HETATM    7  C16 UNL     1     -12.449  -9.105  12.304  1.00  0.00     0.032 C
HETATM    8  C17 UNL     1     -12.600  -7.831  11.487  1.00  0.00     0.119 C
HETATM    9  C18 UNL     1     -13.852  -7.985  10.676  1.00  0.00     0.044 C
ENDROOT
BRANCH   1  10
HETATM   10  C9  UNL     1     -15.313  -9.390   9.385  1.00  0.00     0.155 C
HETATM   11  C8  UNL     1     -16.099  -8.149   9.354  1.00  0.00     0.005 C
HETATM   12  C7  UNL     1     -17.358  -8.471   9.635  1.00  0.00     0.013 C
HETATM   13  C5  UNL     1     -17.333  -9.953   9.843  1.00  0.00     0.094 C
HETATM   14  C6  UNL     1     -17.567 -10.697   8.555  1.00  0.00     0.055 C
HETATM   15  O2  UNL     1     -16.003 -10.181  10.269  1.00  0.00    -0.363 OA
BRANCH  13  16
HETATM   16  C4  UNL     1     -18.316 -10.369  10.850  1.00  0.00     0.014 C
HETATM   17  C3  UNL     1     -19.609 -10.509  10.540  1.00  0.00    -0.002 C
BRANCH  17  18
HETATM   18  C2  UNL     1     -20.567 -10.919  11.540  1.00  0.00    -0.010 C
HETATM   19  C1  UNL     1     -21.710 -11.457  11.181  1.00  0.00     0.011 C
ENDBRANCH  17  18
ENDBRANCH  13  16
ENDBRANCH   1  10
BRANCH   8  20
HETATM   20  O1  UNL     1     -12.797  -6.785  12.387  1.00  0.00    -0.396 OA
ATOM     21  H1  UNL     1     -11.942  -6.530  12.715  1.00  0.00     0.210 HD
ENDBRANCH   8  20
TORSDOF 4
ENDMDL