MODEL 4
REMARK VINA RESULT: -7.955208554      3.242      5.015
REMARK  4 active torsions:
REMARK  status: ('A' for Active; 'I' for Inactive)
REMARK    1  A    between atoms: C2_2  and  C3_4
REMARK    2  A    between atoms: C6_7  and  N1_8
REMARK       I    between atoms: N1_8  and  C7_10
REMARK    3  A    between atoms: C7_10  and  O3_12
REMARK    4  A    between atoms: O3_12  and  C8_13
ROOT
HETATM    1  N1  UNL     1     -14.522  -8.403   9.979  1.00  0.00    -0.332 N
ATOM      2  H1  UNL     1     -14.830  -7.867  10.791  1.00  0.00     0.165 HD
HETATM    3  C7  UNL     1     -13.243  -8.132   9.375  1.00  0.00     0.361 C
HETATM    4  O2  UNL     1     -12.871  -8.800   8.370  1.00  0.00    -0.238 OA
ENDROOT
BRANCH   1   5
HETATM    5  C6  UNL     1     -15.361  -9.431   9.430  1.00  0.00     0.086 C
HETATM    6  C5  UNL     1     -15.242 -10.748  10.134  1.00  0.00     0.026 C
HETATM    7  C4  UNL     1     -16.404 -10.932  11.073  1.00  0.00     0.014 C
HETATM    8  C3  UNL     1     -17.688 -11.025  10.303  1.00  0.00     0.055 C
HETATM    9  C16 UNL     1     -17.724 -10.084   9.120  1.00  0.00     0.014 C
HETATM   10  C15 UNL     1     -16.803  -8.917   9.469  1.00  0.00     0.026 C
BRANCH   8  11
HETATM   11  C2  UNL     1     -18.817 -10.707  11.225  1.00  0.00     0.127 C
HETATM   12  C1  UNL     1     -20.157 -10.378  10.666  1.00  0.00     0.091 C
HETATM   13  O1  UNL     1     -18.691 -10.704  12.430  1.00  0.00    -0.298 OA
ENDBRANCH   8  11
ENDBRANCH   1   5
BRANCH   3  14
HETATM   14  O3  UNL     1     -12.407  -7.146   9.877  1.00  0.00    -0.298 OA
BRANCH  14  15
HETATM   15  C8  UNL     1     -12.520  -6.803  11.223  1.00  0.00     0.142 C
HETATM   16  C9  UNL     1     -11.410  -7.448  12.067  1.00  0.00     0.042 C
HETATM   17  C10 UNL     1     -10.714  -6.295  12.741  1.00  0.00     0.011 C
HETATM   18  C11 UNL     1      -9.998  -5.550  11.679  1.00  0.00    -0.025 C
HETATM   19  C14 UNL     1     -11.921  -5.360  12.950  1.00  0.00     0.019 C
HETATM   20  C12 UNL     1     -10.933  -4.989  10.917  1.00  0.00    -0.023 C
HETATM   21  C13 UNL     1     -12.278  -5.344  11.450  1.00  0.00     0.038 C
ENDBRANCH  14  15
ENDBRANCH   3  14
TORSDOF 4
ENDMDL