MODEL 4
REMARK VINA RESULT: -6.928054273      1.645      4.914
REMARK  5 active torsions:
REMARK  status: ('A' for Active; 'I' for Inactive)
REMARK    1  A    between atoms: C6_6  and  O1_7
REMARK    2  A    between atoms: O1_7  and  C7_8
REMARK    3  A    between atoms: C7_8  and  C8_10
REMARK    4  A    between atoms: C13_15  and  C14_16
REMARK    5  A    between atoms: C14_16  and  O3_17
ROOT
HETATM    1  C1  UNL     1     -12.824 -13.614  10.144  1.00  0.00     0.010 C
HETATM    2  C2  UNL     1     -13.373 -12.565   9.166  1.00  0.00    -0.018 C
HETATM    3  C3  UNL     1     -12.412 -11.434   9.151  1.00  0.00     0.005 C
HETATM    4  C4  UNL     1     -13.188 -10.159   8.892  1.00  0.00     0.008 C
HETATM    5  C5  UNL     1     -14.011  -9.985  10.178  1.00  0.00     0.020 C
HETATM    6  C6  UNL     1     -14.441  -8.561  10.248  1.00  0.00     0.136 C
HETATM    7  C11 UNL     1     -15.557  -8.390   9.208  1.00  0.00     0.033 C
HETATM    8  C12 UNL     1     -16.698  -9.156   9.800  1.00  0.00     0.009 C
HETATM    9  C13 UNL     1     -16.451 -10.612   9.961  1.00  0.00     0.014 C
HETATM   10  C15 UNL     1     -15.047 -11.015  10.272  1.00  0.00    -0.002 C
HETATM   11  C16 UNL     1     -14.771 -12.270   9.469  1.00  0.00     0.010 C
ENDROOT
BRANCH   6  12
HETATM   12  O1  UNL     1     -13.410  -7.679   9.956  1.00  0.00    -0.315 OA
BRANCH  12  13
HETATM   13  C7  UNL     1     -12.670  -7.158  11.009  1.00  0.00     0.262 C
HETATM   14  O2  UNL     1     -13.263  -6.395  11.839  1.00  0.00    -0.265 OA
BRANCH  13  15
HETATM   15  C8  UNL     1     -11.252  -7.425  11.232  1.00  0.00     0.077 C
HETATM   16  C9  UNL     1     -11.002  -8.681  12.035  1.00  0.00     0.020 C
HETATM   17  C10 UNL     1     -10.598  -7.583   9.858  1.00  0.00     0.020 C
ENDBRANCH  13  15
ENDBRANCH  12  13
ENDBRANCH   6  12
BRANCH   9  18
HETATM   18  C14 UNL     1     -17.446 -11.096  11.031  1.00  0.00     0.169 C
BRANCH  18  19
HETATM   19  O3  UNL     1     -16.726 -11.379  12.164  1.00  0.00    -0.400 OA
ATOM     20  H3  UNL     1     -16.859 -12.298  12.363  1.00  0.00     0.209 HD
ENDBRANCH  18  19
ENDBRANCH   9  18
TORSDOF 5
ENDMDL