MODEL 3
REMARK VINA RESULT: -8.363096972      1.349      2.172
REMARK  5 active torsions:
REMARK  status: ('A' for Active; 'I' for Inactive)
REMARK    1  A    between atoms: C3_3  and  C4_4
REMARK    2  A    between atoms: C4_4  and  C5_5
REMARK    3  A    between atoms: C6_6  and  C7_7
REMARK    4  A    between atoms: C6_6  and  C8_10
REMARK    5  A    between atoms: C7_7  and  O1_8
ROOT
HETATM    1  C1  UNL     1     -17.444  -7.975   9.422  1.00  0.00     0.015 C
HETATM    2  C2  UNL     1     -16.933  -9.114   9.900  1.00  0.00    -0.080 C
HETATM    3  C3  UNL     1     -17.539 -10.462   9.988  1.00  0.00     0.018 C
HETATM    4  C10 UNL     1     -16.946 -10.994  11.265  1.00  0.00     0.016 C
HETATM    5  C11 UNL     1     -15.496 -10.580  11.141  1.00  0.00     0.018 C
HETATM    6  C12 UNL     1     -14.768 -11.619  10.318  1.00  0.00     0.174 C
HETATM    7  O3  UNL     1     -13.471 -11.260  10.028  1.00  0.00    -0.381 OA
HETATM    8  C13 UNL     1     -13.324  -9.973   9.580  1.00  0.00     0.054 C
HETATM    9  C14 UNL     1     -12.560 -10.036   8.251  1.00  0.00     0.045 C
HETATM   10  C15 UNL     1     -12.427  -9.235  10.572  1.00  0.00     0.045 C
HETATM   11  C16 UNL     1     -14.595  -9.242   9.318  1.00  0.00     0.046 C
HETATM   12  C17 UNL     1     -15.562  -9.249  10.464  1.00  0.00     0.023 C
ENDROOT
BRANCH   3  13
HETATM   13  C4  UNL     1     -19.048 -10.459  10.026  1.00  0.00     0.036 C
BRANCH  13  14
HETATM   14  C5  UNL     1     -19.518 -11.014  11.296  1.00  0.00    -0.013 C
HETATM   15  C6  UNL     1     -20.661 -11.661  11.494  1.00  0.00     0.007 C
BRANCH  15  16
HETATM   16  C7  UNL     1     -21.670 -11.941  10.470  1.00  0.00     0.206 C
BRANCH  16  17
HETATM   17  O1  UNL     1     -22.275 -13.158  10.806  1.00  0.00    -0.396 OA
ATOM     18  H1  UNL     1     -23.155 -12.961  11.106  1.00  0.00     0.209 HD
ENDBRANCH  16  17
ENDBRANCH  15  16
BRANCH  15  19
HETATM   19  C8  UNL     1     -20.930 -12.134  12.865  1.00  0.00     0.153 C
HETATM   20  C9  UNL     1     -19.800 -12.585  13.691  1.00  0.00     0.096 C
HETATM   21  O2  UNL     1     -22.108 -12.153  13.324  1.00  0.00    -0.293 OA
ENDBRANCH  15  19
ENDBRANCH  13  14
ENDBRANCH   3  13
TORSDOF 5
ENDMDL