MODEL 5
REMARK VINA RESULT: -4.188472712     13.580     15.246
REMARK  3 active torsions:
REMARK  status: ('A' for Active; 'I' for Inactive)
REMARK       I    between atoms: C2_2  and  N1_4
REMARK    1  A    between atoms: N1_4  and  C3_5
REMARK    2  A    between atoms: N1_4  and  C9_14
REMARK    3  A    between atoms: C7_10  and  C8_11
ROOT
HETATM    1  C3  UNL     1     -24.694 -14.556  14.569  1.00  0.00     0.093 A
HETATM    2  S1  UNL     1     -23.503 -13.680  15.416  1.00  0.00    -0.083 SA
HETATM    3  C4  UNL     1     -22.749 -12.892  14.110  1.00  0.00     0.059 A
HETATM    4  C5  UNL     1     -23.459 -13.341  13.029  1.00  0.00    -0.040 A
HETATM    5  C6  UNL     1     -23.066 -12.843  11.645  1.00  0.00     0.049 C
HETATM    6  C7  UNL     1     -24.464 -14.202  13.263  1.00  0.00     0.040 A
ENDROOT
BRANCH   1   7
HETATM    7  N1  UNL     1     -25.670 -15.433  15.146  1.00  0.00    -0.303 N
HETATM    8  C2  UNL     1     -25.370 -16.814  15.231  1.00  0.00     0.221 C
HETATM    9  C1  UNL     1     -24.114 -17.418  14.719  1.00  0.00     0.117 C
HETATM   10  O1  UNL     1     -26.192 -17.609  15.761  1.00  0.00    -0.273 OA
BRANCH   7  11
HETATM   11  C9  UNL     1     -26.907 -14.898  15.611  1.00  0.00     0.030 C
HETATM   12  C10 UNL     1     -28.103 -15.392  14.827  1.00  0.00     0.038 C
HETATM   13  C11 UNL     1     -27.170 -15.133  17.081  1.00  0.00     0.038 C
HETATM   14  C12 UNL     1     -26.958 -13.366  15.438  1.00  0.00     0.038 C
ENDBRANCH   7  11
ENDBRANCH   1   7
BRANCH   6  15
HETATM   15  C8  UNL     1     -25.289 -14.743  12.147  1.00  0.00     0.126 C
HETATM   16  N2  UNL     1     -24.831 -15.880  11.458  1.00  0.00    -0.089 NA
HETATM   17  S2  UNL     1     -26.684 -14.059  11.703  1.00  0.00    -0.063 SA
ENDBRANCH   6  15
TORSDOF 3
ENDMDL