MODEL 5
REMARK VINA RESULT: -7.710750108      1.660      2.394
REMARK  19 active torsions:
REMARK  status: ('A' for Active; 'I' for Inactive)
REMARK    1  A    between atoms: C2_2  and  C3_3
REMARK    2  A    between atoms: C3_3  and  C4_4
REMARK    3  A    between atoms: C4_4  and  C5_5
REMARK    4  A    between atoms: C5_5  and  C6_6
REMARK    5  A    between atoms: C5_5  and  N6_47
REMARK    6  A    between atoms: C6_6  and  C7_7
REMARK       I    between atoms: C7_7  and  N1_9
REMARK    7  A    between atoms: N2_14  and  C12_15
REMARK    8  A    between atoms: C12_15  and  O2_16
REMARK    9  A    between atoms: C12_15  and  C13_18
REMARK   10  A    between atoms: C13_18  and  C14_19
REMARK   11  A    between atoms: C13_18  and  N4_27
REMARK   12  A    between atoms: C14_19  and  C15_20
REMARK   13  A    between atoms: C15_20  and  C16_21
REMARK   14  A    between atoms: C16_21  and  C17_22
REMARK   15  A    between atoms: C17_22  and  N3_23
REMARK       I    between atoms: N4_27  and  C18_29
REMARK   16  A    between atoms: C18_29  and  C19_31
REMARK   17  A    between atoms: C19_31  and  N5_32
REMARK   18  A    between atoms: N5_32  and  C20_34
REMARK   19  A    between atoms: N6_47  and  C33_49
ROOT
HETATM    1  C12 UNL     1      -9.200  15.385  -2.684  1.00  0.00     0.161 C
ENDROOT
BRANCH   1   2
HETATM    2  N2  UNL     1      -9.802  15.725  -1.468  1.00  0.00    -0.360 N
HETATM    3  C11 UNL     1     -11.199  16.156  -1.446  1.00  0.00     0.126 C
HETATM    4  C10 UNL     1     -12.042  15.175  -0.646  1.00  0.00     0.033 C
HETATM    5  C9  UNL     1     -11.380  14.868   0.674  1.00  0.00    -0.005 C
HETATM    6  C8  UNL     1     -11.244  13.438   1.062  1.00  0.00     0.137 C
HETATM    7  C31 UNL     1     -10.171  15.735   0.906  1.00  0.00     0.033 C
HETATM    8  C32 UNL     1     -12.393  14.908   1.790  1.00  0.00     0.137 C
HETATM    9  N1  UNL     1     -11.712  13.804   2.408  1.00  0.00    -0.350 N
HETATM   10  C7  UNL     1     -11.577  13.320   3.722  1.00  0.00     0.221 C
HETATM   11  O1  UNL     1     -10.889  12.294   3.914  1.00  0.00    -0.273 OA
HETATM   12  C30 UNL     1      -9.145  15.671  -0.193  1.00  0.00     0.126 C
BRANCH  10  13
HETATM   13  C6  UNL     1     -12.243  14.031   4.819  1.00  0.00     0.127 C
BRANCH  13  14
HETATM   14  C5  UNL     1     -11.411  15.210   5.369  1.00  0.00     0.086 C
BRANCH  14  15
HETATM   15  C4  UNL     1     -12.145  16.509   5.247  1.00  0.00     0.025 C
BRANCH  15  16
HETATM   16  C3  UNL     1     -11.732  17.423   6.397  1.00  0.00     0.002 C
BRANCH  16  17
HETATM   17  C2  UNL     1     -11.053  18.671   5.865  1.00  0.00    -0.004 C
HETATM   18  C1  UNL     1     -11.339  18.827   4.381  1.00  0.00     0.005 C
ENDBRANCH  16  17
ENDBRANCH  15  16
ENDBRANCH  14  15
BRANCH  14  19
HETATM   19  N6  UNL     1     -10.161  15.110   4.725  1.00  0.00    -0.409 N
ATOM     20  H6  UNL     1     -10.138  15.092   3.705  1.00  0.00     0.154 HD
BRANCH  19  21
HETATM   21  C33 UNL     1      -8.953  15.035   5.421  1.00  0.00     0.015 C
HETATM   22  C34 UNL     1      -8.328  16.291   5.920  1.00  0.00     0.037 C
HETATM   23  C35 UNL     1      -7.938  14.359   4.468  1.00  0.00     0.037 C
HETATM   24  C36 UNL     1      -9.104  14.026   6.560  1.00  0.00     0.037 C
ENDBRANCH  19  21
ENDBRANCH  14  19
ENDBRANCH  13  14
ENDBRANCH  10  13
ENDBRANCH   1   2
BRANCH   1  25
HETATM   25  O2  UNL     1      -8.564  16.367  -3.259  1.00  0.00    -0.345 OA
ATOM     26  H2  UNL     1      -8.305  16.191  -4.157  1.00  0.00     0.219 HD
ENDBRANCH   1  25
BRANCH   1  27
HETATM   27  C13 UNL     1      -9.196  14.091  -3.377  1.00  0.00     0.063 C
BRANCH  27  28
HETATM   28  C14 UNL     1      -9.548  12.903  -2.558  1.00  0.00     0.062 C
BRANCH  28  29
HETATM   29  C15 UNL     1     -10.901  12.324  -2.690  1.00  0.00     0.008 C
BRANCH  29  30
HETATM   30  C16 UNL     1     -11.248  11.608  -3.940  1.00  0.00     0.027 C
BRANCH  30  31
HETATM   31  C17 UNL     1     -10.154  10.537  -4.182  1.00  0.00     0.229 C
BRANCH  31  32
HETATM   32  N3  UNL     1      -9.868  10.448  -5.586  1.00  0.00    -0.079 N
ATOM     33  H33 UNL     1     -10.670  10.113  -6.121  1.00  0.00     0.274 HD
ATOM     34  H32 UNL     1      -9.775  11.367  -6.019  1.00  0.00     0.274 HD
ATOM     35  H31 UNL     1      -9.040   9.869  -5.732  1.00  0.00     0.274 HD
ENDBRANCH  31  32
ENDBRANCH  30  31
ENDBRANCH  29  30
ENDBRANCH  28  29
ENDBRANCH  27  28
BRANCH  27  36
HETATM   36  N4  UNL     1      -8.046  13.905  -4.252  1.00  0.00    -0.325 N
HETATM   37  C18 UNL     1      -8.190  13.579  -5.637  1.00  0.00     0.239 C
HETATM   38  O3  UNL     1      -9.359  13.452  -6.107  1.00  0.00    -0.271 OA
ATOM     39  H4  UNL     1      -7.108  14.010  -3.864  1.00  0.00     0.168 HD
BRANCH  37  40
HETATM   40  C19 UNL     1      -6.980  13.403  -6.468  1.00  0.00     0.218 C
BRANCH  40  41
HETATM   41  N5  UNL     1      -5.822  13.399  -5.636  1.00  0.00    -0.404 N
ATOM     42  H5  UNL     1      -5.489  14.243  -5.168  1.00  0.00     0.154 HD
BRANCH  41  43
HETATM   43  C20 UNL     1      -5.153  12.141  -5.495  1.00  0.00     0.027 C
HETATM   44  C21 UNL     1      -5.996  11.054  -6.091  1.00  0.00     0.035 C
HETATM   45  C22 UNL     1      -5.315   9.724  -5.829  1.00  0.00    -0.012 C
HETATM   46  C23 UNL     1      -3.948   9.686  -6.484  1.00  0.00     0.009 C
HETATM   47  C27 UNL     1      -5.159   9.474  -4.366  1.00  0.00     0.009 C
HETATM   48  C24 UNL     1      -3.122  10.811  -5.910  1.00  0.00    -0.012 C
HETATM   49  C25 UNL     1      -2.941  10.654  -4.416  1.00  0.00     0.009 C
HETATM   50  C29 UNL     1      -3.813  12.111  -6.187  1.00  0.00     0.035 C
HETATM   51  C26 UNL     1      -4.290  10.573  -3.775  1.00  0.00    -0.012 C
HETATM   52  C28 UNL     1      -5.024  11.869  -4.010  1.00  0.00     0.035 C
ENDBRANCH  41  43
ENDBRANCH  40  41
ENDBRANCH  37  40
ENDBRANCH  27  36
ENDBRANCH   1  27
TORSDOF 19
ENDMDL