MODEL 3
REMARK VINA RESULT: -6.864721117      2.526      5.853
REMARK  18 active torsions:
REMARK  status: ('A' for Active; 'I' for Inactive)
REMARK    1  A    between atoms: C2_2  and  C3_3
REMARK    2  A    between atoms: C3_3  and  C4_4
REMARK    3  A    between atoms: C4_4  and  C5_5
REMARK    4  A    between atoms: C6_8  and  O1_9
REMARK    5  A    between atoms: C10_15  and  O2_16
REMARK    6  A    between atoms: C11_18  and  C12_19
REMARK    7  A    between atoms: C12_19  and  C13_20
REMARK    8  A    between atoms: C13_20  and  C14_21
REMARK    9  A    between atoms: C14_21  and  C15_22
REMARK   10  A    between atoms: C15_22  and  C16_23
REMARK   11  A    between atoms: C16_23  and  C17_24
REMARK   12  A    between atoms: N6_35  and  C21_36
REMARK   13  A    between atoms: C21_36  and  C22_37
REMARK   14  A    between atoms: C24_39  and  O4_40
REMARK   15  A    between atoms: N7_42  and  C25_43
REMARK   16  A    between atoms: C25_43  and  C26_44
REMARK   17  A    between atoms: C26_44  and  C27_45
REMARK   18  A    between atoms: C27_45  and  C28_46
ROOT
HETATM    1  C5  UNL     1     -10.345  10.815   1.640  1.00  0.00     0.119 C
HETATM    2  N1  UNL     1     -11.460  11.385   2.332  1.00  0.00    -0.364 N
ATOM      3  H1  UNL     1     -12.336  11.126   1.878  1.00  0.00     0.162 HD
HETATM    4  C6  UNL     1     -11.703  12.184   3.436  1.00  0.00     0.135 C
HETATM    5  C7  UNL     1     -11.516  12.113   4.848  1.00  0.00     0.156 C
HETATM    6  C8  UNL     1     -12.914  12.392   5.558  1.00  0.00     0.041 C
HETATM    7  N2  UNL     1     -10.528  12.777   5.624  1.00  0.00    -0.353 N
HETATM    8  C9  UNL     1     -10.571  12.183   7.054  1.00  0.00     0.152 C
HETATM    9  C10 UNL     1      -9.575  13.759   5.490  1.00  0.00     0.161 C
HETATM   10  C11 UNL     1      -9.341  15.082   4.973  1.00  0.00     0.063 C
HETATM   11  N5  UNL     1      -8.095  15.134   4.180  1.00  0.00    -0.325 N
ATOM     12  H5  UNL     1      -7.221  15.129   4.704  1.00  0.00     0.169 HD
HETATM   13  C18 UNL     1      -7.987  15.188   2.777  1.00  0.00     0.244 C
HETATM   14  O3  UNL     1      -7.282  16.161   2.303  1.00  0.00    -0.271 OA
HETATM   15  C19 UNL     1      -8.557  14.305   1.781  1.00  0.00     0.176 C
HETATM   16  C20 UNL     1      -9.370  15.197   0.837  1.00  0.00     0.042 C
HETATM   17  N6  UNL     1      -7.679  13.437   1.040  1.00  0.00    -0.334 N
HETATM   18  C24 UNL     1      -7.988  12.822  -0.200  1.00  0.00     0.222 C
HETATM   19  N7  UNL     1      -9.061  12.455  -1.020  1.00  0.00    -0.313 N
HETATM   20  C30 UNL     1     -10.083  11.427  -0.910  1.00  0.00     0.046 A
HETATM   21  C31 UNL     1     -10.663  11.064  -2.178  1.00  0.00     0.030 A
HETATM   22  C32 UNL     1     -11.662  10.142  -2.371  1.00  0.00     0.002 A
HETATM   23  C33 UNL     1     -12.167   9.501  -1.292  1.00  0.00     0.001 A
HETATM   24  C34 UNL     1     -11.635   9.825  -0.073  1.00  0.00     0.011 A
HETATM   25  C35 UNL     1     -10.611  10.768   0.139  1.00  0.00    -0.009 A
ENDROOT
BRANCH  10  26
HETATM   26  C12 UNL     1     -10.397  15.963   4.482  1.00  0.00     0.062 C
BRANCH  26  27
HETATM   27  C13 UNL     1     -11.634  16.089   5.322  1.00  0.00     0.006 C
BRANCH  27  28
HETATM   28  C14 UNL     1     -11.594  17.222   6.327  1.00  0.00     0.001 C
BRANCH  28  29
HETATM   29  C15 UNL     1     -12.446  18.344   5.853  1.00  0.00     0.007 C
BRANCH  29  30
HETATM   30  C16 UNL     1     -11.720  19.436   5.145  1.00  0.00     0.072 C
BRANCH  30  31
HETATM   31  C17 UNL     1     -11.999  19.473   3.715  1.00  0.00     0.086 C
HETATM   32  N3  UNL     1     -13.130  19.699   3.191  1.00  0.00    -0.391 N
ATOM     33  H32 UNL     1     -13.899  19.849   3.844  1.00  0.00     0.157 HD
ATOM     34  H31 UNL     1     -13.326  19.725   2.191  1.00  0.00     0.157 HD
HETATM   35  N4  UNL     1     -10.905  19.260   2.784  1.00  0.00    -0.088 NA
ENDBRANCH  30  31
ENDBRANCH  29  30
ENDBRANCH  28  29
ENDBRANCH  27  28
ENDBRANCH  26  27
ENDBRANCH  10  26
BRANCH   9  36
HETATM   36  O2  UNL     1      -8.423  13.360   6.043  1.00  0.00    -0.345 OA
ATOM     37  H2  UNL     1      -7.722  13.402   5.403  1.00  0.00     0.219 HD
ENDBRANCH   9  36
BRANCH   4  38
HETATM   38  O1  UNL     1     -12.274  13.330   3.082  1.00  0.00    -0.348 OA
ATOM     39  H1  UNL     1     -12.528  13.836   3.845  1.00  0.00     0.219 HD
ENDBRANCH   4  38
BRANCH  17  40
HETATM   40  C21 UNL     1      -6.314  13.277   1.580  1.00  0.00     0.127 C
BRANCH  40  41
HETATM   41  C22 UNL     1      -6.034  12.020   2.289  1.00  0.00     0.015 C
HETATM   42  C23 UNL     1      -6.797  11.672   3.491  1.00  0.00     0.006 C
ENDBRANCH  40  41
ENDBRANCH  17  40
BRANCH  18  43
HETATM   43  O4  UNL     1      -6.787  12.490  -0.771  1.00  0.00    -0.332 OA
ATOM     44  H4  UNL     1      -6.911  11.638  -1.171  1.00  0.00     0.221 HD
ENDBRANCH  18  43
BRANCH   1  45
HETATM   45  C4  UNL     1      -9.826   9.607   2.267  1.00  0.00     0.034 C
BRANCH  45  46
HETATM   46  C3  UNL     1      -8.935   8.594   1.755  1.00  0.00     0.028 C
BRANCH  46  47
HETATM   47  C2  UNL     1      -7.667   8.946   1.119  1.00  0.00    -0.037 C
HETATM   48  C1  UNL     1      -7.448   8.903  -0.179  1.00  0.00     0.007 C
ENDBRANCH  46  47
ENDBRANCH  45  46
ENDBRANCH   1  45
BRANCH  19  49
HETATM   49  C25 UNL     1      -9.145  13.325  -2.255  1.00  0.00     0.133 C
BRANCH  49  50
HETATM   50  C26 UNL     1      -8.167  14.422  -2.335  1.00  0.00     0.020 C
BRANCH  50  51
HETATM   51  C27 UNL     1      -7.728  14.535  -3.789  1.00  0.00     0.001 C
BRANCH  51  52
HETATM   52  C28 UNL     1      -6.350  14.022  -4.049  1.00  0.00    -0.004 C
HETATM   53  C29 UNL     1      -6.293  13.640  -5.535  1.00  0.00     0.005 C
ENDBRANCH  51  52
ENDBRANCH  50  51
ENDBRANCH  49  50
ENDBRANCH  19  49
TORSDOF 18
ENDMDL