MODEL 5
REMARK VINA RESULT: -6.359411935      2.751      7.882
REMARK  19 active torsions:
REMARK  status: ('A' for Active; 'I' for Inactive)
REMARK    1  A    between atoms: C2_2  and  C3_3
REMARK    2  A    between atoms: C3_3  and  C4_4
REMARK    3  A    between atoms: C4_4  and  N1_5
REMARK    4  A    between atoms: C4_4  and  C21_26
REMARK    5  A    between atoms: N1_5  and  C5_7
REMARK    6  A    between atoms: C5_7  and  C6_8
REMARK    7  A    between atoms: C5_7  and  C13_15
REMARK    8  A    between atoms: C6_8  and  C7_9
REMARK    9  A    between atoms: C13_15  and  C14_17
REMARK       I    between atoms: C14_17  and  N2_19
REMARK   10  A    between atoms: N2_19  and  C15_20
REMARK   11  A    between atoms: N2_19  and  C18_23
REMARK   12  A    between atoms: C21_26  and  N4_33
REMARK   13  A    between atoms: N3_27  and  C22_29
REMARK       I    between atoms: N5_36  and  C28_37
REMARK       I    between atoms: C28_37  and  N6_39
REMARK   14  A    between atoms: N6_39  and  C29_41
REMARK   15  A    between atoms: C29_41  and  C30_42
REMARK   16  A    between atoms: C30_42  and  C31_43
REMARK   17  A    between atoms: C31_43  and  C32_44
REMARK   18  A    between atoms: C32_44  and  C33_45
REMARK   19  A    between atoms: C33_45  and  N7_46
ROOT
HETATM    1  C21 UNL     1      -8.583  13.298   0.039  1.00  0.00     0.098 C
HETATM    2  N3  UNL     1      -9.183  12.286  -0.247  1.00  0.00    -0.370 N
ATOM      3  H3  UNL     1      -9.743  12.035   0.568  1.00  0.00     0.161 HD
ENDROOT
BRANCH   1   4
HETATM    4  C4  UNL     1      -8.764  13.938   1.414  1.00  0.00     0.144 C
BRANCH   4   5
HETATM    5  C3  UNL     1     -10.078  14.631   1.540  1.00  0.00     0.032 C
BRANCH   5   6
HETATM    6  C2  UNL     1     -10.040  16.117   1.314  1.00  0.00    -0.002 C
HETATM    7  C1  UNL     1      -8.642  16.573   1.697  1.00  0.00     0.005 C
ENDBRANCH   5   6
ENDBRANCH   4   5
BRANCH   4   8
HETATM    8  N1  UNL     1      -8.340  13.137   2.446  1.00  0.00    -0.399 N
ATOM      9  H1  UNL     1      -8.609  12.154   2.420  1.00  0.00     0.154 HD
BRANCH   8  10
HETATM   10  C5  UNL     1      -7.550  13.574   3.553  1.00  0.00     0.158 C
BRANCH  10  11
HETATM   11  C6  UNL     1      -8.133  13.833   4.856  1.00  0.00     0.037 C
BRANCH  11  12
HETATM   12  C7  UNL     1      -9.143  14.951   4.957  1.00  0.00    -0.012 C
HETATM   13  C8  UNL     1     -10.320  14.495   5.837  1.00  0.00     0.005 C
HETATM   14  C9  UNL     1     -11.257  15.641   5.998  1.00  0.00     0.000 C
HETATM   15  C10 UNL     1     -10.814  16.907   5.337  1.00  0.00     0.000 C
HETATM   16  C11 UNL     1      -9.415  17.308   5.747  1.00  0.00     0.000 C
HETATM   17  C12 UNL     1      -8.522  16.115   5.749  1.00  0.00     0.005 C
ENDBRANCH  11  12
ENDBRANCH  10  11
BRANCH  10  18
HETATM   18  C13 UNL     1      -6.370  12.609   3.525  1.00  0.00     0.238 C
HETATM   19  O1  UNL     1      -6.426  11.832   4.554  1.00  0.00    -0.285 OA
BRANCH  18  20
HETATM   20  C14 UNL     1      -5.313  12.463   2.623  1.00  0.00     0.292 C
HETATM   21  O2  UNL     1      -4.531  13.480   2.446  1.00  0.00    -0.264 OA
HETATM   22  N2  UNL     1      -4.936  11.345   1.833  1.00  0.00    -0.338 N
BRANCH  22  23
HETATM   23  C15 UNL     1      -3.770  11.557   0.930  1.00  0.00     0.080 C
HETATM   24  C16 UNL     1      -4.010  10.891  -0.384  1.00  0.00     0.032 C
HETATM   25  C17 UNL     1      -2.528  10.972   1.564  1.00  0.00     0.032 C
ENDBRANCH  22  23
BRANCH  22  26
HETATM   26  C18 UNL     1      -5.501  10.041   1.794  1.00  0.00     0.080 C
HETATM   27  C19 UNL     1      -6.994   9.989   1.584  1.00  0.00     0.032 C
HETATM   28  C20 UNL     1      -5.086   9.127   2.923  1.00  0.00     0.032 C
ENDBRANCH  22  26
ENDBRANCH  18  20
ENDBRANCH  10  18
ENDBRANCH   8  10
ENDBRANCH   4   8
ENDBRANCH   1   4
BRANCH   1  29
HETATM   29  N4  UNL     1      -7.683  14.003  -0.792  1.00  0.00    -0.366 N
HETATM   30  C26 UNL     1      -6.291  14.216  -0.560  1.00  0.00     0.144 C
HETATM   31  C27 UNL     1      -5.459  14.051  -1.782  1.00  0.00     0.147 C
HETATM   32  N5  UNL     1      -6.198  13.804  -2.996  1.00  0.00    -0.331 N
HETATM   33  C28 UNL     1      -5.731  12.863  -3.939  1.00  0.00     0.322 C
HETATM   34  C34 UNL     1      -7.400  14.548  -3.201  1.00  0.00     0.147 C
HETATM   35  O3  UNL     1      -4.646  12.280  -3.655  1.00  0.00    -0.247 OA
HETATM   36  N6  UNL     1      -6.374  12.531  -5.152  1.00  0.00    -0.319 N
ATOM     37  H6  UNL     1      -7.260  12.999  -5.346  1.00  0.00     0.169 HD
HETATM   38  C35 UNL     1      -8.283  14.584  -1.988  1.00  0.00     0.144 C
BRANCH  36  39
HETATM   39  C29 UNL     1      -5.913  11.622  -6.118  1.00  0.00     0.088 C
BRANCH  39  40
HETATM   40  C30 UNL     1      -5.955  10.167  -5.920  1.00  0.00    -0.009 C
BRANCH  40  41
HETATM   41  C31 UNL     1      -4.773   9.380  -5.570  1.00  0.00     0.030 C
BRANCH  41  42
HETATM   42  C32 UNL     1      -3.558  10.028  -6.273  1.00  0.00     0.031 C
BRANCH  42  43
HETATM   43  C33 UNL     1      -2.364  10.120  -5.384  1.00  0.00     0.230 C
BRANCH  43  44
HETATM   44  N7  UNL     1      -2.766  10.052  -3.979  1.00  0.00    -0.079 N
ATOM     45  H73 UNL     1      -1.960  10.058  -3.353  1.00  0.00     0.274 HD
ATOM     46  H72 UNL     1      -3.206  10.918  -3.668  1.00  0.00     0.274 HD
ATOM     47  H71 UNL     1      -3.365   9.243  -3.818  1.00  0.00     0.274 HD
ENDBRANCH  43  44
ENDBRANCH  42  43
ENDBRANCH  41  42
ENDBRANCH  40  41
ENDBRANCH  39  40
ENDBRANCH  36  39
ENDBRANCH   1  29
BRANCH   2  48
HETATM   48  C22 UNL     1      -9.427  11.329  -1.210  1.00  0.00     0.020 C
HETATM   49  C23 UNL     1      -8.185  10.787  -1.928  1.00  0.00     0.037 C
HETATM   50  C24 UNL     1     -10.100  10.122  -0.499  1.00  0.00     0.037 C
HETATM   51  C25 UNL     1     -10.405  11.684  -2.312  1.00  0.00     0.037 C
ENDBRANCH   2  48
TORSDOF 19
ENDMDL