MODEL 3
REMARK VINA RESULT: -6.950423790      2.455      8.336
REMARK  16 active torsions:
REMARK  status: ('A' for Active; 'I' for Inactive)
REMARK    1  A    between atoms: C2_2  and  C4_4
REMARK    2  A    between atoms: C4_4  and  C5_5
REMARK    3  A    between atoms: C5_5  and  C6_6
REMARK    4  A    between atoms: C6_6  and  C7_7
REMARK    5  A    between atoms: C7_7  and  C8_8
REMARK    6  A    between atoms: C8_8  and  C9_9
REMARK    7  A    between atoms: C10_12  and  C11_13
REMARK    8  A    between atoms: C17_21  and  C18_22
REMARK    9  A    between atoms: C18_22  and  C19_23
REMARK   10  A    between atoms: C19_23  and  C20_24
REMARK   11  A    between atoms: C20_24  and  C21_25
REMARK   12  A    between atoms: C21_25  and  N3_26
REMARK   13  A    between atoms: C24_34  and  C25_35
REMARK   14  A    between atoms: C25_35  and  C26_36
REMARK   15  A    between atoms: C30_43  and  C31_44
REMARK   16  A    between atoms: C31_44  and  C32_45
ROOT
HETATM    1  C9  UNL     1      -7.885  13.441   2.908  1.00  0.00     0.169 C
HETATM    2  N1  UNL     1      -7.104  12.378   2.478  1.00  0.00    -0.403 N
ATOM      3  H1  UNL     1      -6.425  12.013   3.146  1.00  0.00     0.154 HD
HETATM    4  C10 UNL     1      -7.147  11.756   1.236  1.00  0.00     0.098 C
HETATM    5  C14 UNL     1      -8.229  10.857   0.843  1.00  0.00     0.150 C
HETATM    6  N2  UNL     1      -7.907  10.220  -0.431  1.00  0.00    -0.353 N
HETATM    7  C15 UNL     1      -7.639   8.806  -0.458  1.00  0.00     0.152 C
HETATM    8  C16 UNL     1      -7.842  10.965  -1.646  1.00  0.00     0.242 C
HETATM    9  O1  UNL     1      -6.935  10.637  -2.491  1.00  0.00    -0.271 OA
HETATM   10  C17 UNL     1      -8.717  12.069  -1.999  1.00  0.00     0.179 C
HETATM   11  N4  UNL     1      -8.134  12.969  -2.995  1.00  0.00    -0.341 N
HETATM   12  C22 UNL     1      -7.719  12.431  -4.258  1.00  0.00     0.153 C
HETATM   13  C23 UNL     1      -7.951  14.361  -2.782  1.00  0.00     0.243 C
HETATM   14  O2  UNL     1      -7.142  14.961  -3.538  1.00  0.00    -0.271 OA
HETATM   15  C24 UNL     1      -8.633  15.149  -1.748  1.00  0.00     0.177 C
HETATM   16  N5  UNL     1      -7.763  15.316  -0.610  1.00  0.00    -0.346 N
ATOM     17  H5  UNL     1      -6.819  14.932  -0.665  1.00  0.00     0.163 HD
HETATM   18  C29 UNL     1      -8.148  15.984   0.582  1.00  0.00     0.241 C
HETATM   19  O3  UNL     1      -7.291  16.713   1.129  1.00  0.00    -0.271 OA
HETATM   20  C30 UNL     1      -9.489  15.882   1.223  1.00  0.00     0.177 C
HETATM   21  N6  UNL     1      -9.864  14.595   1.662  1.00  0.00    -0.346 N
ATOM     22  H6  UNL     1     -10.777  14.302   1.313  1.00  0.00     0.163 HD
HETATM   23  C35 UNL     1      -9.249  13.634   2.473  1.00  0.00     0.240 C
HETATM   24  O4  UNL     1     -10.037  12.719   2.948  1.00  0.00    -0.271 OA
ENDROOT
BRANCH   1  25
HETATM   25  C8  UNL     1      -7.791  13.426   4.457  1.00  0.00     0.034 C
BRANCH  25  26
HETATM   26  C7  UNL     1      -8.214  14.709   5.080  1.00  0.00     0.002 C
BRANCH  26  27
HETATM   27  C6  UNL     1      -8.919  14.365   6.385  1.00  0.00     0.000 C
BRANCH  27  28
HETATM   28  C5  UNL     1     -10.402  14.517   6.307  1.00  0.00     0.000 C
BRANCH  28  29
HETATM   29  C4  UNL     1     -10.801  15.559   5.264  1.00  0.00     0.004 C
BRANCH  29  30
HETATM   30  C2  UNL     1     -11.181  16.858   5.983  1.00  0.00    -0.023 C
HETATM   31  C1  UNL     1     -10.117  17.896   5.839  1.00  0.00     0.009 C
HETATM   32  C3  UNL     1     -12.512  17.372   5.491  1.00  0.00     0.009 C
ENDBRANCH  29  30
ENDBRANCH  28  29
ENDBRANCH  27  28
ENDBRANCH  26  27
ENDBRANCH  25  26
ENDBRANCH   1  25
BRANCH   4  33
HETATM   33  C11 UNL     1      -5.819  10.981   1.084  1.00  0.00     0.001 C
HETATM   34  C12 UNL     1      -4.675  12.000   0.937  1.00  0.00     0.011 C
HETATM   35  C13 UNL     1      -5.499  10.215   2.357  1.00  0.00     0.011 C
ENDBRANCH   4  33
BRANCH  20  36
HETATM   36  C31 UNL     1      -9.710  17.026   2.178  1.00  0.00     0.038 C
BRANCH  36  37
HETATM   37  C32 UNL     1     -11.022  17.676   2.202  1.00  0.00    -0.020 C
HETATM   38  C33 UNL     1     -12.007  17.281   1.147  1.00  0.00     0.009 C
HETATM   39  C34 UNL     1     -10.979  19.188   2.263  1.00  0.00     0.009 C
ENDBRANCH  36  37
ENDBRANCH  20  36
BRANCH  10  40
HETATM   40  C18 UNL     1     -10.124  11.708  -2.265  1.00  0.00     0.035 C
BRANCH  40  41
HETATM   41  C19 UNL     1     -11.223  12.659  -2.307  1.00  0.00     0.004 C
BRANCH  41  42
HETATM   42  C20 UNL     1     -11.849  13.153  -1.046  1.00  0.00     0.027 C
BRANCH  42  43
HETATM   43  C21 UNL     1     -11.905  12.005  -0.004  1.00  0.00     0.229 C
BRANCH  43  44
HETATM   44  N3  UNL     1     -12.597  12.433   1.185  1.00  0.00    -0.079 N
ATOM     45  H33 UNL     1     -11.967  12.885   1.848  1.00  0.00     0.274 HD
ATOM     46  H32 UNL     1     -13.215  13.223   0.999  1.00  0.00     0.274 HD
ATOM     47  H31 UNL     1     -13.097  11.652   1.610  1.00  0.00     0.274 HD
ENDBRANCH  43  44
ENDBRANCH  42  43
ENDBRANCH  41  42
ENDBRANCH  40  41
ENDBRANCH  10  40
BRANCH  15  48
HETATM   48  C25 UNL     1      -8.900  16.521  -2.334  1.00  0.00     0.038 C
BRANCH  48  49
HETATM   49  C26 UNL     1     -10.344  16.935  -2.152  1.00  0.00    -0.020 C
HETATM   50  C27 UNL     1     -11.125  16.354  -3.318  1.00  0.00     0.009 C
HETATM   51  C28 UNL     1     -10.523  18.426  -2.178  1.00  0.00     0.009 C
ENDBRANCH  48  49
ENDBRANCH  15  48
TORSDOF 16
ENDMDL