MODEL 4
REMARK VINA RESULT: -7.146791073      2.191      7.966
REMARK  16 active torsions:
REMARK  status: ('A' for Active; 'I' for Inactive)
REMARK    1  A    between atoms: C2_2  and  C3_3
REMARK    2  A    between atoms: C3_3  and  C4_4
REMARK    3  A    between atoms: C4_4  and  C5_5
REMARK    4  A    between atoms: C5_5  and  C6_6
REMARK    5  A    between atoms: C6_6  and  C7_7
REMARK    6  A    between atoms: C7_7  and  C8_8
REMARK    7  A    between atoms: C8_8  and  N1_9
REMARK    8  A    between atoms: C8_8  and  C24_32
REMARK       I    between atoms: N1_9  and  C9_11
REMARK    9  A    between atoms: C9_11  and  C10_13
REMARK   10  A    between atoms: C10_13  and  C11_14
REMARK   11  A    between atoms: C10_13  and  N2_20
REMARK   12  A    between atoms: C11_14  and  C12_15
REMARK       I    between atoms: N2_20  and  C17_22
REMARK       I    between atoms: C17_22  and  N3_24
REMARK   13  A    between atoms: N3_24  and  C18_26
REMARK       I    between atoms: C24_32  and  N4_34
REMARK       I    between atoms: N5_37  and  C27_38
REMARK   14  A    between atoms: C27_38  and  C28_40
REMARK   15  A    between atoms: C28_40  and  C30_42
REMARK   16  A    between atoms: C32_44  and  C33_45
ROOT
HETATM    1  C8  UNL     1      -8.958  16.151  -1.512  1.00  0.00     0.176 C
ENDROOT
BRANCH   1   2
HETATM    2  C7  UNL     1      -9.045  16.181  -3.046  1.00  0.00     0.035 C
BRANCH   2   3
HETATM    3  C6  UNL     1      -8.207  15.091  -3.652  1.00  0.00     0.002 C
BRANCH   3   4
HETATM    4  C5  UNL     1      -8.922  14.312  -4.739  1.00  0.00     0.000 C
BRANCH   4   5
HETATM    5  C4  UNL     1      -8.154  13.082  -5.144  1.00  0.00     0.000 C
BRANCH   5   6
HETATM    6  C3  UNL     1      -7.688  13.146  -6.562  1.00  0.00    -0.000 C
BRANCH   6   7
HETATM    7  C2  UNL     1      -8.256  11.999  -7.357  1.00  0.00    -0.005 C
HETATM    8  C1  UNL     1      -8.854  11.039  -6.325  1.00  0.00     0.005 C
ENDBRANCH   6   7
ENDBRANCH   5   6
ENDBRANCH   4   5
ENDBRANCH   3   4
ENDBRANCH   2   3
ENDBRANCH   1   2
BRANCH   1   9
HETATM    9  N1  UNL     1      -7.995  15.102  -1.127  1.00  0.00    -0.346 N
HETATM   10  C9  UNL     1      -6.870  15.355  -0.320  1.00  0.00     0.241 C
HETATM   11  O1  UNL     1      -6.682  16.546   0.082  1.00  0.00    -0.271 OA
ATOM     12  H1  UNL     1      -8.151  14.151  -1.461  1.00  0.00     0.163 HD
BRANCH  10  13
HETATM   13  C10 UNL     1      -5.867  14.342   0.107  1.00  0.00     0.178 C
BRANCH  13  14
HETATM   14  C11 UNL     1      -6.539  13.273   0.870  1.00  0.00     0.039 C
BRANCH  14  15
HETATM   15  C12 UNL     1      -6.088  13.104   2.288  1.00  0.00    -0.012 C
HETATM   16  C13 UNL     1      -6.105  11.602   2.571  1.00  0.00     0.005 C
HETATM   17  C14 UNL     1      -6.591  11.424   3.973  1.00  0.00     0.000 C
HETATM   18  C15 UNL     1      -7.561  12.569   4.142  1.00  0.00     0.000 C
HETATM   19  C16 UNL     1      -6.980  13.717   3.311  1.00  0.00     0.005 C
ENDBRANCH  14  15
ENDBRANCH  13  14
BRANCH  13  20
HETATM   20  N2  UNL     1      -5.079  13.890  -1.017  1.00  0.00    -0.330 N
HETATM   21  C17 UNL     1      -5.516  12.950  -1.978  1.00  0.00     0.317 C
HETATM   22  O2  UNL     1      -6.661  12.454  -1.879  1.00  0.00    -0.247 OA
HETATM   23  N3  UNL     1      -4.661  12.558  -3.063  1.00  0.00    -0.339 N
ATOM     24  H3  UNL     1      -3.737  12.989  -3.115  1.00  0.00     0.164 HD
ATOM     25  H2  UNL     1      -4.141  14.276  -1.125  1.00  0.00     0.165 HD
BRANCH  23  26
HETATM   26  C18 UNL     1      -5.010  11.605  -4.080  1.00  0.00     0.086 C
HETATM   27  C19 UNL     1      -4.471  10.229  -3.708  1.00  0.00     0.025 C
HETATM   28  C20 UNL     1      -4.898   9.172  -4.663  1.00  0.00     0.002 C
HETATM   29  C21 UNL     1      -5.464   9.779  -5.922  1.00  0.00     0.000 C
HETATM   30  C22 UNL     1      -4.554  10.885  -6.385  1.00  0.00     0.002 C
HETATM   31  C23 UNL     1      -4.476  12.044  -5.443  1.00  0.00     0.025 C
ENDBRANCH  23  26
ENDBRANCH  13  20
ENDBRANCH  10  13
ENDBRANCH   1   9
BRANCH   1  32
HETATM   32  C24 UNL     1     -10.289  15.800  -1.005  1.00  0.00     0.242 C
HETATM   33  O3  UNL     1     -10.960  14.923  -1.668  1.00  0.00    -0.271 OA
HETATM   34  N4  UNL     1     -10.941  16.302   0.131  1.00  0.00    -0.346 N
HETATM   35  C25 UNL     1     -10.308  17.247   0.998  1.00  0.00     0.145 C
HETATM   36  C34 UNL     1     -12.306  15.900   0.486  1.00  0.00     0.162 C
HETATM   37  C26 UNL     1     -10.747  17.129   2.437  1.00  0.00     0.147 C
HETATM   38  N5  UNL     1     -11.491  15.946   2.743  1.00  0.00    -0.334 N
HETATM   39  C27 UNL     1     -11.451  15.512   4.113  1.00  0.00     0.224 C
HETATM   40  C32 UNL     1     -12.267  15.185   1.815  1.00  0.00     0.206 C
HETATM   41  O4  UNL     1     -12.088  14.475   4.422  1.00  0.00    -0.273 OA
BRANCH  39  42
HETATM   42  C28 UNL     1     -10.706  16.220   5.169  1.00  0.00     0.074 C
HETATM   43  C29 UNL     1     -11.617  16.807   6.219  1.00  0.00     0.020 C
BRANCH  42  44
HETATM   44  C30 UNL     1      -9.709  15.273   5.834  1.00  0.00     0.009 C
HETATM   45  C31 UNL     1      -8.358  15.924   5.945  1.00  0.00     0.006 C
ENDBRANCH  42  44
ENDBRANCH  39  42
BRANCH  40  46
HETATM   46  C33 UNL     1     -11.726  13.799   1.616  1.00  0.00     0.198 C
HETATM   47  O5  UNL     1     -12.627  12.921   1.394  1.00  0.00    -0.646 OA
HETATM   48  O6  UNL     1     -10.386  13.490   1.666  1.00  0.00    -0.646 OA
ENDBRANCH  40  46
ENDBRANCH   1  32
TORSDOF 16
ENDMDL