MODEL 1
REMARK VINA RESULT: -7.461346579      0.000      0.000
REMARK  18 active torsions:
REMARK  status: ('A' for Active; 'I' for Inactive)
REMARK    1  A    between atoms: C2_2  and  C3_3
REMARK    2  A    between atoms: C3_3  and  C4_4
REMARK    3  A    between atoms: C4_4  and  C5_5
REMARK    4  A    between atoms: C5_5  and  C6_6
REMARK    5  A    between atoms: C6_6  and  C7_7
REMARK    6  A    between atoms: C7_7  and  C8_8
REMARK    7  A    between atoms: C8_8  and  C9_9
REMARK    8  A    between atoms: C9_9  and  C10_10
REMARK    9  A    between atoms: C10_10  and  C11_11
REMARK   10  A    between atoms: C11_11  and  C12_12
REMARK   11  A    between atoms: C12_12  and  N1_13
REMARK       I    between atoms: N1_13  and  C13_15
REMARK   12  A    between atoms: C13_15  and  C14_17
REMARK   13  A    between atoms: C20_26  and  C21_27
REMARK   14  A    between atoms: C20_26  and  N4_29
REMARK   15  A    between atoms: N4_29  and  C23_31
REMARK   16  A    between atoms: C25_34  and  O2_35
REMARK   17  A    between atoms: C30_45  and  C31_46
REMARK   18  A    between atoms: C31_46  and  C32_47
ROOT
HETATM    1  C14 UNL     1      -5.687  13.196  -0.515  1.00  0.00     0.125 C
HETATM    2  C15 UNL     1      -6.725  12.603  -1.446  1.00  0.00     0.049 C
HETATM    3  C16 UNL     1      -6.216  12.357  -2.841  1.00  0.00     0.136 C
HETATM    4  N2  UNL     1      -5.832  10.967  -3.081  1.00  0.00    -0.348 N
HETATM    5  C17 UNL     1      -6.985  10.091  -3.286  1.00  0.00     0.150 C
HETATM    6  C18 UNL     1      -7.702  10.569  -4.536  1.00  0.00     0.093 C
HETATM    7  C19 UNL     1      -7.057   9.860  -5.750  1.00  0.00     0.033 C
HETATM    8  N3  UNL     1      -7.691  11.921  -4.799  1.00  0.00    -0.390 N
ATOM      9  H3  UNL     1      -8.170  12.250  -5.637  1.00  0.00     0.156 HD
HETATM   10  C20 UNL     1      -7.049  12.889  -3.970  1.00  0.00     0.121 C
HETATM   11  C25 UNL     1      -4.534  10.423  -3.170  1.00  0.00     0.186 C
HETATM   12  C26 UNL     1      -3.459  10.426  -2.196  1.00  0.00     0.212 C
HETATM   13  O3  UNL     1      -2.411  11.104  -2.537  1.00  0.00    -0.288 OA
HETATM   14  C27 UNL     1      -3.364   9.779  -0.885  1.00  0.00     0.152 C
HETATM   15  C28 UNL     1      -4.311   8.619  -0.653  1.00  0.00     0.028 C
HETATM   16  C29 UNL     1      -3.283  10.693   0.283  1.00  0.00     0.233 C
HETATM   17  O4  UNL     1      -2.534  10.234   1.238  1.00  0.00    -0.272 OA
HETATM   18  N5  UNL     1      -3.866  11.926   0.508  1.00  0.00    -0.333 N
ATOM     19  H5  UNL     1      -3.197  12.689   0.614  1.00  0.00     0.168 HD
HETATM   20  C30 UNL     1      -5.249  12.336   0.619  1.00  0.00     0.003 C
ENDROOT
BRANCH   1  21
HETATM   21  C13 UNL     1      -6.034  14.595  -0.112  1.00  0.00     0.227 C
HETATM   22  N1  UNL     1      -7.284  14.799   0.526  1.00  0.00    -0.360 N
ATOM     23  H1  UNL     1      -7.912  14.014   0.701  1.00  0.00     0.162 HD
HETATM   24  O1  UNL     1      -5.275  15.565  -0.317  1.00  0.00    -0.273 OA
BRANCH  22  25
HETATM   25  C12 UNL     1      -7.657  16.146   0.927  1.00  0.00     0.122 C
BRANCH  25  26
HETATM   26  C11 UNL     1      -8.850  16.151   1.818  1.00  0.00     0.020 C
BRANCH  26  27
HETATM   27  C10 UNL     1      -8.715  15.159   2.936  1.00  0.00     0.002 C
BRANCH  27  28
HETATM   28  C9  UNL     1      -7.883  15.692   4.082  1.00  0.00     0.000 C
BRANCH  28  29
HETATM   29  C8  UNL     1      -8.322  15.075   5.385  1.00  0.00     0.000 C
BRANCH  29  30
HETATM   30  C7  UNL     1      -9.486  14.168   5.159  1.00  0.00     0.000 C
BRANCH  30  31
HETATM   31  C6  UNL     1     -10.616  14.460   6.096  1.00  0.00     0.000 C
BRANCH  31  32
HETATM   32  C5  UNL     1     -11.823  14.904   5.336  1.00  0.00     0.000 C
BRANCH  32  33
HETATM   33  C4  UNL     1     -11.836  16.373   5.048  1.00  0.00     0.000 C
BRANCH  33  34
HETATM   34  C3  UNL     1     -11.592  17.191   6.311  1.00  0.00    -0.000 C
BRANCH  34  35
HETATM   35  C2  UNL     1     -10.471  18.170   6.001  1.00  0.00    -0.005 C
HETATM   36  C1  UNL     1     -10.509  18.406   4.496  1.00  0.00     0.005 C
ENDBRANCH  34  35
ENDBRANCH  33  34
ENDBRANCH  32  33
ENDBRANCH  31  32
ENDBRANCH  30  31
ENDBRANCH  29  30
ENDBRANCH  28  29
ENDBRANCH  27  28
ENDBRANCH  26  27
ENDBRANCH  25  26
ENDBRANCH  22  25
ENDBRANCH   1  21
BRANCH  20  37
HETATM   37  C31 UNL     1      -6.204  11.333   1.135  1.00  0.00     0.057 C
BRANCH  37  38
HETATM   38  C32 UNL     1      -6.484  11.463   2.611  1.00  0.00    -0.018 C
HETATM   39  C33 UNL     1      -7.957  11.507   2.951  1.00  0.00     0.010 C
HETATM   40  C34 UNL     1      -5.864  12.738   3.176  1.00  0.00     0.010 C
ENDBRANCH  37  38
ENDBRANCH  20  37
BRANCH  10  41
HETATM   41  C21 UNL     1      -6.061  13.560  -4.979  1.00  0.00     0.051 C
HETATM   42  C22 UNL     1      -6.575  13.497  -6.377  1.00  0.00     0.009 C
ENDBRANCH  10  41
BRANCH  10  43
HETATM   43  N4  UNL     1      -7.992  13.921  -3.658  1.00  0.00    -0.357 N
ATOM     44  H4  UNL     1      -7.598  14.742  -3.198  1.00  0.00     0.162 HD
BRANCH  43  45
HETATM   45  C23 UNL     1      -9.367  13.975  -3.887  1.00  0.00     0.071 C
HETATM   46  C24 UNL     1      -9.927  14.884  -4.954  1.00  0.00     0.081 C
HETATM   47  S1  UNL     1     -10.489  13.092  -3.098  1.00  0.00    -0.066 SA
ENDBRANCH  43  45
ENDBRANCH  10  43
BRANCH  11  48
HETATM   48  O2  UNL     1      -4.245   9.816  -4.310  1.00  0.00    -0.344 OA
ATOM     49  H2  UNL     1      -4.136   8.874  -4.258  1.00  0.00     0.219 HD
ENDBRANCH  11  48
TORSDOF 18
ENDMDL