MODEL 5
REMARK VINA RESULT: -7.430296997      2.782     10.099
REMARK  18 active torsions:
REMARK  status: ('A' for Active; 'I' for Inactive)
REMARK    1  A    between atoms: C2_2  and  C3_3
REMARK    2  A    between atoms: C3_3  and  N1_4
REMARK    3  A    between atoms: C3_3  and  C27_40
REMARK    4  A    between atoms: N1_4  and  C4_6
REMARK    5  A    between atoms: C4_6  and  O1_7
REMARK    6  A    between atoms: C4_6  and  C5_9
REMARK       I    between atoms: N2_10  and  C6_11
REMARK    7  A    between atoms: C6_11  and  C7_13
REMARK    8  A    between atoms: C7_13  and  N3_14
REMARK    9  A    between atoms: C7_13  and  C19_31
REMARK       I    between atoms: N3_14  and  C8_16
REMARK   10  A    between atoms: C8_16  and  C9_18
REMARK   11  A    between atoms: C9_18  and  C10_19
REMARK   12  A    between atoms: C9_18  and  N4_26
REMARK   13  A    between atoms: C10_19  and  C11_20
REMARK       I    between atoms: N4_26  and  C17_28
REMARK   14  A    between atoms: C19_31  and  C21_33
REMARK       I    between atoms: C27_40  and  N5_42
REMARK   15  A    between atoms: N5_42  and  C28_44
REMARK   16  A    between atoms: C28_44  and  C29_45
REMARK   17  A    between atoms: C29_45  and  C30_46
REMARK   18  A    between atoms: C30_46  and  C31_47
ROOT
HETATM    1  C5  UNL     1      -7.311  13.981  -1.015  1.00  0.00     0.180 C
HETATM    2  N2  UNL     1      -7.738  13.308   0.135  1.00  0.00    -0.328 N
HETATM    3  C6  UNL     1      -7.170  13.218   1.391  1.00  0.00     0.244 C
HETATM    4  O2  UNL     1      -6.146  13.961   1.614  1.00  0.00    -0.271 OA
HETATM    5  C23 UNL     1      -9.096  12.768  -0.149  1.00  0.00     0.201 C
HETATM    6  S1  UNL     1      -9.846  14.350  -0.792  1.00  0.00    -0.137 SA
HETATM    7  C24 UNL     1      -8.225  15.157  -1.212  1.00  0.00     0.030 C
HETATM    8  C25 UNL     1      -8.297  15.469  -2.682  1.00  0.00     0.029 C
HETATM    9  C26 UNL     1      -8.017  16.313  -0.324  1.00  0.00     0.029 C
ENDROOT
BRANCH   1  10
HETATM   10  C4  UNL     1      -5.933  14.270  -1.210  1.00  0.00     0.137 C
BRANCH  10  11
HETATM   11  N1  UNL     1      -4.950  13.543  -1.949  1.00  0.00    -0.359 N
ATOM     12  H1  UNL     1      -4.011  13.935  -2.034  1.00  0.00     0.162 HD
BRANCH  11  13
HETATM   13  C3  UNL     1      -5.238  12.252  -2.592  1.00  0.00     0.175 C
BRANCH  13  14
HETATM   14  C2  UNL     1      -4.099  11.361  -2.087  1.00  0.00     0.030 C
HETATM   15  C1  UNL     1      -4.195  10.994  -0.654  1.00  0.00     0.007 C
ENDBRANCH  13  14
BRANCH  13  16
HETATM   16  C27 UNL     1      -5.249  12.417  -4.037  1.00  0.00     0.240 C
HETATM   17  O5  UNL     1      -4.546  11.637  -4.775  1.00  0.00    -0.271 OA
HETATM   18  N5  UNL     1      -5.981  13.388  -4.760  1.00  0.00    -0.359 N
ATOM     19  H5  UNL     1      -6.560  14.047  -4.239  1.00  0.00     0.162 HD
BRANCH  18  20
HETATM   20  C28 UNL     1      -5.949  13.494  -6.213  1.00  0.00     0.122 C
BRANCH  20  21
HETATM   21  C29 UNL     1      -7.326  13.416  -6.765  1.00  0.00     0.020 C
BRANCH  21  22
HETATM   22  C30 UNL     1      -7.869  12.084  -7.073  1.00  0.00     0.005 C
BRANCH  22  23
HETATM   23  C31 UNL     1      -9.034  11.564  -6.345  1.00  0.00    -0.023 C
HETATM   24  C32 UNL     1     -10.144  11.018  -7.195  1.00  0.00     0.009 C
HETATM   25  C33 UNL     1      -9.565  12.485  -5.280  1.00  0.00     0.009 C
ENDBRANCH  22  23
ENDBRANCH  21  22
ENDBRANCH  20  21
ENDBRANCH  18  20
ENDBRANCH  13  16
ENDBRANCH  11  13
ENDBRANCH  10  11
BRANCH  10  26
HETATM   26  O1  UNL     1      -5.411  15.351  -0.678  1.00  0.00    -0.348 OA
ATOM     27  H1  UNL     1      -4.980  15.147   0.144  1.00  0.00     0.219 HD
ENDBRANCH  10  26
ENDBRANCH   1  10
BRANCH   3  28
HETATM   28  C7  UNL     1      -7.641  12.331   2.518  1.00  0.00     0.180 C
BRANCH  28  29
HETATM   29  N3  UNL     1      -8.483  13.000   3.461  1.00  0.00    -0.346 N
HETATM   30  C8  UNL     1      -9.853  12.689   3.681  1.00  0.00     0.241 C
HETATM   31  O3  UNL     1     -10.416  11.739   3.015  1.00  0.00    -0.271 OA
ATOM     32  H3  UNL     1      -8.072  13.753   4.014  1.00  0.00     0.163 HD
BRANCH  30  33
HETATM   33  C9  UNL     1     -10.710  13.396   4.648  1.00  0.00     0.177 C
BRANCH  33  34
HETATM   34  C10 UNL     1     -11.312  14.674   4.185  1.00  0.00     0.039 C
BRANCH  34  35
HETATM   35  C11 UNL     1     -10.910  15.962   4.726  1.00  0.00    -0.012 C
HETATM   36  C12 UNL     1     -12.092  16.362   5.658  1.00  0.00     0.005 C
HETATM   37  C13 UNL     1     -11.774  17.616   6.395  1.00  0.00     0.000 C
HETATM   38  C14 UNL     1     -10.654  18.399   5.767  1.00  0.00     0.000 C
HETATM   39  C15 UNL     1      -9.415  17.575   5.782  1.00  0.00     0.000 C
HETATM   40  C16 UNL     1      -9.725  16.073   5.598  1.00  0.00     0.005 C
ENDBRANCH  34  35
ENDBRANCH  33  34
BRANCH  33  41
HETATM   41  N4  UNL     1     -11.706  12.488   5.205  1.00  0.00    -0.348 N
HETATM   42  C17 UNL     1     -11.566  11.854   6.456  1.00  0.00     0.214 C
HETATM   43  C18 UNL     1     -12.581  10.928   7.003  1.00  0.00     0.117 C
HETATM   44  O4  UNL     1     -10.536  12.089   7.123  1.00  0.00    -0.274 OA
ATOM     45  H4  UNL     1     -12.548  12.301   4.661  1.00  0.00     0.163 HD
ENDBRANCH  33  41
ENDBRANCH  30  33
ENDBRANCH  28  29
BRANCH  28  46
HETATM   46  C19 UNL     1      -6.454  11.628   3.147  1.00  0.00     0.013 C
HETATM   47  C20 UNL     1      -6.422  11.709   4.638  1.00  0.00     0.012 C
BRANCH  46  48
HETATM   48  C21 UNL     1      -6.452  10.198   2.656  1.00  0.00     0.002 C
HETATM   49  C22 UNL     1      -5.030   9.623   2.684  1.00  0.00     0.005 C
ENDBRANCH  46  48
ENDBRANCH  28  46
ENDBRANCH   3  28
TORSDOF 18
ENDMDL