MODEL 4
REMARK VINA RESULT: -7.833660142      5.082     12.390
REMARK  15 active torsions:
REMARK  status: ('A' for Active; 'I' for Inactive)
REMARK    1  A    between atoms: C2_2  and  C3_3
REMARK    2  A    between atoms: C3_3  and  N1_4
REMARK    3  A    between atoms: N1_4  and  C4_5
REMARK       I    between atoms: N1_4  and  C7_8
REMARK    4  A    between atoms: C4_5  and  C5_6
REMARK       I    between atoms: C7_8  and  N2_10
REMARK    5  A    between atoms: N2_10  and  C8_12
REMARK    6  A    between atoms: C8_12  and  C9_13
REMARK    7  A    between atoms: C9_13  and  N3_14
REMARK       I    between atoms: N3_14  and  C10_16
REMARK    8  A    between atoms: C10_16  and  C11_18
REMARK    9  A    between atoms: C11_18  and  N4_19
REMARK   10  A    between atoms: C11_18  and  C19_29
REMARK   11  A    between atoms: N4_19  and  C12_22
REMARK       I    between atoms: C19_29  and  N5_31
REMARK   12  A    between atoms: C26_38  and  C27_39
REMARK       I    between atoms: C27_39  and  N6_41
REMARK   13  A    between atoms: N6_41  and  C28_43
REMARK   14  A    between atoms: C28_43  and  C29_44
REMARK   15  A    between atoms: C28_43  and  C31_46
ROOT
HETATM    1  C11 UNL     1      -4.158  10.752  -1.904  1.00  0.00     0.368 C
ENDROOT
BRANCH   1   2
HETATM    2  C10 UNL     1      -3.908  11.087  -3.310  1.00  0.00     0.258 C
HETATM    3  N3  UNL     1      -3.103  10.299  -4.169  1.00  0.00    -0.357 N
ATOM      4  H3  UNL     1      -2.674   9.447  -3.810  1.00  0.00     0.162 HD
HETATM    5  O2  UNL     1      -4.441  12.144  -3.788  1.00  0.00    -0.271 OA
BRANCH   3   6
HETATM    6  C9  UNL     1      -2.877  10.684  -5.560  1.00  0.00     0.142 C
BRANCH   6   7
HETATM    7  C8  UNL     1      -3.733   9.818  -6.458  1.00  0.00     0.144 C
BRANCH   7   8
HETATM    8  N2  UNL     1      -5.031  10.446  -6.620  1.00  0.00    -0.341 N
HETATM    9  C7  UNL     1      -6.135  10.023  -5.837  1.00  0.00     0.318 C
HETATM   10  N1  UNL     1      -7.427  10.604  -5.963  1.00  0.00    -0.334 N
HETATM   11  O1  UNL     1      -5.955   9.093  -4.996  1.00  0.00    -0.247 OA
ATOM     12  H2  UNL     1      -5.150  11.196  -7.301  1.00  0.00     0.164 HD
BRANCH  10  13
HETATM   13  C3  UNL     1      -8.466  10.104  -5.105  1.00  0.00     0.127 C
BRANCH  13  14
HETATM   14  C2  UNL     1      -9.747   9.827  -5.798  1.00  0.00     0.015 C
HETATM   15  C1  UNL     1      -9.772   8.445  -6.388  1.00  0.00     0.006 C
ENDBRANCH  13  14
ENDBRANCH  10  13
BRANCH  10  16
HETATM   16  C4  UNL     1      -7.651  11.674  -6.926  1.00  0.00     0.127 C
BRANCH  16  17
HETATM   17  C5  UNL     1      -7.678  13.027  -6.221  1.00  0.00     0.015 C
HETATM   18  C6  UNL     1      -6.302  13.639  -6.286  1.00  0.00     0.006 C
ENDBRANCH  16  17
ENDBRANCH  10  16
ENDBRANCH   7   8
ENDBRANCH   6   7
ENDBRANCH   3   6
ENDBRANCH   1   2
BRANCH   1  19
HETATM   19  N4  UNL     1      -3.769   9.358  -1.622  1.00  0.00    -0.049 N
ATOM     20  H42 UNL     1      -4.481   8.895  -1.057  1.00  0.00     0.279 HD
ATOM     21  H41 UNL     1      -3.826   8.792  -2.469  1.00  0.00     0.279 HD
BRANCH  19  22
HETATM   22  C12 UNL     1      -2.485   9.223  -1.017  1.00  0.00     0.187 C
HETATM   23  C13 UNL     1      -1.951  10.579  -0.577  1.00  0.00     0.033 C
HETATM   24  C14 UNL     1      -1.391  10.575   0.805  1.00  0.00     0.002 C
HETATM   25  C15 UNL     1      -2.453  10.613   1.889  1.00  0.00     0.000 C
HETATM   26  C16 UNL     1      -2.829   9.220   2.333  1.00  0.00     0.000 C
HETATM   27  C17 UNL     1      -3.517   8.523   1.172  1.00  0.00     0.002 C
HETATM   28  C18 UNL     1      -2.531   8.215   0.082  1.00  0.00     0.033 C
ENDBRANCH  19  22
ENDBRANCH   1  19
BRANCH   1  29
HETATM   29  C19 UNL     1      -5.586  10.816  -1.541  1.00  0.00     0.260 C
HETATM   30  O3  UNL     1      -6.311   9.795  -1.776  1.00  0.00    -0.270 OA
HETATM   31  N5  UNL     1      -6.171  11.944  -0.951  1.00  0.00    -0.350 N
HETATM   32  C20 UNL     1      -5.510  13.172  -0.586  1.00  0.00     0.126 C
HETATM   33  C35 UNL     1      -7.625  11.954  -0.638  1.00  0.00     0.126 C
HETATM   34  C21 UNL     1      -6.128  13.730   0.650  1.00  0.00     0.029 C
HETATM   35  C22 UNL     1      -6.748  12.721   1.574  1.00  0.00    -0.037 C
HETATM   36  C23 UNL     1      -5.660  11.936   2.233  1.00  0.00     0.010 C
HETATM   37  C33 UNL     1      -7.500  13.486   2.634  1.00  0.00     0.023 C
HETATM   38  C34 UNL     1      -7.754  11.842   0.866  1.00  0.00     0.029 C
HETATM   39  C24 UNL     1      -6.171  10.955   3.253  1.00  0.00     0.002 C
HETATM   40  C25 UNL     1      -7.045  11.624   4.253  1.00  0.00     0.014 C
HETATM   41  C26 UNL     1      -8.027  12.604   3.734  1.00  0.00     0.078 C
BRANCH  41  42
HETATM   42  C27 UNL     1      -8.445  13.507   4.833  1.00  0.00     0.222 C
HETATM   43  O4  UNL     1      -7.919  13.353   5.963  1.00  0.00    -0.273 OA
HETATM   44  N6  UNL     1      -9.413  14.533   4.652  1.00  0.00    -0.356 N
ATOM     45  H6  UNL     1      -9.830  14.643   3.727  1.00  0.00     0.162 HD
BRANCH  44  46
HETATM   46  C28 UNL     1      -9.838  15.422   5.693  1.00  0.00     0.083 C
BRANCH  46  47
HETATM   47  C29 UNL     1     -11.318  15.598   5.648  1.00  0.00     0.021 C
HETATM   48  C30 UNL     1     -12.024  14.331   5.196  1.00  0.00     0.007 C
ENDBRANCH  46  47
BRANCH  46  49
HETATM   49  C31 UNL     1      -9.092  16.738   5.659  1.00  0.00     0.021 C
HETATM   50  C32 UNL     1     -10.039  17.914   5.766  1.00  0.00     0.007 C
ENDBRANCH  46  49
ENDBRANCH  44  46
ENDBRANCH  41  42
ENDBRANCH   1  29
TORSDOF 15
ENDMDL