MODEL 4
REMARK VINA RESULT: -6.458362323      3.164      5.733
REMARK  20 active torsions:
REMARK  status: ('A' for Active; 'I' for Inactive)
REMARK    1  A    between atoms: C2_2  and  C3_3
REMARK    2  A    between atoms: C5_5  and  C6_6
REMARK    3  A    between atoms: C6_6  and  C7_7
REMARK    4  A    between atoms: C8_8  and  C9_9
REMARK    5  A    between atoms: C9_9  and  O1_10
REMARK    6  A    between atoms: C9_9  and  N1_12
REMARK    7  A    between atoms: N1_12  and  C10_14
REMARK    8  A    between atoms: C10_14  and  C11_15
REMARK    9  A    between atoms: C10_14  and  C15_23
REMARK   10  A    between atoms: C11_15  and  C12_16
REMARK       I    between atoms: C15_23  and  N4_25
REMARK   11  A    between atoms: N4_25  and  C17_27
REMARK   12  A    between atoms: C22_32  and  O3_33
REMARK   13  A    between atoms: C23_35  and  O4_36
REMARK   14  A    between atoms: C25_39  and  C27_41
REMARK   15  A    between atoms: C27_41  and  C28_42
REMARK   16  A    between atoms: C28_42  and  C29_43
REMARK   17  A    between atoms: C29_43  and  C30_44
REMARK   18  A    between atoms: C30_44  and  C31_45
REMARK   19  A    between atoms: C31_45  and  C32_46
REMARK   20  A    between atoms: C32_46  and  C33_47
REMARK       I    between atoms: C33_47  and  N5_49
ROOT
HETATM    1  C7  UNL     1      -8.587  14.901  -0.266  1.00  0.00     0.014 A
HETATM    2  C8  UNL     1      -8.000  14.495   1.064  1.00  0.00     0.075 A
HETATM    3  C19 UNL     1      -6.990  13.575   0.415  1.00  0.00    -0.015 A
HETATM    4  C20 UNL     1      -7.212  12.136   0.910  1.00  0.00     0.014 C
HETATM    5  C21 UNL     1      -6.730  12.000   2.338  1.00  0.00     0.035 C
HETATM    6  C22 UNL     1      -5.248  11.881   2.331  1.00  0.00     0.147 C
HETATM    7  C23 UNL     1      -4.736  12.578   1.069  1.00  0.00     0.147 C
HETATM    8  C24 UNL     1      -5.575  13.826   0.775  1.00  0.00     0.045 C
HETATM    9  C25 UNL     1      -7.611  13.936  -0.871  1.00  0.00    -0.013 A
HETATM   10  C26 UNL     1      -8.504  12.692  -1.260  1.00  0.00     0.021 C
ENDROOT
BRANCH   2  11
HETATM   11  C9  UNL     1      -7.632  15.495   2.015  1.00  0.00     0.117 C
BRANCH  11  12
HETATM   12  O1  UNL     1      -7.250  16.653   1.555  1.00  0.00    -0.349 OA
ATOM     13  H1  UNL     1      -6.421  16.997   1.865  1.00  0.00     0.219 HD
ENDBRANCH  11  12
BRANCH  11  14
HETATM   14  N1  UNL     1      -7.592  15.480   3.427  1.00  0.00    -0.360 N
ATOM     15  H1  UNL     1      -6.721  15.736   3.891  1.00  0.00     0.162 HD
BRANCH  14  16
HETATM   16  C10 UNL     1      -8.747  15.112   4.259  1.00  0.00     0.181 C
BRANCH  16  17
HETATM   17  C11 UNL     1      -8.268  13.991   5.154  1.00  0.00     0.093 C
BRANCH  17  18
HETATM   18  C12 UNL     1      -9.329  13.098   5.623  1.00  0.00     0.028 A
HETATM   19  C13 UNL     1     -10.047  12.255   4.775  1.00  0.00     0.114 A
HETATM   20  N2  UNL     1     -10.916  11.590   5.538  1.00  0.00    -0.360 N
HETATM   21  C14 UNL     1     -10.754  11.995   6.817  1.00  0.00     0.180 A
ATOM     22  H2  UNL     1     -11.588  10.895   5.213  1.00  0.00     0.166 HD
HETATM   23  N3  UNL     1      -9.782  12.923   6.890  1.00  0.00    -0.354 N
ATOM     24  H3  UNL     1      -9.451  13.399   7.729  1.00  0.00     0.166 HD
ENDBRANCH  17  18
ENDBRANCH  16  17
BRANCH  16  25
HETATM   25  C15 UNL     1      -9.091  16.286   5.079  1.00  0.00     0.242 C
HETATM   26  O2  UNL     1      -8.378  16.467   6.124  1.00  0.00    -0.271 OA
HETATM   27  N4  UNL     1     -10.118  17.196   4.794  1.00  0.00    -0.355 N
HETATM   28  C16 UNL     1     -10.951  17.082   3.623  1.00  0.00     0.152 C
BRANCH  27  29
HETATM   29  C17 UNL     1     -10.363  18.319   5.727  1.00  0.00     0.120 C
HETATM   30  C18 UNL     1     -11.612  17.994   6.486  1.00  0.00     0.026 C
ENDBRANCH  27  29
ENDBRANCH  16  25
ENDBRANCH  14  16
ENDBRANCH  11  14
ENDBRANCH   2  11
BRANCH   1  31
HETATM   31  C6  UNL     1      -8.616  16.340  -0.585  1.00  0.00     0.034 C
BRANCH  31  32
HETATM   32  C5  UNL     1      -9.954  16.844  -0.953  1.00  0.00    -0.020 C
HETATM   33  C3  UNL     1     -10.247  17.102  -2.231  1.00  0.00    -0.067 C
HETATM   34  C4  UNL     1      -9.276  16.897  -3.313  1.00  0.00     0.048 C
BRANCH  33  35
HETATM   35  C2  UNL     1     -11.575  17.597  -2.534  1.00  0.00    -0.004 C
HETATM   36  C1  UNL     1     -12.619  16.815  -2.598  1.00  0.00     0.012 C
ENDBRANCH  33  35
ENDBRANCH  31  32
ENDBRANCH   1  31
BRANCH   9  37
HETATM   37  C27 UNL     1      -6.897  14.209  -2.103  1.00  0.00    -0.017 C
BRANCH  37  38
HETATM   38  C28 UNL     1      -7.190  13.764  -3.425  1.00  0.00    -0.007 C
BRANCH  38  39
HETATM   39  C29 UNL     1      -6.651  14.184  -4.564  1.00  0.00    -0.027 C
BRANCH  39  40
HETATM   40  C30 UNL     1      -6.619  13.467  -5.863  1.00  0.00     0.027 C
BRANCH  40  41
HETATM   41  C31 UNL     1      -5.210  13.117  -6.280  1.00  0.00     0.013 C
BRANCH  41  42
HETATM   42  C32 UNL     1      -4.812  11.704  -6.052  1.00  0.00     0.103 C
BRANCH  42  43
HETATM   43  C33 UNL     1      -3.691  11.457  -5.158  1.00  0.00     0.219 C
HETATM   44  O5  UNL     1      -2.516  11.661  -5.534  1.00  0.00    -0.273 OA
HETATM   45  N5  UNL     1      -3.907  10.984  -3.848  1.00  0.00    -0.361 N
HETATM   46  C34 UNL     1      -2.790  10.745  -2.974  1.00  0.00     0.152 C
HETATM   47  C35 UNL     1      -5.241  10.739  -3.377  1.00  0.00     0.152 C
ENDBRANCH  42  43
ENDBRANCH  41  42
ENDBRANCH  40  41
ENDBRANCH  39  40
ENDBRANCH  38  39
ENDBRANCH  37  38
ENDBRANCH   9  37
BRANCH   7  48
HETATM   48  O4  UNL     1      -4.512  11.735   0.046  1.00  0.00    -0.393 OA
ATOM     49  H4  UNL     1      -4.532  12.158  -0.805  1.00  0.00     0.210 HD
ENDBRANCH   7  48
BRANCH   6  50
HETATM   50  O3  UNL     1      -4.835  10.536   2.281  1.00  0.00    -0.393 OA
ATOM     51  H3  UNL     1      -4.301  10.304   3.032  1.00  0.00     0.210 HD
ENDBRANCH   6  50
TORSDOF 20
ENDMDL