MODEL 4
REMARK VINA RESULT: -7.059239938      2.382      6.799
REMARK  17 active torsions:
REMARK  status: ('A' for Active; 'I' for Inactive)
REMARK    1  A    between atoms: C2_2  and  C3_3
REMARK    2  A    between atoms: C3_3  and  N1_4
REMARK       I    between atoms: N1_4  and  C4_6
REMARK       I    between atoms: C4_6  and  N2_8
REMARK    3  A    between atoms: N2_8  and  C5_10
REMARK    4  A    between atoms: C5_10  and  C6_11
REMARK    5  A    between atoms: C6_11  and  C7_12
REMARK    6  A    between atoms: C7_12  and  C8_13
REMARK    7  A    between atoms: C8_13  and  C9_14
REMARK    8  A    between atoms: C12_18  and  C13_19
REMARK    9  A    between atoms: C20_29  and  C21_30
REMARK   10  A    between atoms: C21_30  and  C22_31
REMARK   11  A    between atoms: C22_31  and  C23_32
REMARK   12  A    between atoms: C25_34  and  O4_35
REMARK   13  A    between atoms: C26_39  and  C27_40
REMARK   14  A    between atoms: C27_40  and  C28_41
REMARK   15  A    between atoms: C31_44  and  O5_45
REMARK   16  A    between atoms: N5_47  and  C32_48
REMARK   17  A    between atoms: C32_48  and  C33_49
ROOT
HETATM    1  C9  UNL     1     -12.473  16.288  -0.877  1.00  0.00     0.115 C
HETATM    2  C10 UNL     1     -12.516  15.039   0.092  1.00  0.00     0.193 C
HETATM    3  O2  UNL     1     -11.948  15.448   1.287  1.00  0.00    -0.388 OA
HETATM    4  C11 UNL     1     -11.080  14.549   1.831  1.00  0.00     0.182 C
HETATM    5  C12 UNL     1      -9.764  15.137   2.273  1.00  0.00     0.105 C
HETATM    6  C19 UNL     1      -9.558  16.512   1.836  1.00  0.00     0.225 C
HETATM    7  O3  UNL     1      -8.896  16.588   0.721  1.00  0.00    -0.273 OA
HETATM    8  N3  UNL     1      -9.922  17.742   2.367  1.00  0.00    -0.349 N
ATOM      9  H3  UNL     1      -9.250  18.482   2.166  1.00  0.00     0.163 HD
HETATM   10  C20 UNL     1     -11.026  18.184   3.126  1.00  0.00     0.159 C
HETATM   11  C25 UNL     1     -11.846  19.299   2.623  1.00  0.00     0.139 C
HETATM   12  N4  UNL     1     -12.018  19.939   1.423  1.00  0.00    -0.339 N
ATOM     13  H4  UNL     1     -11.892  20.950   1.471  1.00  0.00     0.167 HD
HETATM   14  C26 UNL     1     -12.350  19.441   0.078  1.00  0.00     0.062 C
HETATM   15  C31 UNL     1     -13.355  18.382   0.131  1.00  0.00     0.165 C
HETATM   16  N5  UNL     1     -13.560  17.137  -0.517  1.00  0.00    -0.333 N
ENDROOT
BRANCH   1  17
HETATM   17  C8  UNL     1     -12.276  15.674  -2.174  1.00  0.00     0.028 C
BRANCH  17  18
HETATM   18  C7  UNL     1     -11.603  16.359  -3.290  1.00  0.00     0.004 C
BRANCH  18  19
HETATM   19  C6  UNL     1     -10.101  16.404  -2.997  1.00  0.00     0.020 C
BRANCH  19  20
HETATM   20  C5  UNL     1      -9.538  15.060  -2.653  1.00  0.00     0.124 C
BRANCH  20  21
HETATM   21  N2  UNL     1      -9.133  14.369  -3.843  1.00  0.00    -0.343 N
HETATM   22  C4  UNL     1      -7.814  14.321  -4.344  1.00  0.00     0.316 C
HETATM   23  N1  UNL     1      -7.477  13.609  -5.530  1.00  0.00    -0.340 N
HETATM   24  O1  UNL     1      -6.868  14.910  -3.763  1.00  0.00    -0.247 OA
ATOM     25  H1  UNL     1      -8.210  13.116  -6.039  1.00  0.00     0.164 HD
ATOM     26  H2  UNL     1      -9.854  13.874  -4.368  1.00  0.00     0.164 HD
BRANCH  23  27
HETATM   27  C3  UNL     1      -6.123  13.569  -6.028  1.00  0.00     0.150 C
BRANCH  27  28
HETATM   28  C2  UNL     1      -5.478  12.242  -5.852  1.00  0.00    -0.018 C
HETATM   29  C1  UNL     1      -4.203  12.047  -6.131  1.00  0.00     0.008 C
ENDBRANCH  27  28
ENDBRANCH  23  27
ENDBRANCH  20  21
ENDBRANCH  19  20
ENDBRANCH  18  19
ENDBRANCH  17  18
ENDBRANCH   1  17
BRANCH  16  30
HETATM   30  C32 UNL     1     -14.939  16.740  -0.604  1.00  0.00     0.070 C
BRANCH  30  31
HETATM   31  C33 UNL     1     -15.831  17.083  -1.687  1.00  0.00     0.016 C
HETATM   32  C34 UNL     1     -15.398  17.561  -2.998  1.00  0.00     0.015 C
HETATM   33  C35 UNL     1     -16.945  18.081  -1.234  1.00  0.00     0.015 C
ENDBRANCH  30  31
ENDBRANCH  16  30
BRANCH  15  34
HETATM   34  O5  UNL     1     -14.264  18.736   1.020  1.00  0.00    -0.344 OA
ATOM     35  H5  UNL     1     -15.088  18.340   0.763  1.00  0.00     0.219 HD
ENDBRANCH  15  34
BRANCH  14  36
HETATM   36  C27 UNL     1     -11.238  19.359  -0.868  1.00  0.00     0.065 C
BRANCH  36  37
HETATM   37  C28 UNL     1     -11.500  19.953  -2.227  1.00  0.00    -0.017 C
HETATM   38  C29 UNL     1     -12.915  20.248  -2.574  1.00  0.00     0.010 C
HETATM   39  C30 UNL     1     -10.745  21.297  -2.234  1.00  0.00     0.010 C
ENDBRANCH  36  37
ENDBRANCH  14  36
BRANCH   5  40
HETATM   40  C13 UNL     1      -9.501  14.881   3.746  1.00  0.00     0.001 C
HETATM   41  C14 UNL     1      -8.166  15.520   4.157  1.00  0.00     0.005 C
HETATM   42  C15 UNL     1      -8.065  15.506   5.659  1.00  0.00     0.000 C
HETATM   43  C16 UNL     1      -8.992  14.475   6.263  1.00  0.00     0.000 C
HETATM   44  C17 UNL     1      -8.964  13.198   5.476  1.00  0.00     0.000 C
HETATM   45  C18 UNL     1      -9.323  13.403   4.021  1.00  0.00     0.005 C
ENDBRANCH   5  40
BRANCH  11  46
HETATM   46  O4  UNL     1     -12.581  19.774   3.596  1.00  0.00    -0.348 OA
ATOM     47  H4  UNL     1     -13.132  19.081   3.943  1.00  0.00     0.219 HD
ENDBRANCH  11  46
BRANCH  10  48
HETATM   48  C21 UNL     1     -10.474  18.560   4.531  1.00  0.00     0.033 C
BRANCH  48  49
HETATM   49  C22 UNL     1     -10.918  17.629   5.595  1.00  0.00     0.002 C
BRANCH  49  50
HETATM   50  C23 UNL     1     -12.209  16.972   5.090  1.00  0.00    -0.004 C
HETATM   51  C24 UNL     1     -12.239  15.509   5.411  1.00  0.00     0.005 C
ENDBRANCH  49  50
ENDBRANCH  48  49
ENDBRANCH  10  48
TORSDOF 17
ENDMDL