MODEL 2
REMARK VINA RESULT: -7.305292335      0.723      1.324
REMARK  4 active torsions:
REMARK  status: ('A' for Active; 'I' for Inactive)
REMARK    1  A    between atoms: C2_2  and  C3_3
REMARK    2  A    between atoms: C3_3  and  C4_4
REMARK    3  A    between atoms: C4_4  and  S1_5
REMARK    4  A    between atoms: S1_5  and  C5_6
ROOT
HETATM    1  C5  UNL     1      13.176 -13.523  16.002  1.00  0.00     0.105 A
HETATM    2  N1  UNL     1      13.664 -12.501  15.443  1.00  0.00    -0.356 N
ATOM      3  H1  UNL     1      13.220 -12.016  14.664  1.00  0.00     0.162 HD
HETATM    4  C6  UNL     1      14.893 -12.105  16.013  1.00  0.00     0.105 A
HETATM    5  C7  UNL     1      16.001 -12.099  14.984  1.00  0.00     0.053 C
HETATM    6  C8  UNL     1      15.787 -10.996  14.001  1.00  0.00     0.004 C
HETATM    7  C9  UNL     1      15.742  -9.669  14.716  1.00  0.00     0.000 C
HETATM    8  C10 UNL     1      14.526  -9.653  15.638  1.00  0.00     0.004 C
HETATM    9  C11 UNL     1      14.703 -10.744  16.646  1.00  0.00     0.053 C
HETATM   10  N2  UNL     1      15.164 -13.039  17.066  1.00  0.00    -0.352 N
ATOM     11  H2  UNL     1      15.972 -13.052  17.688  1.00  0.00     0.163 HD
HETATM   12  C12 UNL     1      14.069 -13.942  17.059  1.00  0.00     0.132 A
HETATM   13  S2  UNL     1      13.866 -15.232  18.076  1.00  0.00    -0.058 SA
ENDROOT
BRANCH   1  14
HETATM   14  S1  UNL     1      11.648 -14.318  15.569  1.00  0.00    -0.109 SA
BRANCH  14  15
HETATM   15  C4  UNL     1      10.869 -14.947  17.063  1.00  0.00     0.081 C
BRANCH  15  16
HETATM   16  C3  UNL     1      10.064 -16.220  16.766  1.00  0.00     0.010 C
BRANCH  16  17
HETATM   17  C2  UNL     1       8.980 -16.277  17.829  1.00  0.00    -0.004 C
HETATM   18  C1  UNL     1       9.400 -15.607  19.101  1.00  0.00     0.005 C
ENDBRANCH  16  17
ENDBRANCH  15  16
ENDBRANCH  14  15
ENDBRANCH   1  14
TORSDOF 4
ENDMDL