MODEL 1
REMARK VINA RESULT: -5.215883000      0.000      0.000
REMARK  8 active torsions:
REMARK  status: ('A' for Active; 'I' for Inactive)
REMARK    1  A    between atoms: C2_2  and  S1_5
REMARK    2  A    between atoms: S1_5  and  C5_6
REMARK    3  A    between atoms: C5_6  and  N1_8
REMARK    4  A    between atoms: N1_8  and  C6_9
REMARK    5  A    between atoms: N1_8  and  C9_16
REMARK    6  A    between atoms: C6_9  and  C7_10
REMARK    7  A    between atoms: C7_10  and  C8_11
REMARK    8  A    between atoms: C8_11  and  N2_12
ROOT
HETATM    1  N1  UNL     1       7.020  -5.604  10.845  1.00  0.00    -0.358 N
ENDROOT
BRANCH   1   2
HETATM    2  C5  UNL     1       5.948  -4.675  10.952  1.00  0.00     0.138 C
HETATM    3  S2  UNL     1       5.673  -3.512   9.842  1.00  0.00    -0.053 SA
BRANCH   2   4
HETATM    4  S1  UNL     1       4.867  -4.786  12.341  1.00  0.00    -0.092 SA
BRANCH   4   5
HETATM    5  C2  UNL     1       3.297  -5.553  12.002  1.00  0.00     0.004 C
HETATM    6  C1  UNL     1       3.332  -7.063  12.134  1.00  0.00     0.026 C
HETATM    7  C3  UNL     1       2.759  -5.275  10.608  1.00  0.00     0.026 C
HETATM    8  C4  UNL     1       2.281  -5.021  12.988  1.00  0.00     0.026 C
ENDBRANCH   4   5
ENDBRANCH   2   4
ENDBRANCH   1   2
BRANCH   1   9
HETATM    9  C6  UNL     1       8.289  -5.349  11.476  1.00  0.00     0.127 C
BRANCH   9  10
HETATM   10  C7  UNL     1       8.319  -4.175  12.393  1.00  0.00     0.047 C
BRANCH  10  11
HETATM   11  C8  UNL     1       9.688  -3.980  13.030  1.00  0.00     0.231 C
BRANCH  11  12
HETATM   12  N2  UNL     1      10.602  -5.013  12.597  1.00  0.00    -0.079 N
ATOM     13  H23 UNL     1      10.838  -5.652  13.355  1.00  0.00     0.274 HD
ATOM     14  H22 UNL     1      10.151  -5.679  11.970  1.00  0.00     0.274 HD
ATOM     15  H21 UNL     1      11.435  -4.601  12.175  1.00  0.00     0.274 HD
ENDBRANCH  11  12
ENDBRANCH  10  11
ENDBRANCH   9  10
ENDBRANCH   1   9
BRANCH   1  16
HETATM   16  C9  UNL     1       6.786  -6.811  10.109  1.00  0.00     0.023 C
HETATM   17  C10 UNL     1       7.993  -7.142   9.222  1.00  0.00     0.037 C
HETATM   18  C11 UNL     1       5.585  -6.829   9.235  1.00  0.00     0.037 C
HETATM   19  C12 UNL     1       6.652  -7.991  11.091  1.00  0.00     0.037 C
ENDBRANCH   1  16
TORSDOF 8
ENDMDL