MODEL 5
REMARK VINA RESULT: -6.854942206     11.747     13.718
REMARK  5 active torsions:
REMARK  status: ('A' for Active; 'I' for Inactive)
REMARK    1  A    between atoms: C2_2  and  C3_3
REMARK    2  A    between atoms: C3_3  and  N1_5
REMARK    3  A    between atoms: N1_5  and  C4_6
REMARK    4  A    between atoms: N1_5  and  C10_12
REMARK    5  A    between atoms: C10_12  and  C12_14
ROOT
HETATM    1  N1  UNL     1       5.453  -5.833  10.596  1.00  0.00    -0.357 N
ENDROOT
BRANCH   1   2
HETATM    2  C3  UNL     1       5.685  -7.200  10.343  1.00  0.00     0.099 C
HETATM    3  S1  UNL     1       4.903  -7.902   9.046  1.00  0.00    -0.061 SA
BRANCH   2   4
HETATM    4  C2  UNL     1       6.535  -8.075  11.102  1.00  0.00     0.031 C
HETATM    5  C1  UNL     1       7.381  -8.905  10.478  1.00  0.00     0.014 C
ENDBRANCH   2   4
ENDBRANCH   1   2
BRANCH   1   6
HETATM    6  C4  UNL     1       4.213  -5.384  11.160  1.00  0.00     0.086 C
HETATM    7  C5  UNL     1       3.775  -4.006  10.818  1.00  0.00     0.025 C
HETATM    8  C6  UNL     1       2.233  -4.031  10.938  1.00  0.00     0.002 C
HETATM    9  C7  UNL     1       1.818  -4.465  12.316  1.00  0.00     0.000 C
HETATM   10  C8  UNL     1       2.594  -5.559  12.936  1.00  0.00     0.002 C
HETATM   11  C9  UNL     1       4.082  -5.546  12.653  1.00  0.00     0.025 C
ENDBRANCH   1   6
BRANCH   1  12
HETATM   12  C10 UNL     1       6.470  -4.815  10.312  1.00  0.00     0.133 C
HETATM   13  C11 UNL     1       7.203  -5.012   9.036  1.00  0.00     0.039 C
BRANCH  12  14
HETATM   14  C12 UNL     1       7.354  -4.528  11.447  1.00  0.00     0.057 A
HETATM   15  C13 UNL     1       8.694  -4.919  11.563  1.00  0.00     0.056 A
HETATM   16  C14 UNL     1       9.182  -4.457  12.739  1.00  0.00     0.169 A
HETATM   17  O1  UNL     1       8.213  -3.815  13.329  1.00  0.00    -0.250 OA
HETATM   18  N2  UNL     1       7.141  -3.841  12.601  1.00  0.00    -0.264 N
ATOM     19  H2  UNL     1       6.256  -3.404  12.859  1.00  0.00     0.194 HD
ENDBRANCH  12  14
ENDBRANCH   1  12
TORSDOF 5
ENDMDL