MODEL 4
REMARK VINA RESULT: -6.845894646      3.013      6.376
REMARK  4 active torsions:
REMARK  status: ('A' for Active; 'I' for Inactive)
REMARK    1  A    between atoms: O1_1  and  C1_3
REMARK    2  A    between atoms: C1_3  and  C2_4
REMARK    3  A    between atoms: C2_4  and  C3_5
REMARK    4  A    between atoms: C3_5  and  C4_6
ROOT
HETATM    1  C4  UNL     1       6.028  -6.620  10.963  1.00  0.00    -0.012 C
HETATM    2  C5  UNL     1       6.947  -5.470  11.053  1.00  0.00     0.005 C
HETATM    3  C6  UNL     1       8.402  -5.678  10.926  1.00  0.00     0.000 C
HETATM    4  C7  UNL     1       8.963  -5.103   9.636  1.00  0.00     0.000 C
HETATM    5  C8  UNL     1       8.784  -6.003   8.449  1.00  0.00     0.000 C
HETATM    6  C9  UNL     1       9.512  -7.303   8.541  1.00  0.00     0.000 C
HETATM    7  C10 UNL     1       8.651  -8.483   8.147  1.00  0.00     0.000 C
HETATM    8  C11 UNL     1       8.109  -9.224   9.363  1.00  0.00     0.000 C
HETATM    9  C12 UNL     1       6.755  -8.685   9.700  1.00  0.00     0.000 C
HETATM   10  C13 UNL     1       6.661  -7.999  11.035  1.00  0.00     0.005 C
ENDROOT
BRANCH   1  11
HETATM   11  C3  UNL     1       4.793  -6.580  11.788  1.00  0.00     0.045 C
BRANCH  11  12
HETATM   12  C2  UNL     1       3.470  -6.592  11.169  1.00  0.00     0.082 C
HETATM   13  C14 UNL     1       3.155  -5.627  10.091  1.00  0.00     0.040 C
HETATM   14  C15 UNL     1       3.108  -4.191  10.563  1.00  0.00     0.005 C
HETATM   15  C16 UNL     1       2.171  -4.094  11.755  1.00  0.00     0.026 C
HETATM   16  C17 UNL     1       2.617  -5.109  12.760  1.00  0.00     0.168 C
HETATM   17  O2  UNL     1       2.546  -6.370  12.257  1.00  0.00    -0.378 OA
BRANCH  12  18
HETATM   18  C1  UNL     1       2.986  -7.974  10.731  1.00  0.00     0.202 C
BRANCH  18  19
HETATM   19  O1  UNL     1       1.776  -7.905  10.060  1.00  0.00    -0.398 OA
ATOM     20  H1  UNL     1       1.086  -8.358  10.531  1.00  0.00     0.209 HD
ENDBRANCH  18  19
ENDBRANCH  12  18
ENDBRANCH  11  12
ENDBRANCH   1  11
TORSDOF 4
ENDMDL