MODEL 5
REMARK VINA RESULT: -8.318324546      1.432      2.628
REMARK  4 active torsions:
REMARK  status: ('A' for Active; 'I' for Inactive)
REMARK    1  A    between atoms: C5_5  and  O1_6
REMARK    2  A    between atoms: C6_8  and  C8_10
REMARK    3  A    between atoms: C8_10  and  C9_11
REMARK    4  A    between atoms: C9_11  and  C10_12
ROOT
HETATM    1  C1  UNL     1       8.918 -18.639  16.244  1.00  0.00     0.049 C
HETATM    2  C2  UNL     1       9.420 -17.256  15.835  1.00  0.00     0.091 C
HETATM    3  C3  UNL     1       8.721 -16.890  14.564  1.00  0.00     0.049 C
HETATM    4  C4  UNL     1       9.196 -16.245  16.948  1.00  0.00     0.075 C
HETATM    5  C5  UNL     1      10.431 -15.402  17.180  1.00  0.00     0.158 C
HETATM    6  C6  UNL     1      11.574 -16.295  17.548  1.00  0.00     0.118 C
HETATM    7  C7  UNL     1      11.425 -16.674  19.003  1.00  0.00     0.052 C
HETATM    8  O2  UNL     1      11.308 -17.517  16.862  1.00  0.00    -0.227 OA
HETATM    9  O3  UNL     1      10.824 -17.320  15.679  1.00  0.00    -0.230 OA
ENDROOT
BRANCH   6  10
HETATM   10  C8  UNL     1      12.900 -15.884  17.102  1.00  0.00     0.044 C
BRANCH  10  11
HETATM   11  C9  UNL     1      13.521 -14.634  17.537  1.00  0.00     0.008 C
BRANCH  11  12
HETATM   12  C10 UNL     1      14.526 -13.989  16.651  1.00  0.00    -0.014 C
HETATM   13  C11 UNL     1      15.309 -13.011  17.546  1.00  0.00     0.004 C
HETATM   14  C12 UNL     1      14.588 -11.730  17.780  1.00  0.00     0.000 C
HETATM   15  C13 UNL     1      14.725 -10.733  16.678  1.00  0.00     0.000 C
HETATM   16  C14 UNL     1      15.566 -11.220  15.520  1.00  0.00     0.000 C
HETATM   17  C15 UNL     1      15.017 -12.428  14.843  1.00  0.00     0.000 C
HETATM   18  C16 UNL     1      13.889 -13.088  15.600  1.00  0.00     0.004 C
ENDBRANCH  11  12
ENDBRANCH  10  11
ENDBRANCH   6  10
BRANCH   5  19
HETATM   19  O1  UNL     1      10.635 -14.593  16.109  1.00  0.00    -0.392 OA
ATOM     20  H1  UNL     1      10.315 -15.020  15.323  1.00  0.00     0.210 HD
ENDBRANCH   5  19
TORSDOF 4
ENDMDL