MODEL 3
REMARK VINA RESULT: -6.917613251      2.172      4.541
REMARK  4 active torsions:
REMARK  status: ('A' for Active; 'I' for Inactive)
REMARK    1  A    between atoms: C2_2  and  C3_4
REMARK    2  A    between atoms: C4_5  and  O2_6
REMARK    3  A    between atoms: C9_12  and  O3_13
REMARK    4  A    between atoms: O3_13  and  C10_14
ROOT
HETATM    1  C3  UNL     1       4.544  -5.730  11.779  1.00  0.00     0.077 A
HETATM    2  C4  UNL     1       5.368  -4.684  12.304  1.00  0.00     0.088 A
HETATM    3  C5  UNL     1       6.695  -4.592  11.995  1.00  0.00    -0.021 A
HETATM    4  C6  UNL     1       7.585  -3.512  12.538  1.00  0.00     0.052 C
HETATM    5  C7  UNL     1       7.255  -5.521  11.163  1.00  0.00    -0.040 A
HETATM    6  C8  UNL     1       6.454  -6.549  10.644  1.00  0.00    -0.017 A
HETATM    7  C9  UNL     1       5.110  -6.662  10.934  1.00  0.00     0.092 A
HETATM    8  C13 UNL     1       7.239  -7.577   9.882  1.00  0.00     0.042 C
HETATM    9  C14 UNL     1       8.027  -6.836   8.829  1.00  0.00     0.005 C
HETATM   10  C15 UNL     1       9.046  -5.930   9.451  1.00  0.00     0.005 C
HETATM   11  C16 UNL     1       8.689  -5.421  10.812  1.00  0.00     0.040 C
ENDROOT
BRANCH   7  12
HETATM   12  O3  UNL     1       4.379  -7.695  10.360  1.00  0.00    -0.345 OA
BRANCH  12  13
HETATM   13  C10 UNL     1       3.649  -7.689   9.183  1.00  0.00     0.120 C
HETATM   14  C11 UNL     1       4.081  -8.707   8.113  1.00  0.00     0.040 C
HETATM   15  C12 UNL     1       2.186  -7.927   9.464  1.00  0.00     0.040 C
ENDBRANCH  12  13
ENDBRANCH   7  12
BRANCH   1  16
HETATM   16  C2  UNL     1       3.186  -5.735  12.273  1.00  0.00     0.161 C
HETATM   17  C1  UNL     1       2.596  -6.492  13.361  1.00  0.00     0.097 C
HETATM   18  O1  UNL     1       2.346  -4.952  11.681  1.00  0.00    -0.293 OA
ENDBRANCH   1  16
BRANCH   2  19
HETATM   19  O2  UNL     1       4.791  -3.761  13.136  1.00  0.00    -0.359 OA
ATOM     20  H2  UNL     1       5.357  -3.263  13.715  1.00  0.00     0.217 HD
ENDBRANCH   2  19
TORSDOF 4
ENDMDL