MODEL 4
REMARK VINA RESULT: -8.808821173      1.085      1.821
REMARK  4 active torsions:
REMARK  status: ('A' for Active; 'I' for Inactive)
REMARK    1  A    between atoms: C2_2  and  C3_3
REMARK    2  A    between atoms: C4_4  and  C5_5
REMARK    3  A    between atoms: C5_5  and  C7_7
REMARK    4  A    between atoms: C16_18  and  O3_19
ROOT
HETATM    1  C5  UNL     1      11.258 -15.521  16.215  1.00  0.00     0.055 C
HETATM    2  C6  UNL     1      10.898 -14.337  15.262  1.00  0.00     0.018 C
ENDROOT
BRANCH   1   3
HETATM    3  C4  UNL     1      10.140 -15.743  17.111  1.00  0.00    -0.014 A
HETATM    4  C3  UNL     1       9.010 -16.476  16.905  1.00  0.00     0.030 A
HETATM    5  C16 UNL     1       8.289 -16.392  18.118  1.00  0.00     0.193 A
HETATM    6  O2  UNL     1       8.974 -15.666  18.928  1.00  0.00    -0.299 OA
HETATM    7  C15 UNL     1      10.083 -15.247  18.398  1.00  0.00     0.153 A
BRANCH   4   8
HETATM    8  C2  UNL     1       8.500 -17.198  15.727  1.00  0.00     0.007 C
HETATM    9  C1  UNL     1       9.173 -17.818  14.814  1.00  0.00     0.012 C
ENDBRANCH   4   8
BRANCH   5  10
HETATM   10  O3  UNL     1       7.069 -17.021  18.296  1.00  0.00    -0.340 OA
ATOM     11  H3  UNL     1       6.919 -17.919  18.028  1.00  0.00     0.220 HD
ENDBRANCH   5  10
ENDBRANCH   1   3
BRANCH   1  12
HETATM   12  C7  UNL     1      12.552 -15.051  16.844  1.00  0.00     0.097 A
HETATM   13  C8  UNL     1      13.205 -16.242  17.581  1.00  0.00     0.050 C
HETATM   14  O1  UNL     1      12.553 -13.901  17.672  1.00  0.00    -0.363 OA
HETATM   15  C9  UNL     1      13.421 -14.049  16.447  1.00  0.00     0.093 A
HETATM   16  C10 UNL     1      13.302 -12.819  15.644  1.00  0.00     0.041 C
HETATM   17  C14 UNL     1      14.908 -14.158  16.833  1.00  0.00     0.041 C
HETATM   18  C11 UNL     1      14.515 -11.885  15.779  1.00  0.00     0.003 C
HETATM   19  C12 UNL     1      14.992 -11.764  17.194  1.00  0.00     0.000 C
HETATM   20  C13 UNL     1      15.135 -13.106  17.877  1.00  0.00     0.003 C
ENDBRANCH   1  12
TORSDOF 4
ENDMDL