MODEL 3
REMARK VINA RESULT: -6.455846834     10.803     12.574
REMARK  3 active torsions:
REMARK  status: ('A' for Active; 'I' for Inactive)
REMARK    1  A    between atoms: S1_2  and  C2_3
REMARK    2  A    between atoms: C6_7  and  C7_8
REMARK    3  A    between atoms: C8_9  and  C10_12
ROOT
HETATM    1  C7  UNL     1       7.298  -5.735  10.997  1.00  0.00     0.037 C
HETATM    2  C8  UNL     1       8.385  -5.255  10.569  1.00  0.00     0.121 C
HETATM    3  C9  UNL     1       8.885  -5.013   9.274  1.00  0.00     0.106 C
HETATM    4  N1  UNL     1       9.344  -4.800   8.203  1.00  0.00    -0.191 NA
ENDROOT
BRANCH   2   5
HETATM    5  C10 UNL     1       9.404  -4.836  11.627  1.00  0.00     0.220 C
HETATM    6  O1  UNL     1      10.623  -4.814  11.353  1.00  0.00    -0.643 OA
HETATM    7  O2  UNL     1       8.887  -4.498  12.854  1.00  0.00    -0.643 OA
ENDBRANCH   2   5
BRANCH   1   8
HETATM    8  C6  UNL     1       6.038  -6.271  10.629  1.00  0.00    -0.048 C
HETATM    9  C5  UNL     1       5.041  -5.357  10.309  1.00  0.00     0.016 C
HETATM   10  C4  UNL     1       3.692  -5.768   9.916  1.00  0.00    -0.045 C
HETATM   11  C2  UNL     1       2.665  -5.034  10.290  1.00  0.00    -0.020 C
HETATM   12  C15 UNL     1       3.563  -6.984   9.119  1.00  0.00     0.041 C
HETATM   13  C3  UNL     1       3.019  -3.785  11.130  1.00  0.00     0.056 C
HETATM   14  C14 UNL     1       4.889  -7.711   9.091  1.00  0.00     0.018 C
HETATM   15  C11 UNL     1       5.563  -7.626  10.498  1.00  0.00    -0.020 C
HETATM   16  C12 UNL     1       6.501  -8.793  10.464  1.00  0.00     0.020 C
HETATM   17  C13 UNL     1       4.487  -7.963  11.533  1.00  0.00     0.020 C
BRANCH  11  18
HETATM   18  S1  UNL     1       0.959  -5.227  10.002  1.00  0.00    -0.139 SA
HETATM   19  C1  UNL     1       0.502  -5.843   8.420  1.00  0.00     0.095 C
ENDBRANCH  11  18
ENDBRANCH   1   8
TORSDOF 3
ENDMDL