MODEL 2
REMARK VINA RESULT: -9.645800741      1.564      2.636
REMARK  4 active torsions:
REMARK  status: ('A' for Active; 'I' for Inactive)
REMARK    1  A    between atoms: C5_7  and  C6_8
REMARK    2  A    between atoms: C6_8  and  O2_10
REMARK    3  A    between atoms: O2_10  and  N2_11
REMARK    4  A    between atoms: C7_13  and  C8_14
ROOT
HETATM    1  N2  UNL     1      12.702 -15.004  18.243  1.00  0.00    -0.272 N
ATOM      2  H2  UNL     1      12.922 -14.265  18.910  1.00  0.00     0.193 HD
HETATM    3  C7  UNL     1      13.285 -15.067  17.100  1.00  0.00     0.097 C
ENDROOT
BRANCH   1   4
HETATM    4  O2  UNL     1      11.772 -15.972  18.532  1.00  0.00    -0.195 OA
BRANCH   4   5
HETATM    5  C6  UNL     1      10.437 -15.842  18.182  1.00  0.00     0.317 C
HETATM    6  O1  UNL     1       9.735 -15.098  18.910  1.00  0.00    -0.257 OA
BRANCH   5   7
HETATM    7  C5  UNL     1       9.849 -16.518  17.038  1.00  0.00     0.064 A
HETATM    8  C2  UNL     1       8.520 -16.854  16.898  1.00  0.00    -0.029 A
HETATM    9  C1  UNL     1       7.416 -16.599  17.878  1.00  0.00     0.050 C
HETATM   10  C3  UNL     1       8.388 -17.484  15.660  1.00  0.00     0.095 A
HETATM   11  N1  UNL     1       9.606 -17.516  15.089  1.00  0.00    -0.374 N
HETATM   12  C4  UNL     1      10.498 -16.943  15.898  1.00  0.00     0.105 A
ATOM     13  H1  UNL     1       9.816 -17.919  14.176  1.00  0.00     0.164 HD
ENDBRANCH   5   7
ENDBRANCH   4   5
ENDBRANCH   1   4
BRANCH   3  14
HETATM   14  C8  UNL     1      14.288 -14.013  16.801  1.00  0.00     0.059 C
HETATM   15  C9  UNL     1      14.255 -13.047  18.036  1.00  0.00     0.093 C
HETATM   16  C10 UNL     1      14.632 -11.805  17.500  1.00  0.00    -0.182 C
HETATM   17  C11 UNL     1      14.972 -10.450  17.362  1.00  0.00     0.083 C
HETATM   18  C12 UNL     1      15.109 -10.252  15.814  1.00  0.00     0.038 C
HETATM   19  C13 UNL     1      15.597 -11.418  15.068  1.00  0.00    -0.026 C
HETATM   20  C14 UNL     1      14.830 -12.585  14.676  1.00  0.00    -0.007 C
HETATM   21  C15 UNL     1      13.965 -13.402  15.508  1.00  0.00    -0.016 C
ENDBRANCH   3  14
TORSDOF 4
ENDMDL