MODEL 1
REMARK VINA RESULT: -7.170104405      0.000      0.000
REMARK  3 active torsions:
REMARK  status: ('A' for Active; 'I' for Inactive)
REMARK    1  A    between atoms: C2_2  and  C4_4
REMARK    2  A    between atoms: C5_7  and  C6_8
REMARK    3  A    between atoms: C9_11  and  C10_12
ROOT
HETATM    1  C4  UNL     1       4.405  -6.114  10.689  1.00  0.00     0.256 C
HETATM    2  N1  UNL     1       5.711  -6.252  10.184  1.00  0.00    -0.385 N
ATOM      3  H1  UNL     1       5.889  -6.322   9.183  1.00  0.00     0.156 HD
HETATM    4  C5  UNL     1       6.791  -6.292  11.151  1.00  0.00     0.110 C
HETATM    5  C9  UNL     1       7.740  -5.149  11.034  1.00  0.00     0.040 C
HETATM    6  C12 UNL     1       7.707  -4.205  12.197  1.00  0.00    -0.081 C
HETATM    7  C13 UNL     1       8.972  -3.974  12.959  1.00  0.00     0.043 C
HETATM    8  C14 UNL     1       6.638  -3.549  12.613  1.00  0.00    -0.014 C
HETATM    9  C15 UNL     1       5.275  -3.610  12.020  1.00  0.00     0.138 C
HETATM   10  C16 UNL     1       4.438  -4.655  12.650  1.00  0.00     0.264 C
HETATM   11  O1  UNL     1       3.738  -4.446  13.687  1.00  0.00    -0.265 OA
HETATM   12  O2  UNL     1       4.428  -5.895  12.080  1.00  0.00    -0.291 OA
ENDROOT
BRANCH   1  13
HETATM   13  C2  UNL     1       3.677  -7.388  10.444  1.00  0.00    -0.045 C
HETATM   14  C1  UNL     1       3.350  -8.173  11.456  1.00  0.00     0.018 C
HETATM   15  C3  UNL     1       3.305  -7.804   9.065  1.00  0.00     0.047 C
ENDBRANCH   1  13
BRANCH   4  16
HETATM   16  C6  UNL     1       7.425  -7.640  10.885  1.00  0.00    -0.006 C
HETATM   17  C7  UNL     1       7.136  -8.334   9.790  1.00  0.00    -0.033 C
HETATM   18  C8  UNL     1       7.746  -9.652   9.513  1.00  0.00     0.036 C
ENDBRANCH   4  16
BRANCH   5  19
HETATM   19  C10 UNL     1       9.136  -5.544  10.659  1.00  0.00     0.007 C
HETATM   20  C11 UNL     1       9.539  -5.466   9.249  1.00  0.00     0.006 C
ENDBRANCH   5  19
TORSDOF 3
ENDMDL