MODEL 4
REMARK VINA RESULT: -9.010401471      1.405      2.029
REMARK  13 active torsions:
REMARK  status: ('A' for Active; 'I' for Inactive)
REMARK    1  A    between atoms: C2_2  and  C3_3
REMARK    2  A    between atoms: C3_3  and  C4_4
REMARK    3  A    between atoms: C3_3  and  O1_10
REMARK    4  A    between atoms: C4_4  and  C5_5
REMARK    5  A    between atoms: C5_5  and  C6_6
REMARK    6  A    between atoms: C6_6  and  C7_7
REMARK    7  A    between atoms: O1_10  and  C10_11
REMARK    8  A    between atoms: C10_11  and  C11_12
REMARK    9  A    between atoms: C11_12  and  C12_13
REMARK   10  A    between atoms: C15_16  and  C16_17
REMARK   11  A    between atoms: C16_17  and  C17_18
REMARK   12  A    between atoms: C17_18  and  C18_19
REMARK   13  A    between atoms: C18_19  and  O2_20
ROOT
HETATM    1  C11 UNL     1      10.541 -28.284  17.421  1.00  0.00     0.064 C
ENDROOT
BRANCH   1   2
HETATM    2  C10 UNL     1      11.909 -27.700  17.781  1.00  0.00     0.172 C
BRANCH   2   3
HETATM    3  O1  UNL     1      12.524 -28.630  18.607  1.00  0.00    -0.386 OA
BRANCH   3   4
HETATM    4  C3  UNL     1      13.812 -28.941  18.236  1.00  0.00     0.121 C
BRANCH   4   5
HETATM    5  C2  UNL     1      14.184 -28.339  16.894  1.00  0.00     0.027 C
HETATM    6  C1  UNL     1      14.699 -29.467  16.014  1.00  0.00     0.007 C
ENDBRANCH   4   5
BRANCH   4   7
HETATM    7  C4  UNL     1      14.799 -28.459  19.270  1.00  0.00     0.032 C
BRANCH   7   8
HETATM    8  C5  UNL     1      15.697 -29.559  19.762  1.00  0.00     0.003 C
BRANCH   8   9
HETATM    9  C6  UNL     1      16.980 -29.642  18.962  1.00  0.00     0.004 C
BRANCH   9  10
HETATM   10  C7  UNL     1      17.101 -31.068  18.418  1.00  0.00    -0.023 C
HETATM   11  C8  UNL     1      16.193 -32.006  19.177  1.00  0.00     0.009 C
HETATM   12  C9  UNL     1      18.511 -31.576  18.546  1.00  0.00     0.009 C
ENDBRANCH   9  10
ENDBRANCH   8   9
ENDBRANCH   7   8
ENDBRANCH   4   7
ENDBRANCH   3   4
ENDBRANCH   2   3
ENDBRANCH   1   2
BRANCH   1  13
HETATM   13  C12 UNL     1       9.785 -27.360  16.541  1.00  0.00    -0.056 A
HETATM   14  C13 UNL     1      10.375 -26.987  15.335  1.00  0.00     0.007 A
HETATM   15  C14 UNL     1       9.713 -26.125  14.471  1.00  0.00     0.007 A
HETATM   16  C15 UNL     1       8.476 -25.641  14.809  1.00  0.00    -0.058 A
HETATM   17  C19 UNL     1       7.899 -26.007  15.991  1.00  0.00     0.007 A
HETATM   18  C20 UNL     1       8.549 -26.862  16.855  1.00  0.00     0.007 A
BRANCH  16  19
HETATM   19  C16 UNL     1       7.752 -24.723  13.907  1.00  0.00     0.041 C
BRANCH  19  20
HETATM   20  C17 UNL     1       8.429 -23.398  13.851  1.00  0.00     0.030 C
BRANCH  20  21
HETATM   21  C18 UNL     1       7.483 -22.288  14.151  1.00  0.00     0.164 C
BRANCH  21  22
HETATM   22  O2  UNL     1       7.199 -22.327  15.529  1.00  0.00    -0.401 OA
ATOM     23  H2  UNL     1       6.886 -21.467  15.784  1.00  0.00     0.209 HD
ENDBRANCH  21  22
ENDBRANCH  20  21
ENDBRANCH  19  20
ENDBRANCH  16  19
ENDBRANCH   1  13
TORSDOF 13
ENDMDL