MODEL 4
REMARK VINA RESULT: -8.621598519      1.167      1.584
REMARK  10 active torsions:
REMARK  status: ('A' for Active; 'I' for Inactive)
REMARK    1  A    between atoms: C2_2  and  C3_3
REMARK    2  A    between atoms: C3_3  and  C5_5
REMARK    3  A    between atoms: C5_5  and  C6_6
REMARK    4  A    between atoms: C6_6  and  C7_7
REMARK    5  A    between atoms: C7_7  and  C8_8
REMARK    6  A    between atoms: C8_8  and  O1_9
REMARK    7  A    between atoms: C8_8  and  C9_11
REMARK    8  A    between atoms: C9_11  and  O2_12
REMARK    9  A    between atoms: O2_12  and  C10_13
REMARK   10  A    between atoms: C17_20  and  C18_21
ROOT
HETATM    1  O2  UNL     1      11.752 -27.935  15.507  1.00  0.00    -0.348 OA
ENDROOT
BRANCH   1   2
HETATM    2  C9  UNL     1      12.747 -28.746  15.526  1.00  0.00     0.207 C
BRANCH   2   3
HETATM    3  C8  UNL     1      13.595 -28.900  16.806  1.00  0.00     0.142 C
BRANCH   3   4
HETATM    4  C7  UNL     1      14.733 -29.816  16.660  1.00  0.00     0.034 C
BRANCH   4   5
HETATM    5  C6  UNL     1      15.792 -29.827  17.700  1.00  0.00     0.007 C
BRANCH   5   6
HETATM    6  C5  UNL     1      15.812 -30.991  18.628  1.00  0.00     0.033 C
BRANCH   6   7
HETATM    7  C3  UNL     1      17.122 -31.304  19.211  1.00  0.00    -0.090 C
HETATM    8  C4  UNL     1      18.060 -30.312  19.032  1.00  0.00     0.014 C
BRANCH   7   9
HETATM    9  C2  UNL     1      17.575 -32.409  19.893  1.00  0.00     0.029 C
HETATM   10  C1  UNL     1      16.273 -33.351  19.679  1.00  0.00     0.010 C
ENDBRANCH   7   9
ENDBRANCH   6   7
ENDBRANCH   5   6
ENDBRANCH   4   5
ENDBRANCH   3   4
BRANCH   3  11
HETATM   11  O1  UNL     1      13.890 -27.595  17.180  1.00  0.00    -0.393 OA
ATOM     12  H1  UNL     1      13.661 -27.344  18.067  1.00  0.00     0.210 HD
ENDBRANCH   3  11
ENDBRANCH   2   3
ENDBRANCH   1   2
BRANCH   1  13
HETATM   13  C10 UNL     1      10.733 -27.137  15.533  1.00  0.00     0.076 A
HETATM   14  C11 UNL     1      10.559 -26.079  14.628  1.00  0.00     0.044 A
HETATM   15  C12 UNL     1       9.471 -25.245  14.673  1.00  0.00    -0.053 A
HETATM   16  C13 UNL     1       9.350 -24.126  13.667  1.00  0.00     0.049 C
HETATM   17  C14 UNL     1       8.497 -25.420  15.626  1.00  0.00    -0.055 A
HETATM   18  C15 UNL     1       7.321 -24.522  15.679  1.00  0.00     0.049 C
HETATM   19  C16 UNL     1       8.639 -26.457  16.537  1.00  0.00     0.017 A
HETATM   20  C17 UNL     1       9.719 -27.296  16.503  1.00  0.00    -0.020 A
BRANCH  20  21
HETATM   21  C18 UNL     1       9.865 -28.397  17.470  1.00  0.00     0.021 A
HETATM   22  C19 UNL     1       9.261 -28.361  18.804  1.00  0.00     0.010 A
HETATM   23  C20 UNL     1      10.731 -28.155  18.715  1.00  0.00     0.010 A
ENDBRANCH  20  21
ENDBRANCH   1  13
TORSDOF 10
ENDMDL