MODEL 5
REMARK VINA RESULT: -6.673073612      1.354      1.957
REMARK  8 active torsions:
REMARK  status: ('A' for Active; 'I' for Inactive)
REMARK    1  A    between atoms: C2_2  and  C3_3
REMARK    2  A    between atoms: C3_3  and  C4_4
REMARK    3  A    between atoms: C4_4  and  O1_5
REMARK    4  A    between atoms: O1_5  and  C5_6
REMARK    5  A    between atoms: C5_6  and  C6_8
REMARK    6  A    between atoms: C14_16  and  C15_17
REMARK    7  A    between atoms: C15_17  and  C16_18
REMARK    8  A    between atoms: C16_18  and  C19_21
ROOT
HETATM    1  C6  UNL     1       8.802 -27.112  16.886  1.00  0.00     0.056 A
HETATM    2  C7  UNL     1       7.846 -26.387  17.637  1.00  0.00    -0.044 A
HETATM    3  C8  UNL     1       6.962 -25.371  17.008  1.00  0.00     0.049 C
HETATM    4  C9  UNL     1       7.786 -26.681  18.978  1.00  0.00     0.015 A
HETATM    5  C10 UNL     1       8.611 -27.624  19.544  1.00  0.00    -0.055 A
HETATM    6  C11 UNL     1       8.469 -27.868  21.002  1.00  0.00     0.049 C
HETATM    7  C12 UNL     1       9.540 -28.328  18.811  1.00  0.00    -0.045 A
HETATM    8  C13 UNL     1      10.377 -29.280  19.536  1.00  0.00     0.049 C
HETATM    9  C14 UNL     1       9.625 -28.050  17.430  1.00  0.00    -0.016 A
ENDROOT
BRANCH   1  10
HETATM   10  C5  UNL     1       8.866 -26.616  15.506  1.00  0.00     0.294 C
HETATM   11  O2  UNL     1       8.152 -27.286  14.668  1.00  0.00    -0.259 OA
BRANCH  10  12
HETATM   12  O1  UNL     1       9.565 -25.581  15.016  1.00  0.00    -0.317 OA
BRANCH  12  13
HETATM   13  C4  UNL     1       9.462 -25.001  13.759  1.00  0.00     0.183 C
BRANCH  13  14
HETATM   14  C3  UNL     1       9.100 -23.540  13.839  1.00  0.00     0.053 C
BRANCH  14  15
HETATM   15  C2  UNL     1       7.634 -23.334  13.928  1.00  0.00    -0.035 C
HETATM   16  C1  UNL     1       6.804 -24.179  13.344  1.00  0.00     0.007 C
ENDBRANCH  14  15
ENDBRANCH  13  14
ENDBRANCH  12  13
ENDBRANCH  10  12
ENDBRANCH   1  10
BRANCH   9  17
HETATM   17  C15 UNL     1      10.595 -28.813  16.670  1.00  0.00    -0.005 C
BRANCH  17  18
HETATM   18  C16 UNL     1      11.869 -28.243  16.206  1.00  0.00    -0.029 C
HETATM   19  C17 UNL     1      11.990 -28.051  14.708  1.00  0.00     0.019 C
HETATM   20  C18 UNL     1      12.377 -26.994  16.829  1.00  0.00     0.019 C
BRANCH  18  21
HETATM   21  C19 UNL     1      12.921 -29.339  16.594  1.00  0.00     0.008 C
HETATM   22  C20 UNL     1      14.310 -28.942  16.304  1.00  0.00     0.006 C
ENDBRANCH  18  21
ENDBRANCH  17  18
ENDBRANCH   9  17
TORSDOF 8
ENDMDL