MODEL 5
REMARK VINA RESULT: -9.290446916      0.529      1.261
REMARK  12 active torsions:
REMARK  status: ('A' for Active; 'I' for Inactive)
REMARK    1  A    between atoms: C3_3  and  C5_5
REMARK    2  A    between atoms: C5_5  and  C6_6
REMARK    3  A    between atoms: C6_6  and  C7_7
REMARK    4  A    between atoms: C10_10  and  C11_11
REMARK    5  A    between atoms: C11_11  and  C12_12
REMARK    6  A    between atoms: C12_12  and  C13_13
REMARK    7  A    between atoms: C13_13  and  O1_14
REMARK    8  A    between atoms: O1_14  and  C14_15
REMARK    9  A    between atoms: C14_15  and  C15_16
REMARK   10  A    between atoms: C15_16  and  O2_17
REMARK   11  A    between atoms: C15_16  and  C16_19
REMARK   12  A    between atoms: C16_19  and  C17_20
ROOT
HETATM    1  C7  UNL     1      18.533 -33.427  19.878  1.00  0.00    -0.058 A
HETATM    2  C8  UNL     1      18.770 -32.143  19.433  1.00  0.00     0.007 A
HETATM    3  C9  UNL     1      17.774 -31.248  19.105  1.00  0.00     0.007 A
HETATM    4  C10 UNL     1      16.448 -31.627  19.217  1.00  0.00    -0.058 A
HETATM    5  C19 UNL     1      16.193 -32.897  19.658  1.00  0.00     0.007 A
HETATM    6  C20 UNL     1      17.189 -33.788  19.984  1.00  0.00     0.007 A
ENDROOT
BRANCH   4   7
HETATM    7  C11 UNL     1      15.352 -30.706  18.878  1.00  0.00     0.041 C
BRANCH   7   8
HETATM    8  C12 UNL     1      15.675 -29.300  19.347  1.00  0.00     0.031 C
BRANCH   8   9
HETATM    9  C13 UNL     1      14.473 -28.437  18.931  1.00  0.00     0.168 C
BRANCH   9  10
HETATM   10  O1  UNL     1      13.478 -29.313  18.587  1.00  0.00    -0.389 OA
BRANCH  10  11
HETATM   11  C14 UNL     1      12.286 -28.760  18.200  1.00  0.00     0.199 C
BRANCH  11  12
HETATM   12  C15 UNL     1      11.998 -29.103  16.776  1.00  0.00     0.142 C
BRANCH  12  13
HETATM   13  O2  UNL     1      12.847 -30.094  16.281  1.00  0.00    -0.393 OA
ATOM     14  H2  UNL     1      12.582 -30.966  16.546  1.00  0.00     0.210 HD
ENDBRANCH  12  13
BRANCH  12  15
HETATM   15  C16 UNL     1      12.126 -27.867  15.913  1.00  0.00     0.033 C
BRANCH  15  16
HETATM   16  C17 UNL     1      11.373 -28.015  14.617  1.00  0.00    -0.002 C
HETATM   17  C18 UNL     1      10.578 -26.752  14.385  1.00  0.00     0.005 C
ENDBRANCH  15  16
ENDBRANCH  12  15
ENDBRANCH  11  12
ENDBRANCH  10  11
ENDBRANCH   9  10
ENDBRANCH   8   9
ENDBRANCH   7   8
ENDBRANCH   4   7
BRANCH   1  18
HETATM   18  C6  UNL     1      19.595 -34.365  20.226  1.00  0.00     0.043 C
BRANCH  18  19
HETATM   19  C5  UNL     1      19.745 -35.549  19.340  1.00  0.00     0.038 C
BRANCH  19  20
HETATM   20  C3  UNL     1      20.126 -35.360  17.947  1.00  0.00    -0.088 C
HETATM   21  C2  UNL     1      19.617 -36.191  17.019  1.00  0.00    -0.029 C
HETATM   22  C1  UNL     1      18.733 -37.328  17.408  1.00  0.00     0.036 C
HETATM   23  C4  UNL     1      20.995 -34.254  17.483  1.00  0.00     0.043 C
ENDBRANCH  19  20
ENDBRANCH  18  19
ENDBRANCH   1  18
TORSDOF 12
ENDMDL