MODEL 3
REMARK VINA RESULT: -8.842445570      1.373      2.187
REMARK  11 active torsions:
REMARK  status: ('A' for Active; 'I' for Inactive)
REMARK    1  A    between atoms: C2_2  and  C3_3
REMARK    2  A    between atoms: C4_4  and  C5_5
REMARK    3  A    between atoms: C10_10  and  C11_11
REMARK    4  A    between atoms: C11_11  and  C12_12
REMARK    5  A    between atoms: C12_12  and  C13_13
REMARK    6  A    between atoms: C13_13  and  C14_14
REMARK    7  A    between atoms: C14_14  and  C15_15
REMARK    8  A    between atoms: C15_15  and  C16_16
REMARK    9  A    between atoms: C15_15  and  C19_19
REMARK   10  A    between atoms: C16_16  and  C17_17
REMARK   11  A    between atoms: C19_19  and  O2_21
ROOT
HETATM    1  C11 UNL     1      11.379 -28.808  15.846  1.00  0.00     0.039 C
ENDROOT
BRANCH   1   2
HETATM    2  C10 UNL     1      12.584 -28.627  16.667  1.00  0.00    -0.048 A
HETATM    3  C5  UNL     1      12.396 -28.235  18.001  1.00  0.00    -0.030 A
HETATM    4  C6  UNL     1      13.529 -28.077  18.770  1.00  0.00     0.012 A
HETATM    5  C7  UNL     1      14.804 -28.293  18.265  1.00  0.00     0.001 A
HETATM    6  C8  UNL     1      14.983 -28.678  16.963  1.00  0.00     0.001 A
HETATM    7  C9  UNL     1      13.856 -28.840  16.178  1.00  0.00     0.008 A
BRANCH   3   8
HETATM    8  C4  UNL     1      11.055 -28.052  18.500  1.00  0.00     0.008 C
HETATM    9  C3  UNL     1      10.667 -28.553  19.658  1.00  0.00    -0.026 C
BRANCH   9  10
HETATM   10  C2  UNL     1       9.268 -28.358  20.164  1.00  0.00     0.022 C
HETATM   11  C1  UNL     1       9.365 -28.365  21.682  1.00  0.00     0.009 C
ENDBRANCH   9  10
ENDBRANCH   3   8
ENDBRANCH   1   2
BRANCH   1  12
HETATM   12  C12 UNL     1      11.540 -28.222  14.480  1.00  0.00     0.005 C
BRANCH  12  13
HETATM   13  C13 UNL     1      10.503 -27.254  14.031  1.00  0.00     0.001 C
BRANCH  13  14
HETATM   14  C14 UNL     1      10.639 -25.930  14.797  1.00  0.00     0.014 C
BRANCH  14  15
HETATM   15  C15 UNL     1       9.330 -25.381  15.230  1.00  0.00     0.085 C
BRANCH  15  16
HETATM   16  C16 UNL     1       8.368 -26.520  15.592  1.00  0.00     0.014 C
BRANCH  16  17
HETATM   17  C17 UNL     1       7.985 -26.485  17.045  1.00  0.00    -0.004 C
HETATM   18  C18 UNL     1       6.968 -25.366  17.197  1.00  0.00     0.005 C
ENDBRANCH  16  17
ENDBRANCH  15  16
BRANCH  15  19
HETATM   19  C19 UNL     1       8.742 -24.608  14.087  1.00  0.00     0.262 C
HETATM   20  O1  UNL     1       9.405 -23.715  13.521  1.00  0.00    -0.265 OA
BRANCH  19  21
HETATM   21  O2  UNL     1       7.459 -24.860  13.631  1.00  0.00    -0.326 OA
HETATM   22  C20 UNL     1       6.390 -23.944  13.751  1.00  0.00     0.213 C
ENDBRANCH  19  21
ENDBRANCH  15  19
ENDBRANCH  14  15
ENDBRANCH  13  14
ENDBRANCH  12  13
ENDBRANCH   1  12
TORSDOF 11
ENDMDL