MODEL 1
REMARK VINA RESULT: -8.311218774      0.000      0.000
REMARK  12 active torsions:
REMARK  status: ('A' for Active; 'I' for Inactive)
REMARK    1  A    between atoms: C2_2  and  C3_3
REMARK    2  A    between atoms: C3_3  and  C4_4
REMARK    3  A    between atoms: C4_4  and  C5_5
REMARK    4  A    between atoms: C5_5  and  C6_6
REMARK    5  A    between atoms: C6_6  and  C7_7
REMARK    6  A    between atoms: C6_6  and  C15_15
REMARK    7  A    between atoms: C10_10  and  C11_11
REMARK    8  A    between atoms: C15_15  and  O1_16
REMARK    9  A    between atoms: C15_15  and  C16_18
REMARK   10  A    between atoms: C16_18  and  C17_19
REMARK   11  A    between atoms: C17_19  and  C18_21
REMARK   12  A    between atoms: C18_21  and  C19_22
ROOT
HETATM    1  C6  UNL     1       9.870 -26.631  15.968  1.00  0.00     0.048 C
ENDROOT
BRANCH   1   2
HETATM    2  C5  UNL     1       8.815 -27.563  16.469  1.00  0.00     0.012 C
BRANCH   2   3
HETATM    3  C4  UNL     1       8.583 -27.217  17.943  1.00  0.00     0.001 C
BRANCH   3   4
HETATM    4  C3  UNL     1       9.229 -28.254  18.840  1.00  0.00    -0.000 C
BRANCH   4   5
HETATM    5  C2  UNL     1       8.778 -28.023  20.249  1.00  0.00    -0.005 C
HETATM    6  C1  UNL     1       9.632 -28.697  21.272  1.00  0.00     0.005 C
ENDBRANCH   4   5
ENDBRANCH   3   4
ENDBRANCH   2   3
ENDBRANCH   1   2
BRANCH   1   7
HETATM    7  C7  UNL     1      11.185 -27.316  16.052  1.00  0.00    -0.051 A
HETATM    8  C8  UNL     1      11.481 -28.325  15.178  1.00  0.00     0.008 A
HETATM    9  C9  UNL     1      12.706 -28.961  15.259  1.00  0.00     0.007 A
HETATM   10  C10 UNL     1      13.597 -28.552  16.231  1.00  0.00    -0.059 A
HETATM   11  C13 UNL     1      13.323 -27.541  17.120  1.00  0.00     0.007 A
HETATM   12  C14 UNL     1      12.077 -26.917  17.015  1.00  0.00     0.008 A
BRANCH  10  13
HETATM   13  C11 UNL     1      14.906 -29.243  16.305  1.00  0.00     0.034 C
HETATM   14  C12 UNL     1      15.429 -29.138  17.717  1.00  0.00     0.010 C
ENDBRANCH  10  13
ENDBRANCH   1   7
BRANCH   1  15
HETATM   15  C15 UNL     1       9.673 -26.227  14.527  1.00  0.00     0.133 C
BRANCH  15  16
HETATM   16  O1  UNL     1      10.297 -24.966  14.386  1.00  0.00    -0.394 OA
ATOM     17  H1  UNL     1       9.615 -24.365  14.110  1.00  0.00     0.210 HD
ENDBRANCH  15  16
BRANCH  15  18
HETATM   18  C16 UNL     1       8.228 -26.025  14.174  1.00  0.00     0.110 C
BRANCH  18  19
HETATM   19  C17 UNL     1       7.950 -24.551  14.349  1.00  0.00     0.129 C
HETATM   20  O2  UNL     1       8.059 -23.835  13.374  1.00  0.00    -0.298 OA
BRANCH  19  21
HETATM   21  C18 UNL     1       7.557 -24.023  15.688  1.00  0.00     0.078 C
BRANCH  21  22
HETATM   22  C19 UNL     1       6.225 -24.638  16.050  1.00  0.00     0.003 C
HETATM   23  C20 UNL     1       5.976 -24.520  17.533  1.00  0.00     0.005 C
ENDBRANCH  21  22
ENDBRANCH  19  21
ENDBRANCH  18  19
ENDBRANCH  15  18
ENDBRANCH   1  15
TORSDOF 12
ENDMDL