MODEL 1
REMARK VINA RESULT: -10.036977294      0.000      0.000
REMARK  10 active torsions:
REMARK  status: ('A' for Active; 'I' for Inactive)
REMARK    1  A    between atoms: C2_2  and  C3_3
REMARK    2  A    between atoms: C3_3  and  O1_4
REMARK    3  A    between atoms: O1_4  and  C4_5
REMARK    4  A    between atoms: C4_5  and  C5_7
REMARK    5  A    between atoms: C5_7  and  C6_8
REMARK    6  A    between atoms: C6_8  and  C7_9
REMARK    7  A    between atoms: C7_9  and  C8_10
REMARK    8  A    between atoms: C8_10  and  C10_12
REMARK    9  A    between atoms: C13_15  and  C14_16
REMARK   10  A    between atoms: C14_16  and  C17_19
ROOT
HETATM    1  C10 UNL     1      10.321 -26.948  15.776  1.00  0.00    -0.034 A
HETATM    2  C11 UNL     1      10.333 -26.040  14.708  1.00  0.00     0.012 A
HETATM    3  C12 UNL     1       9.324 -25.141  14.475  1.00  0.00     0.009 A
HETATM    4  C13 UNL     1       8.233 -25.099  15.309  1.00  0.00    -0.050 A
HETATM    5  C19 UNL     1       8.201 -25.978  16.363  1.00  0.00     0.009 A
HETATM    6  C20 UNL     1       9.224 -26.890  16.599  1.00  0.00     0.012 A
ENDROOT
BRANCH   1   7
HETATM    7  C8  UNL     1      11.453 -27.887  15.958  1.00  0.00    -0.073 C
HETATM    8  C9  UNL     1      11.890 -28.624  14.774  1.00  0.00     0.044 C
BRANCH   7   9
HETATM    9  C7  UNL     1      11.312 -28.688  17.250  1.00  0.00     0.035 C
BRANCH   9  10
HETATM   10  C6  UNL     1      12.176 -28.240  18.360  1.00  0.00     0.014 C
BRANCH  10  11
HETATM   11  C5  UNL     1      13.378 -27.455  17.971  1.00  0.00     0.111 C
BRANCH  11  12
HETATM   12  C4  UNL     1      14.574 -28.264  17.836  1.00  0.00     0.259 C
HETATM   13  O2  UNL     1      15.007 -28.485  16.646  1.00  0.00    -0.265 OA
BRANCH  12  14
HETATM   14  O1  UNL     1      15.261 -28.795  18.889  1.00  0.00    -0.318 OA
BRANCH  14  15
HETATM   15  C3  UNL     1      16.013 -30.046  18.718  1.00  0.00     0.205 C
BRANCH  15  16
HETATM   16  C2  UNL     1      17.458 -29.715  18.902  1.00  0.00    -0.011 C
HETATM   17  C1  UNL     1      18.389 -30.610  18.998  1.00  0.00     0.009 C
ENDBRANCH  15  16
ENDBRANCH  14  15
ENDBRANCH  12  14
ENDBRANCH  11  12
ENDBRANCH  10  11
ENDBRANCH   9  10
ENDBRANCH   7   9
ENDBRANCH   1   7
BRANCH   4  18
HETATM   18  C14 UNL     1       7.097 -24.154  15.137  1.00  0.00    -0.021 C
HETATM   19  C15 UNL     1       6.002 -24.614  16.087  1.00  0.00     0.020 C
HETATM   20  C16 UNL     1       6.631 -24.293  13.699  1.00  0.00     0.020 C
BRANCH  18  21
HETATM   21  C17 UNL     1       7.508 -22.729  15.350  1.00  0.00     0.009 C
HETATM   22  C18 UNL     1       7.374 -21.977  14.052  1.00  0.00     0.006 C
ENDBRANCH  18  21
ENDBRANCH   4  18
TORSDOF 10
ENDMDL