MODEL 4
REMARK VINA RESULT: -8.652629106      1.512      7.376
REMARK  9 active torsions:
REMARK  status: ('A' for Active; 'I' for Inactive)
REMARK    1  A    between atoms: C2_2  and  C3_3
REMARK    2  A    between atoms: C3_3  and  O1_4
REMARK    3  A    between atoms: O1_4  and  C4_5
REMARK    4  A    between atoms: C4_5  and  C5_6
REMARK    5  A    between atoms: C9_10  and  C10_11
REMARK    6  A    between atoms: C15_16  and  C16_17
REMARK    7  A    between atoms: C15_16  and  C17_20
REMARK    8  A    between atoms: C16_17  and  O2_18
REMARK    9  A    between atoms: C17_20  and  C18_21
ROOT
HETATM    1  O1  UNL     1      10.382 -28.344  16.606  1.00  0.00    -0.351 OA
ENDROOT
BRANCH   1   2
HETATM    2  C3  UNL     1      11.695 -28.143  17.101  1.00  0.00     0.051 C
HETATM    3  C15 UNL     1      12.719 -28.481  16.298  1.00  0.00    -0.027 C
BRANCH   2   4
HETATM    4  C2  UNL     1      11.910 -27.590  18.438  1.00  0.00     0.060 C
HETATM    5  C1  UNL     1      11.622 -28.669  19.509  1.00  0.00     0.012 C
ENDBRANCH   2   4
BRANCH   3   6
HETATM    6  C16 UNL     1      12.339 -29.015  14.984  1.00  0.00     0.201 C
BRANCH   6   7
HETATM    7  O2  UNL     1      11.554 -28.269  14.176  1.00  0.00    -0.397 OA
ATOM      8  H2  UNL     1      10.729 -27.938  14.513  1.00  0.00     0.209 HD
ENDBRANCH   6   7
ENDBRANCH   3   6
BRANCH   3   9
HETATM    9  C17 UNL     1      14.074 -28.417  16.815  1.00  0.00     0.043 C
BRANCH   9  10
HETATM   10  C18 UNL     1      14.612 -29.503  17.655  1.00  0.00    -0.019 C
HETATM   11  C19 UNL     1      15.384 -30.437  16.671  1.00  0.00     0.010 C
HETATM   12  C20 UNL     1      15.610 -29.117  18.711  1.00  0.00     0.010 C
ENDBRANCH   9  10
ENDBRANCH   3   9
ENDBRANCH   1   2
BRANCH   1  13
HETATM   13  C4  UNL     1       9.374 -27.624  17.317  1.00  0.00     0.214 C
BRANCH  13  14
HETATM   14  C5  UNL     1       8.799 -26.518  16.536  1.00  0.00    -0.033 A
HETATM   15  C6  UNL     1       9.485 -25.927  15.493  1.00  0.00     0.017 A
HETATM   16  C7  UNL     1       8.936 -24.917  14.791  1.00  0.00    -0.051 A
HETATM   17  C8  UNL     1       9.747 -24.330  13.672  1.00  0.00     0.049 C
HETATM   18  C9  UNL     1       7.655 -24.397  15.057  1.00  0.00    -0.028 A
HETATM   19  C12 UNL     1       6.968 -24.969  16.081  1.00  0.00    -0.051 A
HETATM   20  C13 UNL     1       5.646 -24.464  16.410  1.00  0.00     0.049 C
HETATM   21  C14 UNL     1       7.554 -26.026  16.808  1.00  0.00     0.017 A
BRANCH  18  22
HETATM   22  C10 UNL     1       7.225 -23.337  14.225  1.00  0.00    -0.019 C
HETATM   23  C11 UNL     1       7.405 -21.924  14.432  1.00  0.00     0.037 C
ENDBRANCH  18  22
ENDBRANCH  13  14
ENDBRANCH   1  13
TORSDOF 9
ENDMDL