MODEL 5
REMARK VINA RESULT: -5.995368410      2.973      5.005
REMARK  11 active torsions:
REMARK  status: ('A' for Active; 'I' for Inactive)
REMARK    1  A    between atoms: O1_2  and  C2_3
REMARK    2  A    between atoms: C3_5  and  O3_6
REMARK    3  A    between atoms: O3_6  and  C4_7
REMARK    4  A    between atoms: C6_12  and  O4_13
REMARK    5  A    between atoms: C7_15  and  O5_16
REMARK    6  A    between atoms: C8_18  and  O6_19
REMARK    7  A    between atoms: C9_21  and  N2_22
REMARK    8  A    between atoms: C10_26  and  N3_27
REMARK    9  A    between atoms: C11_31  and  N4_32
REMARK   10  A    between atoms: N4_32  and  N5_34
REMARK   11  A    between atoms: N5_34  and  N6_35
ROOT
HETATM    1  C2  UNL     1     -87.977  67.574  95.089  1.00  0.00     0.289 C
HETATM    2  O2  UNL     1     -88.152  66.336  94.490  1.00  0.00    -0.327 OA
HETATM    3  C3  UNL     1     -89.189  65.602  94.995  1.00  0.00     0.298 C
HETATM    4  C9  UNL     1     -90.404  66.364  95.412  1.00  0.00     0.271 C
HETATM    5  C10 UNL     1     -90.449  67.680  94.722  1.00  0.00     0.248 C
HETATM    6  C11 UNL     1     -89.179  68.451  95.000  1.00  0.00     0.202 C
ENDROOT
BRANCH   3   7
HETATM    7  O3  UNL     1     -88.794  64.850  96.128  1.00  0.00    -0.324 OA
BRANCH   7   8
HETATM    8  C4  UNL     1     -87.693  64.064  95.892  1.00  0.00     0.354 C
HETATM    9  N1  UNL     1     -87.322  63.487  97.197  1.00  0.00    -0.044 N
HETATM   10  C5  UNL     1     -86.041  62.796  97.007  1.00  0.00     0.269 C
ATOM     11  H12 UNL     1     -87.300  64.176  97.949  1.00  0.00     0.280 HD
ATOM     12  H11 UNL     1     -88.047  62.888  97.592  1.00  0.00     0.280 HD
HETATM   13  C6  UNL     1     -86.301  61.559  96.139  1.00  0.00     0.175 C
HETATM   14  C7  UNL     1     -86.927  61.992  94.850  1.00  0.00     0.181 C
HETATM   15  C8  UNL     1     -88.126  62.893  95.040  1.00  0.00     0.205 C
BRANCH  13  16
HETATM   16  O4  UNL     1     -87.111  60.655  96.813  1.00  0.00    -0.391 OA
ATOM     17  H4  UNL     1     -87.776  60.306  96.231  1.00  0.00     0.210 HD
ENDBRANCH  13  16
BRANCH  14  18
HETATM   18  O5  UNL     1     -86.024  62.651  94.036  1.00  0.00    -0.390 OA
ATOM     19  H5  UNL     1     -85.126  62.424  94.249  1.00  0.00     0.210 HD
ENDBRANCH  14  18
BRANCH  15  20
HETATM   20  O6  UNL     1     -89.113  62.204  95.734  1.00  0.00    -0.388 OA
ATOM     21  H6  UNL     1     -89.333  61.428  95.233  1.00  0.00     0.210 HD
ENDBRANCH  15  20
ENDBRANCH   7   8
ENDBRANCH   3   7
BRANCH   4  22
HETATM   22  N2  UNL     1     -91.560  65.531  95.131  1.00  0.00    -0.068 N
ATOM     23  H23 UNL     1     -91.537  65.122  94.197  1.00  0.00     0.275 HD
ATOM     24  H22 UNL     1     -91.559  64.658  95.658  1.00  0.00     0.275 HD
ATOM     25  H21 UNL     1     -92.393  66.096  95.299  1.00  0.00     0.275 HD
ENDBRANCH   4  22
BRANCH   1  26
HETATM   26  O1  UNL     1     -86.930  68.206  94.418  1.00  0.00    -0.364 OA
HETATM   27  C1  UNL     1     -85.846  68.450  95.254  1.00  0.00     0.204 C
ENDBRANCH   1  26
BRANCH   5  28
HETATM   28  N3  UNL     1     -90.667  67.604  93.309  1.00  0.00    -0.071 N
ATOM     29  H33 UNL     1     -90.071  66.886  92.897  1.00  0.00     0.274 HD
ATOM     30  H32 UNL     1     -91.584  67.204  93.113  1.00  0.00     0.274 HD
ATOM     31  H31 UNL     1     -90.552  68.488  92.814  1.00  0.00     0.274 HD
ENDBRANCH   5  28
BRANCH   6  32
HETATM   32  N4  UNL     1     -89.316  69.179  96.245  1.00  0.00    -0.241 N
ATOM     33  H4  UNL     1     -89.312  68.698  97.144  1.00  0.00     0.197 HD
BRANCH  32  34
HETATM   34  N5  UNL     1     -89.437  70.399  96.174  1.00  0.00    -0.248 NA
BRANCH  34  35
HETATM   35  N6  UNL     1     -89.772  71.542  95.827  1.00  0.00    -0.261 N
ATOM     36  H62 UNL     1     -88.934  71.987  96.200  1.00  0.00     0.193 HD
ATOM     37  H61 UNL     1     -90.284  72.335  95.441  1.00  0.00     0.193 HD
ENDBRANCH  34  35
ENDBRANCH  32  34
ENDBRANCH   6  32
TORSDOF 11
ENDMDL