MODEL 3
REMARK VINA RESULT: -7.496482870      2.755      3.032
REMARK  10 active torsions:
REMARK  status: ('A' for Active; 'I' for Inactive)
REMARK    1  A    between atoms: N1_1  and  C1_5
REMARK    2  A    between atoms: C3_8  and  O2_9
REMARK    3  A    between atoms: O2_9  and  C4_10
REMARK    4  A    between atoms: C6_12  and  C7_13
REMARK    5  A    between atoms: C7_13  and  O3_14
REMARK    6  A    between atoms: O3_14  and  C8_15
REMARK    7  A    between atoms: C9_16  and  O4_17
REMARK    8  A    between atoms: C10_19  and  O5_20
REMARK    9  A    between atoms: C11_22  and  O6_23
REMARK   10  A    between atoms: C12_25  and  O7_26
ROOT
HETATM    1  C4  UNL     1     -88.937  64.248  95.433  1.00  0.00     0.267 C
HETATM    2  C5  UNL     1     -88.033  63.792  96.557  1.00  0.00     0.095 C
HETATM    3  C6  UNL     1     -87.373  63.065  95.378  1.00  0.00     0.153 C
HETATM    4  O8  UNL     1     -88.590  63.072  94.769  1.00  0.00    -0.353 OA
ENDROOT
BRANCH   3   5
HETATM    5  C7  UNL     1     -86.763  61.799  95.856  1.00  0.00     0.200 C
BRANCH   5   6
HETATM    6  O3  UNL     1     -87.252  60.684  95.271  1.00  0.00    -0.378 OA
BRANCH   6   7
HETATM    7  C8  UNL     1     -86.609  60.111  94.236  1.00  0.00     0.184 C
HETATM    8  C9  UNL     1     -87.636  59.776  93.111  1.00  0.00     0.181 C
HETATM    9  C10 UNL     1     -86.977  58.718  92.281  1.00  0.00     0.180 C
HETATM   10  C11 UNL     1     -85.951  58.060  93.145  1.00  0.00     0.180 C
HETATM   11  C12 UNL     1     -86.048  58.749  94.512  1.00  0.00     0.181 C
BRANCH   8  12
HETATM   12  O4  UNL     1     -88.741  59.258  93.747  1.00  0.00    -0.390 OA
ATOM     13  H4  UNL     1     -89.445  59.877  93.594  1.00  0.00     0.210 HD
ENDBRANCH   8  12
BRANCH   9  14
HETATM   14  O5  UNL     1     -86.343  59.296  91.165  1.00  0.00    -0.390 OA
ATOM     15  H5  UNL     1     -86.822  59.091  90.370  1.00  0.00     0.210 HD
ENDBRANCH   9  14
BRANCH  10  16
HETATM   16  O6  UNL     1     -86.192  56.708  93.366  1.00  0.00    -0.390 OA
ATOM     17  H6  UNL     1     -85.752  56.363  94.133  1.00  0.00     0.210 HD
ENDBRANCH  10  16
BRANCH  11  18
HETATM   18  O7  UNL     1     -84.780  58.735  95.040  1.00  0.00    -0.390 OA
ATOM     19  H7  UNL     1     -84.076  58.714  94.402  1.00  0.00     0.210 HD
ENDBRANCH  11  18
ENDBRANCH   6   7
ENDBRANCH   5   6
ENDBRANCH   3   5
BRANCH   1  20
HETATM   20  O2  UNL     1     -90.255  64.296  95.888  1.00  0.00    -0.308 OA
BRANCH  20  21
HETATM   21  C3  UNL     1     -91.169  63.973  94.898  1.00  0.00     0.474 C
HETATM   22  O1  UNL     1     -92.003  62.994  95.380  1.00  0.00    -0.335 OA
HETATM   23  C2  UNL     1     -93.216  63.559  95.701  1.00  0.00     0.235 C
HETATM   24  C1  UNL     1     -93.345  64.630  94.611  1.00  0.00     0.409 C
HETATM   25  N2  UNL     1     -91.965  65.140  94.602  1.00  0.00     0.006 N
ATOM     26  H22 UNL     1     -91.700  65.624  93.744  1.00  0.00     0.285 HD
ATOM     27  H21 UNL     1     -91.803  65.930  95.227  1.00  0.00     0.285 HD
BRANCH  24  28
HETATM   28  N1  UNL     1     -93.626  64.033  93.322  1.00  0.00    -0.048 N
ATOM     29  H13 UNL     1     -93.769  63.026  93.398  1.00  0.00     0.276 HD
ATOM     30  H12 UNL     1     -94.550  64.297  92.980  1.00  0.00     0.276 HD
ATOM     31  H11 UNL     1     -92.897  64.259  92.645  1.00  0.00     0.276 HD
ENDBRANCH  24  28
ENDBRANCH  20  21
ENDBRANCH   1  20
TORSDOF 10
ENDMDL