MODEL 3
REMARK VINA RESULT: -6.433770733      1.454      2.176
REMARK  9 active torsions:
REMARK  status: ('A' for Active; 'I' for Inactive)
REMARK    1  A    between atoms: O1_2  and  C2_3
REMARK    2  A    between atoms: C6_9  and  C7_10
REMARK    3  A    between atoms: C7_10  and  O4_11
REMARK    4  A    between atoms: O4_11  and  C8_12
REMARK    5  A    between atoms: C9_13  and  N1_14
REMARK    6  A    between atoms: C10_19  and  O6_20
REMARK    7  A    between atoms: C11_22  and  O7_23
REMARK    8  A    between atoms: C12_25  and  O8_26
REMARK    9  A    between atoms: C13_28  and  O9_29
ROOT
HETATM    1  C8  UNL     1     -87.791  61.045  94.454  1.00  0.00     0.209 C
HETATM    2  C9  UNL     1     -86.435  61.234  95.067  1.00  0.00     0.352 C
HETATM    3  O5  UNL     1     -85.388  60.929  94.238  1.00  0.00    -0.324 OA
HETATM    4  C10 UNL     1     -85.421  59.593  93.864  1.00  0.00     0.290 C
HETATM    5  C11 UNL     1     -86.607  59.401  92.961  1.00  0.00     0.204 C
HETATM    6  C12 UNL     1     -87.886  59.907  93.497  1.00  0.00     0.185 C
ENDROOT
BRANCH   1   7
HETATM    7  O4  UNL     1     -88.171  62.241  93.853  1.00  0.00    -0.376 OA
BRANCH   7   8
HETATM    8  C7  UNL     1     -87.625  63.333  94.518  1.00  0.00     0.203 C
BRANCH   8   9
HETATM    9  C6  UNL     1     -88.675  64.097  95.298  1.00  0.00     0.182 C
HETATM   10  O3  UNL     1     -89.907  63.591  94.896  1.00  0.00    -0.346 OA
HETATM   11  C3  UNL     1     -90.961  64.351  95.382  1.00  0.00     0.160 C
HETATM   12  O2  UNL     1     -90.578  65.348  96.223  1.00  0.00    -0.324 OA
HETATM   13  C4  UNL     1     -91.645  64.968  94.182  1.00  0.00     0.078 C
HETATM   14  C5  UNL     1     -91.973  63.436  96.041  1.00  0.00     0.078 C
HETATM   15  C2  UNL     1     -89.711  66.263  95.720  1.00  0.00     0.293 C
HETATM   16  C13 UNL     1     -88.546  65.563  95.083  1.00  0.00     0.204 C
BRANCH  15  17
HETATM   17  O1  UNL     1     -90.313  67.182  94.864  1.00  0.00    -0.363 OA
HETATM   18  C1  UNL     1     -89.796  68.451  94.953  1.00  0.00     0.204 C
ENDBRANCH  15  17
BRANCH  16  19
HETATM   19  O9  UNL     1     -87.317  65.992  95.586  1.00  0.00    -0.388 OA
ATOM     20  H9  UNL     1     -87.087  65.570  96.406  1.00  0.00     0.210 HD
ENDBRANCH  16  19
ENDBRANCH   8   9
ENDBRANCH   7   8
ENDBRANCH   1   7
BRANCH   2  21
HETATM   21  N1  UNL     1     -86.353  60.516  96.325  1.00  0.00    -0.050 N
ATOM     22  H13 UNL     1     -85.438  60.085  96.461  1.00  0.00     0.277 HD
ATOM     23  H12 UNL     1     -86.341  61.147  97.126  1.00  0.00     0.277 HD
ATOM     24  H11 UNL     1     -87.109  59.834  96.388  1.00  0.00     0.277 HD
ENDBRANCH   2  21
BRANCH   6  25
HETATM   25  O8  UNL     1     -88.595  58.827  94.046  1.00  0.00    -0.390 OA
ATOM     26  H8  UNL     1     -89.475  59.079  94.301  1.00  0.00     0.210 HD
ENDBRANCH   6  25
BRANCH   5  27
HETATM   27  O7  UNL     1     -86.665  58.019  92.665  1.00  0.00    -0.388 OA
ATOM     28  H7  UNL     1     -85.774  57.748  92.476  1.00  0.00     0.210 HD
ENDBRANCH   5  27
BRANCH   4  29
HETATM   29  O6  UNL     1     -85.376  58.716  94.917  1.00  0.00    -0.368 OA
ATOM     30  H6  UNL     1     -85.188  57.819  94.667  1.00  0.00     0.212 HD
ENDBRANCH   4  29
TORSDOF 9
ENDMDL