MODEL 2
REMARK VINA RESULT: -5.843837313      2.960      4.731
REMARK  10 active torsions:
REMARK  status: ('A' for Active; 'I' for Inactive)
REMARK    1  A    between atoms: O1_2  and  C2_3
REMARK    2  A    between atoms: C3_5  and  C4_6
REMARK    3  A    between atoms: C4_6  and  O3_7
REMARK    4  A    between atoms: C5_10  and  O5_11
REMARK    5  A    between atoms: O5_11  and  C6_12
REMARK    6  A    between atoms: C8_14  and  C9_15
REMARK    7  A    between atoms: N1_16  and  N2_18
REMARK    8  A    between atoms: C10_21  and  O6_22
REMARK    9  A    between atoms: C11_24  and  N3_25
REMARK   10  A    between atoms: C12_29  and  O7_30
ROOT
HETATM    1  C6  UNL     1     -89.480  64.770  94.963  1.00  0.00     0.158 C
HETATM    2  C7  UNL     1     -87.981  64.933  95.055  1.00  0.00     0.046 C
HETATM    3  C8  UNL     1     -87.457  63.578  95.426  1.00  0.00     0.059 C
HETATM    4  C10 UNL     1     -88.641  62.636  95.453  1.00  0.00     0.160 C
HETATM    5  C11 UNL     1     -89.757  63.598  95.882  1.00  0.00     0.241 C
ENDROOT
BRANCH   1   6
HETATM    6  O5  UNL     1     -90.175  65.865  95.394  1.00  0.00    -0.351 OA
BRANCH   6   7
HETATM    7  C5  UNL     1     -89.550  67.017  94.942  1.00  0.00     0.297 C
HETATM    8  O4  UNL     1     -88.542  67.319  95.815  1.00  0.00    -0.327 OA
HETATM    9  C3  UNL     1     -88.055  68.563  95.835  1.00  0.00     0.289 C
HETATM   10  O2  UNL     1     -88.877  69.600  95.500  1.00  0.00    -0.327 OA
HETATM   11  C2  UNL     1     -89.700  69.380  94.419  1.00  0.00     0.295 C
HETATM   12  C12 UNL     1     -90.522  68.144  94.715  1.00  0.00     0.228 C
BRANCH   9  13
HETATM   13  C4  UNL     1     -86.855  68.613  94.875  1.00  0.00     0.225 C
BRANCH  13  14
HETATM   14  O3  UNL     1     -85.656  68.551  95.569  1.00  0.00    -0.396 OA
ATOM     15  H3  UNL     1     -84.949  68.255  95.007  1.00  0.00     0.209 HD
ENDBRANCH  13  14
ENDBRANCH   9  13
BRANCH  11  16
HETATM   16  O1  UNL     1     -90.574  70.460  94.314  1.00  0.00    -0.363 OA
HETATM   17  C1  UNL     1     -89.874  71.602  94.698  1.00  0.00     0.204 C
ENDBRANCH  11  16
BRANCH  12  18
HETATM   18  O7  UNL     1     -91.282  67.866  93.580  1.00  0.00    -0.386 OA
ATOM     19  H7  UNL     1     -90.998  67.023  93.246  1.00  0.00     0.210 HD
ENDBRANCH  12  18
ENDBRANCH   6   7
ENDBRANCH   1   6
BRANCH   5  20
HETATM   20  N3  UNL     1     -89.602  63.996  97.264  1.00  0.00    -0.070 N
ATOM     21  H33 UNL     1     -88.991  63.361  97.778  1.00  0.00     0.274 HD
ATOM     22  H32 UNL     1     -89.046  64.846  97.355  1.00  0.00     0.274 HD
ATOM     23  H31 UNL     1     -90.515  64.089  97.711  1.00  0.00     0.274 HD
ENDBRANCH   5  20
BRANCH   3  24
HETATM   24  C9  UNL     1     -86.767  63.605  96.747  1.00  0.00     0.087 C
HETATM   25  N1  UNL     1     -86.112  62.581  97.183  1.00  0.00    -0.322 N
ATOM     26  H1  UNL     1     -85.646  62.620  98.089  1.00  0.00     0.185 HD
BRANCH  25  27
HETATM   27  N2  UNL     1     -86.044  61.421  96.409  1.00  0.00    -0.346 N
ATOM     28  H22 UNL     1     -86.454  61.423  95.475  1.00  0.00     0.176 HD
ATOM     29  H21 UNL     1     -85.588  60.589  96.783  1.00  0.00     0.176 HD
ENDBRANCH  25  27
ENDBRANCH   3  24
BRANCH   4  30
HETATM   30  O6  UNL     1     -88.925  62.228  94.155  1.00  0.00    -0.393 OA
ATOM     31  H6  UNL     1     -89.138  62.990  93.630  1.00  0.00     0.210 HD
ENDBRANCH   4  30
TORSDOF 10
ENDMDL