MODEL 3
REMARK VINA RESULT: -5.258642128      1.954      2.495
REMARK  10 active torsions:
REMARK  status: ('A' for Active; 'I' for Inactive)
REMARK    1  A    between atoms: C3_4  and  C4_5
REMARK    2  A    between atoms: C4_5  and  O2_7
REMARK    3  A    between atoms: O2_7  and  C5_8
REMARK    4  A    between atoms: C6_9  and  N2_10
REMARK    5  A    between atoms: C7_14  and  O3_15
REMARK    6  A    between atoms: C8_17  and  O4_18
REMARK    7  A    between atoms: C9_20  and  O5_21
REMARK    8  A    between atoms: C10_23  and  N3_24
REMARK    9  A    between atoms: N3_24  and  O6_26
REMARK   10  A    between atoms: O6_26  and  S1_27
ROOT
HETATM    1  C5  UNL     1     -89.036  65.096  96.055  1.00  0.00     0.192 C
HETATM    2  C6  UNL     1     -87.826  65.682  95.325  1.00  0.00     0.246 C
HETATM    3  C7  UNL     1     -87.939  67.166  95.191  1.00  0.00     0.182 C
HETATM    4  C8  UNL     1     -89.290  67.711  95.545  1.00  0.00     0.179 C
HETATM    5  C9  UNL     1     -90.404  66.885  94.981  1.00  0.00     0.176 C
HETATM    6  C10 UNL     1     -90.238  65.415  95.161  1.00  0.00     0.170 C
ENDROOT
BRANCH   1   7
HETATM    7  O2  UNL     1     -88.866  63.716  96.153  1.00  0.00    -0.308 OA
BRANCH   7   8
HETATM    8  C4  UNL     1     -87.626  63.154  96.414  1.00  0.00     0.284 C
HETATM    9  O1  UNL     1     -86.721  63.856  96.988  1.00  0.00    -0.260 OA
BRANCH   8  10
HETATM   10  C3  UNL     1     -87.364  61.791  96.040  1.00  0.00     0.103 C
HETATM   11  C2  UNL     1     -86.691  61.527  94.937  1.00  0.00     0.026 C
HETATM   12  C1  UNL     1     -86.442  60.097  94.588  1.00  0.00     0.065 C
HETATM   13  N1  UNL     1     -86.200  62.527  94.075  1.00  0.00    -0.107 NA
ENDBRANCH   8  10
ENDBRANCH   7   8
ENDBRANCH   1   7
BRANCH   2  14
HETATM   14  N2  UNL     1     -87.706  65.007  94.051  1.00  0.00    -0.070 N
ATOM     15  H23 UNL     1     -86.751  65.011  93.691  1.00  0.00     0.274 HD
ATOM     16  H22 UNL     1     -87.817  63.996  94.128  1.00  0.00     0.274 HD
ATOM     17  H21 UNL     1     -88.373  65.431  93.407  1.00  0.00     0.274 HD
ENDBRANCH   2  14
BRANCH   6  18
HETATM   18  N3  UNL     1     -91.380  64.747  95.682  1.00  0.00    -0.274 N
ATOM     19  H3  UNL     1     -91.733  64.927  96.623  1.00  0.00     0.189 HD
BRANCH  18  20
HETATM   20  O6  UNL     1     -91.959  63.877  94.868  1.00  0.00    -0.142 OA
BRANCH  20  21
HETATM   21  S1  UNL     1     -93.348  64.412  94.138  1.00  0.00     0.422 S
HETATM   22  O7  UNL     1     -93.827  63.457  93.057  1.00  0.00    -0.177 OA
HETATM   23  O8  UNL     1     -93.215  65.755  93.520  1.00  0.00    -0.177 OA
ENDBRANCH  20  21
ENDBRANCH  18  20
ENDBRANCH   6  18
BRANCH   3  24
HETATM   24  O3  UNL     1     -87.715  67.496  93.834  1.00  0.00    -0.391 OA
ATOM     25  H3  UNL     1     -88.512  67.306  93.353  1.00  0.00     0.210 HD
ENDBRANCH   3  24
BRANCH   5  26
HETATM   26  O5  UNL     1     -90.471  67.172  93.599  1.00  0.00    -0.391 OA
ATOM     27  H5  UNL     1     -90.035  66.459  93.146  1.00  0.00     0.210 HD
ENDBRANCH   5  26
BRANCH   4  28
HETATM   28  O4  UNL     1     -89.430  67.962  96.908  1.00  0.00    -0.390 OA
ATOM     29  H4  UNL     1     -90.313  67.804  97.222  1.00  0.00     0.210 HD
ENDBRANCH   4  28
TORSDOF 10
ENDMDL