MODEL 3
REMARK VINA RESULT: -4.349688577      4.181      7.502
REMARK  10 active torsions:
REMARK  status: ('A' for Active; 'I' for Inactive)
REMARK    1  A    between atoms: N1_2  and  C2_5
REMARK    2  A    between atoms: C4_8  and  O2_9
REMARK    3  A    between atoms: O2_9  and  C5_10
REMARK    4  A    between atoms: C6_12  and  C7_13
REMARK    5  A    between atoms: C7_13  and  N2_14
REMARK    6  A    between atoms: C8_18  and  O4_19
REMARK    7  A    between atoms: C9_21  and  O5_22
REMARK    8  A    between atoms: C10_24  and  O6_25
REMARK    9  A    between atoms: C12_27  and  N3_28
REMARK   10  A    between atoms: C13_32  and  O7_33
ROOT
HETATM    1  C5  UNL     1     -88.439  63.118  94.928  1.00  0.00     0.295 C
HETATM    2  O3  UNL     1     -89.615  63.442  94.259  1.00  0.00    -0.349 OA
HETATM    3  C6  UNL     1     -90.293  64.520  94.734  1.00  0.00     0.181 C
HETATM    4  C8  UNL     1     -89.483  65.714  95.091  1.00  0.00     0.180 C
HETATM    5  C9  UNL     1     -88.019  65.582  94.757  1.00  0.00     0.183 C
HETATM    6  C10 UNL     1     -87.470  64.189  95.063  1.00  0.00     0.207 C
ENDROOT
BRANCH   1   7
HETATM    7  O2  UNL     1     -87.933  62.014  94.240  1.00  0.00    -0.327 OA
BRANCH   7   8
HETATM    8  C4  UNL     1     -87.917  60.842  94.938  1.00  0.00     0.296 C
HETATM    9  O1  UNL     1     -88.589  59.904  94.111  1.00  0.00    -0.357 OA
HETATM   10  C3  UNL     1     -87.847  59.647  92.963  1.00  0.00     0.206 C
HETATM   11  C2  UNL     1     -86.631  58.862  93.391  1.00  0.00     0.239 C
HETATM   12  C13 UNL     1     -85.756  59.842  94.175  1.00  0.00     0.186 C
HETATM   13  C12 UNL     1     -86.601  60.294  95.352  1.00  0.00     0.268 C
BRANCH  11  14
HETATM   14  N1  UNL     1     -85.885  58.341  92.274  1.00  0.00    -0.070 N
HETATM   15  C1  UNL     1     -85.860  56.890  92.386  1.00  0.00     0.267 C
ATOM     16  H12 UNL     1     -84.952  58.747  92.200  1.00  0.00     0.277 HD
ATOM     17  H11 UNL     1     -86.247  58.661  91.375  1.00  0.00     0.277 HD
ENDBRANCH  11  14
BRANCH  12  18
HETATM   18  O7  UNL     1     -84.637  59.207  94.650  1.00  0.00    -0.391 OA
ATOM     19  H7  UNL     1     -84.132  59.794  95.200  1.00  0.00     0.210 HD
ENDBRANCH  12  18
BRANCH  13  20
HETATM   20  N3  UNL     1     -85.805  61.091  96.200  1.00  0.00    -0.068 N
ATOM     21  H33 UNL     1     -84.823  60.850  96.068  1.00  0.00     0.275 HD
ATOM     22  H32 UNL     1     -85.812  62.054  95.863  1.00  0.00     0.275 HD
ATOM     23  H31 UNL     1     -86.025  61.081  97.196  1.00  0.00     0.275 HD
ENDBRANCH  13  20
ENDBRANCH   7   8
ENDBRANCH   1   7
BRANCH   6  24
HETATM   24  O6  UNL     1     -86.817  64.220  96.280  1.00  0.00    -0.383 OA
HETATM   25  C11 UNL     1     -87.473  63.570  97.296  1.00  0.00     0.202 C
ENDBRANCH   6  24
BRANCH   3  26
HETATM   26  C7  UNL     1     -91.061  64.093  95.971  1.00  0.00     0.264 C
BRANCH  26  27
HETATM   27  N2  UNL     1     -92.308  63.494  95.603  1.00  0.00    -0.077 N
ATOM     28  H23 UNL     1     -92.587  62.764  96.260  1.00  0.00     0.274 HD
ATOM     29  H22 UNL     1     -93.091  64.131  95.743  1.00  0.00     0.274 HD
ATOM     30  H21 UNL     1     -92.267  63.147  94.644  1.00  0.00     0.274 HD
ENDBRANCH  26  27
ENDBRANCH   3  26
BRANCH   5  31
HETATM   31  O5  UNL     1     -87.323  66.569  95.451  1.00  0.00    -0.390 OA
ATOM     32  H5  UNL     1     -86.764  67.028  94.834  1.00  0.00     0.210 HD
ENDBRANCH   5  31
BRANCH   4  33
HETATM   33  O4  UNL     1     -90.011  66.804  94.353  1.00  0.00    -0.390 OA
ATOM     34  H4  UNL     1     -89.512  67.573  94.602  1.00  0.00     0.210 HD
ENDBRANCH   4  33
TORSDOF 10
ENDMDL