MODEL 2
REMARK VINA RESULT: -7.877026325      1.587      3.193
REMARK  11 active torsions:
REMARK  status: ('A' for Active; 'I' for Inactive)
REMARK    1  A    between atoms: C1_4  and  C2_5
REMARK    2  A    between atoms: C1_4  and  O7_23
REMARK    3  A    between atoms: C3_6  and  O1_7
REMARK    4  A    between atoms: O1_7  and  C4_8
REMARK    5  A    between atoms: C5_10  and  C6_11
REMARK    6  A    between atoms: C6_11  and  O3_12
REMARK    7  A    between atoms: C7_14  and  O4_15
REMARK    8  A    between atoms: C8_17  and  O5_18
REMARK    9  A    between atoms: C9_20  and  O6_21
REMARK   10  A    between atoms: O7_23  and  C10_24
REMARK   11  A    between atoms: C12_26  and  N2_27
ROOT
HETATM    1  C2  UNL     1     -87.608  62.937  95.922  1.00  0.00     0.080 C
HETATM    2  C3  UNL     1     -88.091  63.847  96.744  1.00  0.00     0.142 C
ENDROOT
BRANCH   2   3
HETATM    3  O1  UNL     1     -89.000  64.762  96.241  1.00  0.00    -0.329 OA
BRANCH   3   4
HETATM    4  C4  UNL     1     -88.757  65.486  95.046  1.00  0.00     0.297 C
HETATM    5  O2  UNL     1     -87.801  66.427  95.320  1.00  0.00    -0.348 OA
HETATM    6  C5  UNL     1     -88.126  67.714  94.937  1.00  0.00     0.179 C
HETATM    7  C7  UNL     1     -89.394  68.075  95.684  1.00  0.00     0.180 C
HETATM    8  C8  UNL     1     -90.493  67.315  94.988  1.00  0.00     0.183 C
HETATM    9  C9  UNL     1     -90.050  65.984  94.516  1.00  0.00     0.205 C
BRANCH   6  10
HETATM   10  C6  UNL     1     -87.055  68.664  95.366  1.00  0.00     0.198 C
BRANCH  10  11
HETATM   11  O3  UNL     1     -85.795  68.172  95.043  1.00  0.00    -0.398 OA
ATOM     12  H3  UNL     1     -85.172  68.881  94.934  1.00  0.00     0.209 HD
ENDBRANCH  10  11
ENDBRANCH   6  10
BRANCH   7  13
HETATM   13  O4  UNL     1     -89.554  69.451  95.579  1.00  0.00    -0.390 OA
ATOM     14  H4  UNL     1     -89.380  69.684  94.674  1.00  0.00     0.210 HD
ENDBRANCH   7  13
BRANCH   8  15
HETATM   15  O5  UNL     1     -90.924  68.117  93.919  1.00  0.00    -0.390 OA
ATOM     16  H5  UNL     1     -90.610  67.703  93.124  1.00  0.00     0.210 HD
ENDBRANCH   8  15
BRANCH   9  17
HETATM   17  O6  UNL     1     -91.083  65.064  94.813  1.00  0.00    -0.388 OA
ATOM     18  H6  UNL     1     -91.912  65.520  94.889  1.00  0.00     0.210 HD
ENDBRANCH   9  17
ENDBRANCH   3   4
ENDBRANCH   2   3
BRANCH   1  19
HETATM   19  C1  UNL     1     -86.651  61.963  96.424  1.00  0.00     0.140 C
HETATM   20  N1  UNL     1     -85.700  62.375  97.183  1.00  0.00    -0.380 N
ATOM     21  H12 UNL     1     -85.596  63.356  97.442  1.00  0.00     0.158 HD
ATOM     22  H11 UNL     1     -85.029  61.692  97.536  1.00  0.00     0.158 HD
BRANCH  19  23
HETATM   23  O7  UNL     1     -86.791  60.635  96.074  1.00  0.00    -0.305 OA
BRANCH  23  24
HETATM   24  C10 UNL     1     -86.683  60.303  94.696  1.00  0.00     0.270 C
HETATM   25  C11 UNL     1     -85.923  59.035  94.470  1.00  0.00     0.096 C
HETATM   26  C12 UNL     1     -86.609  58.512  93.202  1.00  0.00     0.211 C
HETATM   27  C13 UNL     1     -88.034  58.980  93.499  1.00  0.00     0.203 C
HETATM   28  O8  UNL     1     -87.921  60.190  94.122  1.00  0.00    -0.359 OA
BRANCH  26  29
HETATM   29  N2  UNL     1     -86.113  59.273  92.094  1.00  0.00    -0.073 N
ATOM     30  H23 UNL     1     -85.094  59.297  92.054  1.00  0.00     0.274 HD
ATOM     31  H22 UNL     1     -86.272  58.816  91.196  1.00  0.00     0.274 HD
ATOM     32  H21 UNL     1     -86.530  60.203  92.144  1.00  0.00     0.274 HD
ENDBRANCH  26  29
ENDBRANCH  23  24
ENDBRANCH  19  23
ENDBRANCH   1  19
TORSDOF 11
ENDMDL