MODEL 1
REMARK VINA RESULT: -7.736908986      0.000      0.000
REMARK  11 active torsions:
REMARK  status: ('A' for Active; 'I' for Inactive)
REMARK    1  A    between atoms: C3_4  and  C4_5
REMARK    2  A    between atoms: C4_5  and  O1_6
REMARK    3  A    between atoms: C5_9  and  O3_10
REMARK    4  A    between atoms: O3_10  and  C6_11
REMARK    5  A    between atoms: C7_13  and  C8_14
REMARK    6  A    between atoms: C8_14  and  C9_15
REMARK    7  A    between atoms: C9_15  and  O5_16
REMARK    8  A    between atoms: C10_18  and  O6_19
REMARK    9  A    between atoms: C11_21  and  O7_22
REMARK   10  A    between atoms: C12_24  and  N2_25
REMARK   11  A    between atoms: C13_29  and  N3_30
ROOT
HETATM    1  N1  UNL     1     -91.179  68.064  93.403  1.00  0.00    -0.197 NA
HETATM    2  C1  UNL     1     -90.624  67.373  94.140  1.00  0.00     0.069 C
HETATM    3  C2  UNL     1     -89.910  66.496  95.063  1.00  0.00     0.156 C
HETATM    4  C3  UNL     1     -88.447  66.387  94.722  1.00  0.00     0.168 C
HETATM    5  O2  UNL     1     -87.863  65.615  95.713  1.00  0.00    -0.350 OA
HETATM    6  C5  UNL     1     -88.244  64.302  95.723  1.00  0.00     0.296 C
HETATM    7  C12 UNL     1     -89.704  64.044  95.569  1.00  0.00     0.270 C
HETATM    8  C13 UNL     1     -90.489  65.103  94.906  1.00  0.00     0.238 C
ENDROOT
BRANCH   4   9
HETATM    9  C4  UNL     1     -87.743  67.727  94.750  1.00  0.00     0.197 C
BRANCH   9  10
HETATM   10  O1  UNL     1     -86.486  67.651  95.324  1.00  0.00    -0.398 OA
ATOM     11  H1  UNL     1     -85.790  67.695  94.679  1.00  0.00     0.209 HD
ENDBRANCH   9  10
ENDBRANCH   4   9
BRANCH   8  12
HETATM   12  N3  UNL     1     -91.874  65.173  95.343  1.00  0.00    -0.071 N
ATOM     13  H33 UNL     1     -92.343  66.031  95.053  1.00  0.00     0.274 HD
ATOM     14  H32 UNL     1     -92.484  64.520  94.851  1.00  0.00     0.274 HD
ATOM     15  H31 UNL     1     -91.869  65.037  96.354  1.00  0.00     0.274 HD
ENDBRANCH   8  12
BRANCH   7  16
HETATM   16  N2  UNL     1     -90.314  63.715  96.867  1.00  0.00    -0.068 N
ATOM     17  H23 UNL     1     -91.025  62.989  96.778  1.00  0.00     0.275 HD
ATOM     18  H22 UNL     1     -89.663  63.218  97.475  1.00  0.00     0.275 HD
ATOM     19  H21 UNL     1     -90.684  64.554  97.314  1.00  0.00     0.275 HD
ENDBRANCH   7  16
BRANCH   6  20
HETATM   20  O3  UNL     1     -87.498  63.627  94.757  1.00  0.00    -0.327 OA
BRANCH  20  21
HETATM   21  C6  UNL     1     -87.593  62.245  94.891  1.00  0.00     0.294 C
HETATM   22  O4  UNL     1     -87.795  61.592  93.692  1.00  0.00    -0.350 OA
HETATM   23  C7  UNL     1     -87.567  60.252  94.038  1.00  0.00     0.158 C
HETATM   24  C10 UNL     1     -86.252  60.314  94.735  1.00  0.00     0.180 C
HETATM   25  C11 UNL     1     -86.374  61.630  95.519  1.00  0.00     0.204 C
BRANCH  23  26
HETATM   26  C8  UNL     1     -87.655  59.350  92.860  1.00  0.00     0.061 C
BRANCH  26  27
HETATM   27  C9  UNL     1     -87.873  57.930  93.292  1.00  0.00     0.166 C
BRANCH  27  28
HETATM   28  O5  UNL     1     -89.014  57.777  94.031  1.00  0.00    -0.401 OA
ATOM     29  H5  UNL     1     -89.439  56.941  93.875  1.00  0.00     0.209 HD
ENDBRANCH  27  28
ENDBRANCH  26  27
ENDBRANCH  23  26
BRANCH  24  30
HETATM   30  O6  UNL     1     -85.160  60.432  93.888  1.00  0.00    -0.390 OA
ATOM     31  H6  UNL     1     -84.354  60.690  94.320  1.00  0.00     0.210 HD
ENDBRANCH  24  30
BRANCH  25  32
HETATM   32  O7  UNL     1     -86.587  61.270  96.846  1.00  0.00    -0.388 OA
ATOM     33  H7  UNL     1     -85.981  60.601  97.141  1.00  0.00     0.210 HD
ENDBRANCH  25  32
ENDBRANCH  20  21
ENDBRANCH   6  20
TORSDOF 11
ENDMDL