MODEL 1
REMARK VINA RESULT: -4.306618779      0.000      0.000
REMARK  10 active torsions:
REMARK  status: ('A' for Active; 'I' for Inactive)
REMARK    1  A    between atoms: C4_7  and  O1_8
REMARK    2  A    between atoms: O1_8  and  C5_9
REMARK    3  A    between atoms: C6_13  and  O2_14
REMARK    4  A    between atoms: O2_14  and  C7_15
REMARK    5  A    between atoms: C8_17  and  C9_18
REMARK    6  A    between atoms: C9_18  and  N3_19
REMARK    7  A    between atoms: C10_23  and  O4_24
REMARK    8  A    between atoms: C11_26  and  O5_27
REMARK    9  A    between atoms: C12_29  and  N4_30
REMARK   10  A    between atoms: C13_34  and  O6_35
ROOT
HETATM    1  C7  UNL     1     -88.709  66.354  94.523  1.00  0.00     0.294 C
HETATM    2  O3  UNL     1     -90.021  66.208  94.958  1.00  0.00    -0.349 OA
HETATM    3  C8  UNL     1     -90.864  67.241  94.590  1.00  0.00     0.181 C
HETATM    4  C10 UNL     1     -90.348  68.585  95.021  1.00  0.00     0.179 C
HETATM    5  C11 UNL     1     -88.924  68.790  94.518  1.00  0.00     0.184 C
HETATM    6  C12 UNL     1     -88.141  67.628  95.096  1.00  0.00     0.269 C
ENDROOT
BRANCH   1   7
HETATM    7  O2  UNL     1     -87.945  65.316  95.039  1.00  0.00    -0.348 OA
BRANCH   7   8
HETATM    8  C6  UNL     1     -88.472  64.063  94.881  1.00  0.00     0.186 C
HETATM    9  C4  UNL     1     -87.558  63.057  94.225  1.00  0.00     0.186 C
HETATM   10  C3  UNL     1     -86.282  62.967  95.037  1.00  0.00     0.267 C
HETATM   11  N1  UNL     1     -86.300  63.842  96.193  1.00  0.00    -0.066 N
HETATM   12  C2  UNL     1     -87.393  63.399  97.047  1.00  0.00     0.213 C
ATOM     13  H12 UNL     1     -86.359  64.830  95.946  1.00  0.00     0.277 HD
ATOM     14  H11 UNL     1     -85.403  63.882  96.678  1.00  0.00     0.277 HD
HETATM   15  C1  UNL     1     -87.079  62.006  97.501  1.00  0.00     0.043 C
HETATM   16  C13 UNL     1     -88.693  63.524  96.310  1.00  0.00     0.180 C
BRANCH   9  17
HETATM   17  O1  UNL     1     -88.249  61.811  94.220  1.00  0.00    -0.337 OA
BRANCH  17  18
HETATM   18  C5  UNL     1     -87.613  60.598  94.074  1.00  0.00     0.219 C
HETATM   19  N2  UNL     1     -87.551  60.060  92.915  1.00  0.00    -0.390 N
ATOM     20  H22 UNL     1     -87.973  60.538  92.119  1.00  0.00     0.157 HD
ATOM     21  H21 UNL     1     -87.080  59.163  92.807  1.00  0.00     0.157 HD
ENDBRANCH  17  18
ENDBRANCH   9  17
BRANCH  16  22
HETATM   22  O6  UNL     1     -89.313  62.279  96.286  1.00  0.00    -0.391 OA
ATOM     23  H6  UNL     1     -90.074  62.308  96.852  1.00  0.00     0.210 HD
ENDBRANCH  16  22
ENDBRANCH   7   8
ENDBRANCH   1   7
BRANCH   6  24
HETATM   24  N4  UNL     1     -86.738  67.737  94.860  1.00  0.00    -0.068 N
ATOM     25  H43 UNL     1     -86.201  67.305  95.612  1.00  0.00     0.275 HD
ATOM     26  H42 UNL     1     -86.444  67.138  94.089  1.00  0.00     0.275 HD
ATOM     27  H41 UNL     1     -86.453  68.705  94.709  1.00  0.00     0.275 HD
ENDBRANCH   6  24
BRANCH   3  28
HETATM   28  C9  UNL     1     -91.147  67.265  93.116  1.00  0.00     0.264 C
BRANCH  28  29
HETATM   29  N3  UNL     1     -92.551  67.293  92.791  1.00  0.00    -0.077 N
ATOM     30  H33 UNL     1     -93.110  67.459  93.628  1.00  0.00     0.274 HD
ATOM     31  H32 UNL     1     -92.779  68.134  92.261  1.00  0.00     0.274 HD
ATOM     32  H31 UNL     1     -92.880  66.461  92.300  1.00  0.00     0.274 HD
ENDBRANCH  28  29
ENDBRANCH   3  28
BRANCH   5  33
HETATM   33  O5  UNL     1     -88.473  70.000  94.997  1.00  0.00    -0.391 OA
ATOM     34  H5  UNL     1     -87.841  69.827  95.686  1.00  0.00     0.210 HD
ENDBRANCH   5  33
BRANCH   4  35
HETATM   35  O4  UNL     1     -91.144  69.612  94.554  1.00  0.00    -0.390 OA
ATOM     36  H4  UNL     1     -90.630  70.375  94.314  1.00  0.00     0.210 HD
ENDBRANCH   4  35
TORSDOF 10
ENDMDL