MODEL 1
REMARK VINA RESULT: -7.706474166      0.000      0.000
REMARK  11 active torsions:
REMARK  status: ('A' for Active; 'I' for Inactive)
REMARK    1  A    between atoms: C1_2  and  O2_4
REMARK    2  A    between atoms: O2_4  and  C2_5
REMARK    3  A    between atoms: C2_5  and  C3_6
REMARK    4  A    between atoms: C5_8  and  O3_9
REMARK    5  A    between atoms: O3_9  and  C6_10
REMARK    6  A    between atoms: C6_10  and  C7_11
REMARK    7  A    between atoms: C8_13  and  O5_14
REMARK    8  A    between atoms: C9_16  and  N2_17
REMARK    9  A    between atoms: C10_21  and  O6_22
REMARK   10  A    between atoms: C11_24  and  N3_25
REMARK   11  A    between atoms: C12_29  and  O7_30
ROOT
HETATM    1  C3  UNL     1     -90.262  64.659  95.772  1.00  0.00     0.151 C
HETATM    2  C4  UNL     1     -89.956  63.324  95.209  1.00  0.00     0.068 C
HETATM    3  C5  UNL     1     -88.538  63.010  94.911  1.00  0.00     0.159 C
HETATM    4  C11 UNL     1     -87.543  64.080  95.263  1.00  0.00     0.266 C
HETATM    5  C12 UNL     1     -88.203  65.439  95.021  1.00  0.00     0.290 C
HETATM    6  O8  UNL     1     -89.222  65.530  95.927  1.00  0.00    -0.352 OA
ENDROOT
BRANCH   3   7
HETATM    7  O3  UNL     1     -88.228  61.782  95.456  1.00  0.00    -0.381 OA
BRANCH   7   8
HETATM    8  C6  UNL     1     -86.889  61.466  95.434  1.00  0.00     0.203 C
BRANCH   8   9
HETATM    9  C7  UNL     1     -86.582  60.877  94.066  1.00  0.00     0.179 C
HETATM   10  O4  UNL     1     -85.282  60.453  93.953  1.00  0.00    -0.349 OA
HETATM   11  C8  UNL     1     -85.250  59.081  94.008  1.00  0.00     0.290 C
HETATM   12  C9  UNL     1     -86.497  58.691  93.220  1.00  0.00     0.269 C
HETATM   13  C10 UNL     1     -87.486  59.724  93.729  1.00  0.00     0.184 C
BRANCH  11  14
HETATM   14  O5  UNL     1     -85.372  58.619  95.298  1.00  0.00    -0.369 OA
ATOM     15  H5  UNL     1     -84.587  58.169  95.588  1.00  0.00     0.212 HD
ENDBRANCH  11  14
BRANCH  12  16
HETATM   16  N2  UNL     1     -86.232  58.978  91.835  1.00  0.00    -0.068 N
ATOM     17  H23 UNL     1     -85.509  58.379  91.434  1.00  0.00     0.275 HD
ATOM     18  H22 UNL     1     -86.993  58.698  91.216  1.00  0.00     0.275 HD
ATOM     19  H21 UNL     1     -86.010  59.971  91.771  1.00  0.00     0.275 HD
ENDBRANCH  12  16
BRANCH  13  20
HETATM   20  O6  UNL     1     -88.472  60.025  92.825  1.00  0.00    -0.391 OA
ATOM     21  H6  UNL     1     -89.317  59.638  93.024  1.00  0.00     0.210 HD
ENDBRANCH  13  20
ENDBRANCH   8   9
ENDBRANCH   7   8
ENDBRANCH   3   7
BRANCH   4  22
HETATM   22  N3  UNL     1     -87.132  64.056  96.638  1.00  0.00    -0.068 N
ATOM     23  H33 UNL     1     -87.648  64.749  97.180  1.00  0.00     0.275 HD
ATOM     24  H32 UNL     1     -87.457  63.204  97.096  1.00  0.00     0.275 HD
ATOM     25  H31 UNL     1     -86.127  64.174  96.768  1.00  0.00     0.275 HD
ENDBRANCH   4  22
BRANCH   1  26
HETATM   26  C2  UNL     1     -91.369  65.392  94.997  1.00  0.00     0.212 C
BRANCH  26  27
HETATM   27  O2  UNL     1     -92.344  64.429  94.644  1.00  0.00    -0.304 OA
BRANCH  27  28
HETATM   28  C1  UNL     1     -93.330  64.637  93.715  1.00  0.00     0.372 C
HETATM   29  N1  UNL     1     -93.832  65.924  93.409  1.00  0.00    -0.032 NA
HETATM   30  O1  UNL     1     -93.799  63.618  93.115  1.00  0.00    -0.242 OA
ENDBRANCH  27  28
ENDBRANCH  26  27
ENDBRANCH   1  26
BRANCH   5  31
HETATM   31  O7  UNL     1     -87.266  66.428  95.318  1.00  0.00    -0.369 OA
ATOM     32  H7  UNL     1     -87.617  67.260  95.021  1.00  0.00     0.212 HD
ENDBRANCH   5  31
TORSDOF 11
ENDMDL