MODEL 5
REMARK VINA RESULT: -6.366965368      1.599      3.472
REMARK  7 active torsions:
REMARK  status: ('A' for Active; 'I' for Inactive)
REMARK    1  A    between atoms: N1_1  and  C1_4
REMARK    2  A    between atoms: N3_8  and  C3_9
REMARK    3  A    between atoms: C3_9  and  C4_10
REMARK    4  A    between atoms: C4_10  and  C5_11
REMARK    5  A    between atoms: C5_11  and  C6_12
REMARK    6  A    between atoms: C6_12  and  N4_13
REMARK    7  A    between atoms: C8_22  and  N8_23
ROOT
HETATM    1  C1  UNL     1     -34.278  22.863  -4.088  1.00  0.00     0.705 A
HETATM    2  N2  UNL     1     -35.612  22.937  -3.929  1.00  0.00    -0.019 N
ATOM      3  H2  UNL     1     -36.009  23.703  -3.385  1.00  0.00     0.203 HD
HETATM    4  C2  UNL     1     -36.434  22.022  -4.472  1.00  0.00     0.738 A
HETATM    5  N3  UNL     1     -37.768  21.859  -4.470  1.00  0.00    -0.151 N
HETATM    6  C7  UNL     1     -38.091  20.747  -5.186  1.00  0.00     0.225 A
HETATM    7  N5  UNL     1     -39.425  20.294  -5.379  1.00  0.00    -0.061 NA
HETATM    8  N6  UNL     1     -36.933  20.234  -5.625  1.00  0.00    -0.237 N
ATOM      9  H6  UNL     1     -36.839  19.393  -6.195  1.00  0.00     0.191 HD
HETATM   10  N7  UNL     1     -35.933  20.989  -5.205  1.00  0.00     0.093 N
HETATM   11  C8  UNL     1     -34.601  20.910  -5.367  1.00  0.00     0.727 A
HETATM   12  N9  UNL     1     -33.788  21.831  -4.820  1.00  0.00    -0.020 N
ATOM     13  H9  UNL     1     -32.781  21.751  -4.958  1.00  0.00     0.203 HD
ENDROOT
BRANCH   5  14
HETATM   14  C3  UNL     1     -38.685  22.761  -3.790  1.00  0.00     0.151 C
BRANCH  14  15
HETATM   15  C4  UNL     1     -39.579  23.366  -4.844  1.00  0.00     0.022 C
BRANCH  15  16
HETATM   16  C5  UNL     1     -40.396  24.517  -4.300  1.00  0.00     0.029 C
BRANCH  16  17
HETATM   17  C6  UNL     1     -39.573  25.139  -3.168  1.00  0.00     0.229 C
BRANCH  17  18
HETATM   18  N4  UNL     1     -39.022  26.407  -3.522  1.00  0.00    -0.079 N
ATOM     19  H43 UNL     1     -38.795  26.443  -4.516  1.00  0.00     0.274 HD
ATOM     20  H42 UNL     1     -39.734  27.138  -3.490  1.00  0.00     0.274 HD
ATOM     21  H41 UNL     1     -38.214  26.657  -2.952  1.00  0.00     0.274 HD
ENDBRANCH  17  18
ENDBRANCH  16  17
ENDBRANCH  15  16
ENDBRANCH  14  15
ENDBRANCH   5  14
BRANCH   1  22
HETATM   22  N1  UNL     1     -33.478  23.743  -3.567  1.00  0.00    -0.234 N
ATOM     23  H12 UNL     1     -33.779  24.315  -2.778  1.00  0.00     0.174 HD
ATOM     24  H11 UNL     1     -32.534  23.889  -3.924  1.00  0.00     0.174 HD
ENDBRANCH   1  22
BRANCH  11  25
HETATM   25  N8  UNL     1     -34.120  19.932  -6.062  1.00  0.00    -0.232 N
ATOM     26  H82 UNL     1     -33.236  20.031  -6.561  1.00  0.00     0.174 HD
ATOM     27  H81 UNL     1     -34.645  19.058  -6.102  1.00  0.00     0.174 HD
ENDBRANCH  11  25
TORSDOF 7
ENDMDL