MODEL 2
REMARK VINA RESULT: -6.780963156      2.780      5.508
REMARK  7 active torsions:
REMARK  status: ('A' for Active; 'I' for Inactive)
REMARK    1  A    between atoms: N2_6  and  C3_8
REMARK    2  A    between atoms: C3_8  and  C4_9
REMARK    3  A    between atoms: C4_9  and  C5_10
REMARK    4  A    between atoms: C5_10  and  C6_11
REMARK    5  A    between atoms: C6_11  and  O1_12
REMARK    6  A    between atoms: O1_12  and  N3_13
REMARK    7  A    between atoms: N7_22  and  N8_23
ROOT
HETATM    1  N1  UNL     1     -36.108  23.596  -4.352  1.00  0.00    -0.380 N
ATOM      2  H11 UNL     1     -36.407  24.471  -3.920  1.00  0.00     0.158 HD
ATOM      3  H12 UNL     1     -35.127  23.413  -4.564  1.00  0.00     0.158 HD
HETATM    4  C1  UNL     1     -36.991  22.713  -4.634  1.00  0.00     0.182 A
HETATM    5  C2  UNL     1     -36.588  21.535  -5.216  1.00  0.00     0.151 A
HETATM    6  N2  UNL     1     -35.356  21.326  -5.473  1.00  0.00    -0.373 N
ATOM      7  H2  UNL     1     -34.658  22.035  -5.246  1.00  0.00     0.161 HD
HETATM    8  N4  UNL     1     -37.531  20.618  -5.505  1.00  0.00    -0.312 N
ATOM      9  H4  UNL     1     -37.267  19.733  -5.939  1.00  0.00     0.170 HD
HETATM   10  C7  UNL     1     -38.820  20.873  -5.221  1.00  0.00     0.210 A
HETATM   11  N5  UNL     1     -39.811  19.908  -5.525  1.00  0.00    -0.062 NA
HETATM   12  N6  UNL     1     -39.199  22.035  -4.648  1.00  0.00    -0.251 N
ATOM     13  H6  UNL     1     -40.182  22.210  -4.440  1.00  0.00     0.192 HD
HETATM   14  N7  UNL     1     -38.276  22.952  -4.357  1.00  0.00    -0.181 N
ENDROOT
BRANCH   6  15
HETATM   15  C3  UNL     1     -34.958  20.095  -6.078  1.00  0.00     0.121 C
BRANCH  15  16
HETATM   16  C4  UNL     1     -34.355  19.139  -5.039  1.00  0.00     0.022 C
BRANCH  16  17
HETATM   17  C5  UNL     1     -33.273  19.943  -4.338  1.00  0.00     0.030 C
BRANCH  17  18
HETATM   18  C6  UNL     1     -33.732  20.425  -2.982  1.00  0.00     0.200 C
BRANCH  18  19
HETATM   19  O1  UNL     1     -33.798  21.817  -3.044  1.00  0.00    -0.287 OA
BRANCH  19  20
HETATM   20  N3  UNL     1     -32.839  22.305  -3.897  1.00  0.00    -0.311 N
ATOM     21  H32 UNL     1     -31.886  22.534  -3.612  1.00  0.00     0.184 HD
ATOM     22  H31 UNL     1     -33.216  22.401  -4.839  1.00  0.00     0.184 HD
ENDBRANCH  19  20
ENDBRANCH  18  19
ENDBRANCH  17  18
ENDBRANCH  16  17
ENDBRANCH  15  16
ENDBRANCH   6  15
BRANCH  14  23
HETATM   23  N8  UNL     1     -38.643  24.160  -3.766  1.00  0.00    -0.322 N
ATOM     24  H82 UNL     1     -38.907  24.959  -4.342  1.00  0.00     0.179 HD
ATOM     25  H81 UNL     1     -38.647  24.245  -2.749  1.00  0.00     0.179 HD
ENDBRANCH  14  23
TORSDOF 7
ENDMDL