MODEL 2
REMARK VINA RESULT: -6.309124370      1.240      2.055
REMARK  8 active torsions:
REMARK  status: ('A' for Active; 'I' for Inactive)
REMARK    1  A    between atoms: C3_7  and  N4_8
REMARK    2  A    between atoms: C4_14  and  O1_15
REMARK    3  A    between atoms: O1_15  and  C5_16
REMARK    4  A    between atoms: C5_16  and  C6_17
REMARK    5  A    between atoms: C6_17  and  N6_18
REMARK    6  A    between atoms: N6_18  and  C7_21
REMARK    7  A    between atoms: C7_21  and  C8_22
REMARK    8  A    between atoms: C8_22  and  N7_23
ROOT
HETATM    1  C1  UNL     1     -34.295  23.932  -3.670  1.00  0.00     0.048 C
HETATM    2  C2  UNL     1     -35.390  23.299  -4.040  1.00  0.00     0.087 C
HETATM    3  N1  UNL     1     -36.561  24.096  -4.164  1.00  0.00    -0.284 N
ATOM      4  H1  UNL     1     -36.435  25.108  -4.162  1.00  0.00     0.184 HD
HETATM    5  N2  UNL     1     -37.890  23.611  -4.292  1.00  0.00    -0.027 NA
HETATM    6  N3  UNL     1     -38.049  22.412  -3.603  1.00  0.00    -0.072 NA
HETATM    7  C3  UNL     1     -37.670  21.256  -4.361  1.00  0.00     0.396 C
HETATM    8  N5  UNL     1     -36.248  21.036  -4.407  1.00  0.00    -0.328 N
ATOM      9  H5  UNL     1     -35.969  20.069  -4.568  1.00  0.00     0.165 HD
HETATM   10  C4  UNL     1     -35.270  21.867  -4.277  1.00  0.00     0.168 C
ENDROOT
BRANCH  10  11
HETATM   11  O1  UNL     1     -33.963  21.346  -4.372  1.00  0.00    -0.333 OA
BRANCH  11  12
HETATM   12  C5  UNL     1     -33.570  20.482  -3.347  1.00  0.00     0.204 C
BRANCH  12  13
HETATM   13  C6  UNL     1     -33.053  19.161  -3.846  1.00  0.00     0.259 C
BRANCH  13  14
HETATM   14  N6  UNL     1     -33.113  19.002  -5.263  1.00  0.00    -0.072 N
ATOM     15  H62 UNL     1     -33.071  19.892  -5.760  1.00  0.00     0.277 HD
ATOM     16  H61 UNL     1     -32.264  18.589  -5.648  1.00  0.00     0.277 HD
BRANCH  14  17
HETATM   17  C7  UNL     1     -34.299  18.239  -5.584  1.00  0.00     0.259 C
BRANCH  17  18
HETATM   18  C8  UNL     1     -35.032  18.796  -6.777  1.00  0.00     0.257 C
BRANCH  18  19
HETATM   19  N7  UNL     1     -34.256  19.920  -7.273  1.00  0.00    -0.078 N
ATOM     20  H73 UNL     1     -34.512  20.194  -8.222  1.00  0.00     0.274 HD
ATOM     21  H72 UNL     1     -34.489  20.800  -6.814  1.00  0.00     0.274 HD
ATOM     22  H71 UNL     1     -33.272  19.671  -7.182  1.00  0.00     0.274 HD
ENDBRANCH  18  19
ENDBRANCH  17  18
ENDBRANCH  14  17
ENDBRANCH  13  14
ENDBRANCH  12  13
ENDBRANCH  11  12
ENDBRANCH  10  11
BRANCH   7  23
HETATM   23  N4  UNL     1     -38.279  21.318  -5.665  1.00  0.00    -0.043 N
ATOM     24  H43 UNL     1     -38.952  20.566  -5.813  1.00  0.00     0.278 HD
ATOM     25  H42 UNL     1     -38.920  22.107  -5.754  1.00  0.00     0.278 HD
ATOM     26  H41 UNL     1     -37.551  21.331  -6.378  1.00  0.00     0.278 HD
ENDBRANCH   7  23
TORSDOF 8
ENDMDL