MODEL 1
REMARK VINA RESULT: -6.773349396      0.000      0.000
REMARK  8 active torsions:
REMARK  status: ('A' for Active; 'I' for Inactive)
REMARK    1  A    between atoms: N1_1  and  C1_4
REMARK    2  A    between atoms: C2_7  and  N3_8
REMARK    3  A    between atoms: N5_14  and  C4_15
REMARK    4  A    between atoms: C4_15  and  C5_16
REMARK    5  A    between atoms: C5_16  and  N6_17
REMARK    6  A    between atoms: N6_17  and  C6_20
REMARK    7  A    between atoms: C6_20  and  C7_21
REMARK    8  A    between atoms: C7_21  and  O1_22
ROOT
HETATM    1  C1  UNL     1     -34.533  20.533  -6.188  1.00  0.00     0.679 A
HETATM    2  N2  UNL     1     -33.876  21.269  -5.276  1.00  0.00    -0.175 N
ATOM      3  H2  UNL     1     -32.869  21.150  -5.171  1.00  0.00     0.186 HD
HETATM    4  C2  UNL     1     -34.520  22.164  -4.494  1.00  0.00     0.147 A
HETATM    5  C3  UNL     1     -35.886  22.335  -4.628  1.00  0.00     0.140 A
HETATM    6  N4  UNL     1     -36.800  23.121  -4.018  1.00  0.00    -0.277 N
ATOM      7  H4  UNL     1     -36.592  23.791  -3.277  1.00  0.00     0.189 HD
HETATM    8  N5  UNL     1     -38.012  22.896  -4.526  1.00  0.00    -0.230 N
HETATM    9  N7  UNL     1     -37.839  21.966  -5.452  1.00  0.00    -0.266 N
ATOM     10  H7  UNL     1     -38.592  21.580  -6.022  1.00  0.00     0.190 HD
HETATM   11  C8  UNL     1     -36.564  21.593  -5.551  1.00  0.00     0.169 A
HETATM   12  N8  UNL     1     -35.857  20.716  -6.299  1.00  0.00    -0.173 N
ATOM     13  H8  UNL     1     -36.361  20.161  -6.990  1.00  0.00     0.186 HD
ENDROOT
BRANCH   8  14
HETATM   14  C4  UNL     1     -39.262  23.530  -4.137  1.00  0.00     0.197 C
BRANCH  14  15
HETATM   15  C5  UNL     1     -38.922  24.895  -3.571  1.00  0.00     0.255 C
BRANCH  15  16
HETATM   16  N6  UNL     1     -39.331  25.035  -2.208  1.00  0.00    -0.071 N
ATOM     17  H62 UNL     1     -40.279  24.693  -2.054  1.00  0.00     0.277 HD
ATOM     18  H61 UNL     1     -38.840  24.389  -1.591  1.00  0.00     0.277 HD
BRANCH  16  19
HETATM   19  C6  UNL     1     -39.173  26.405  -1.798  1.00  0.00     0.258 C
BRANCH  19  20
HETATM   20  C7  UNL     1     -39.050  26.523  -0.297  1.00  0.00     0.191 C
BRANCH  20  21
HETATM   21  O1  UNL     1     -37.894  25.813   0.083  1.00  0.00    -0.399 OA
ATOM     22  H1  UNL     1     -38.072  25.418   0.928  1.00  0.00     0.209 HD
ENDBRANCH  20  21
ENDBRANCH  19  20
ENDBRANCH  16  19
ENDBRANCH  15  16
ENDBRANCH  14  15
ENDBRANCH   8  14
BRANCH   4  23
HETATM   23  N3  UNL     1     -33.913  22.873  -3.616  1.00  0.00    -0.383 N
ATOM     24  H32 UNL     1     -33.257  22.400  -2.994  1.00  0.00     0.157 HD
ATOM     25  H31 UNL     1     -34.062  23.878  -3.525  1.00  0.00     0.157 HD
ENDBRANCH   4  23
BRANCH   1  26
HETATM   26  N1  UNL     1     -33.889  19.676  -6.927  1.00  0.00    -0.234 N
ATOM     27  H12 UNL     1     -32.881  19.538  -6.844  1.00  0.00     0.174 HD
ATOM     28  H11 UNL     1     -34.387  19.115  -7.619  1.00  0.00     0.174 HD
ENDBRANCH   1  26
TORSDOF 8
ENDMDL