MODEL 1
REMARK VINA RESULT: -6.242255973      0.000      0.000
REMARK  8 active torsions:
REMARK  status: ('A' for Active; 'I' for Inactive)
REMARK    1  A    between atoms: C2_2  and  N1_3
REMARK    2  A    between atoms: N1_3  and  C3_5
REMARK    3  A    between atoms: C3_5  and  C4_6
REMARK    4  A    between atoms: C4_6  and  N2_7
REMARK    5  A    between atoms: N2_7  and  C5_9
REMARK    6  A    between atoms: C6_14  and  C7_15
REMARK    7  A    between atoms: C7_15  and  N5_16
REMARK    8  A    between atoms: C8_20  and  O1_21
ROOT
HETATM    1  C5  UNL     1     -35.574  21.164  -5.585  1.00  0.00     0.109 C
HETATM    2  N3  UNL     1     -36.860  21.002  -5.748  1.00  0.00    -0.292 N
ATOM      3  H3  UNL     1     -37.148  20.359  -6.485  1.00  0.00     0.188 HD
HETATM    4  N4  UNL     1     -37.865  21.607  -5.033  1.00  0.00    -0.324 N
ATOM      5  H4  UNL     1     -38.787  21.185  -5.134  1.00  0.00     0.180 HD
HETATM    6  C6  UNL     1     -37.801  22.766  -4.151  1.00  0.00     0.172 C
HETATM    7  C8  UNL     1     -36.603  23.576  -4.634  1.00  0.00     0.239 C
HETATM    8  N6  UNL     1     -35.454  23.019  -3.969  1.00  0.00    -0.388 N
ATOM      9  H6  UNL     1     -35.143  23.352  -3.056  1.00  0.00     0.156 HD
HETATM   10  C9  UNL     1     -34.779  21.975  -4.662  1.00  0.00     0.194 C
ENDROOT
BRANCH   1  11
HETATM   11  N2  UNL     1     -34.794  20.386  -6.497  1.00  0.00    -0.373 N
ATOM     12  H2  UNL     1     -34.215  20.841  -7.203  1.00  0.00     0.161 HD
BRANCH  11  13
HETATM   13  C4  UNL     1     -34.839  18.965  -6.405  1.00  0.00     0.165 C
BRANCH  13  14
HETATM   14  C3  UNL     1     -34.087  18.331  -5.288  1.00  0.00     0.075 C
BRANCH  14  15
HETATM   15  N1  UNL     1     -32.841  18.909  -4.998  1.00  0.00    -0.401 N
ATOM     16  H1  UNL     1     -32.170  19.122  -5.737  1.00  0.00     0.158 HD
BRANCH  15  17
HETATM   17  C2  UNL     1     -32.555  19.180  -3.652  1.00  0.00     0.114 C
HETATM   18  C1  UNL     1     -31.711  17.994  -3.103  1.00  0.00     0.026 C
ENDBRANCH  15  17
ENDBRANCH  14  15
ENDBRANCH  13  14
ENDBRANCH  11  13
ENDBRANCH   1  11
BRANCH   6  19
HETATM   19  C7  UNL     1     -39.049  23.613  -4.235  1.00  0.00     0.260 C
BRANCH  19  20
HETATM   20  N5  UNL     1     -39.155  24.415  -3.009  1.00  0.00    -0.077 N
ATOM     21  H53 UNL     1     -40.017  24.231  -2.495  1.00  0.00     0.274 HD
ATOM     22  H52 UNL     1     -38.496  24.116  -2.289  1.00  0.00     0.274 HD
ATOM     23  H51 UNL     1     -39.047  25.399  -3.253  1.00  0.00     0.274 HD
ENDBRANCH  19  20
ENDBRANCH   6  19
BRANCH   7  24
HETATM   24  O1  UNL     1     -36.790  24.937  -4.415  1.00  0.00    -0.375 OA
ATOM     25  H1  UNL     1     -36.462  25.199  -3.563  1.00  0.00     0.212 HD
ENDBRANCH   7  24
TORSDOF 8
ENDMDL