MODEL 2
REMARK VINA RESULT: -6.867592273      1.120      2.676
REMARK  8 active torsions:
REMARK  status: ('A' for Active; 'I' for Inactive)
REMARK    1  A    between atoms: N1_1  and  C1_4
REMARK    2  A    between atoms: C2_7  and  N3_8
REMARK    3  A    between atoms: N6_16  and  C4_17
REMARK    4  A    between atoms: C4_17  and  C5_18
REMARK    5  A    between atoms: C5_18  and  O1_19
REMARK    6  A    between atoms: O1_19  and  N7_20
REMARK    7  A    between atoms: N7_20  and  C6_21
REMARK    8  A    between atoms: C6_21  and  N8_22
ROOT
HETATM    1  C1  UNL     1     -35.110  19.200  -6.062  1.00  0.00     0.679 A
HETATM    2  N2  UNL     1     -33.966  19.492  -5.425  1.00  0.00    -0.175 N
ATOM      3  H2  UNL     1     -33.195  18.826  -5.476  1.00  0.00     0.186 HD
HETATM    4  C2  UNL     1     -33.793  20.626  -4.722  1.00  0.00     0.147 A
HETATM    5  C3  UNL     1     -34.866  21.488  -4.687  1.00  0.00     0.140 A
HETATM    6  N4  UNL     1     -35.045  22.699  -4.087  1.00  0.00    -0.279 N
ATOM      7  H4  UNL     1     -34.366  23.210  -3.523  1.00  0.00     0.189 HD
HETATM    8  N5  UNL     1     -36.275  23.077  -4.385  1.00  0.00    -0.238 N
ATOM      9  H5  UNL     1     -36.694  23.952  -4.071  1.00  0.00     0.208 HD
HETATM   10  N6  UNL     1     -36.891  22.199  -5.130  1.00  0.00    -0.258 N
HETATM   11  C7  UNL     1     -36.045  21.176  -5.349  1.00  0.00     0.171 A
HETATM   12  N9  UNL     1     -36.166  20.031  -6.036  1.00  0.00    -0.173 N
ATOM     13  H9  UNL     1     -37.031  19.798  -6.524  1.00  0.00     0.186 HD
ENDROOT
BRANCH  10  14
HETATM   14  C4  UNL     1     -38.245  22.229  -5.675  1.00  0.00     0.180 C
BRANCH  14  15
HETATM   15  C5  UNL     1     -39.144  22.699  -4.541  1.00  0.00     0.217 C
BRANCH  15  16
HETATM   16  O1  UNL     1     -38.974  24.075  -4.407  1.00  0.00    -0.283 OA
BRANCH  16  17
HETATM   17  N7  UNL     1     -38.817  24.445  -3.126  1.00  0.00    -0.074 NA
BRANCH  17  18
HETATM   18  C6  UNL     1     -38.676  25.888  -3.012  1.00  0.00     0.371 C
BRANCH  18  19
HETATM   19  N8  UNL     1     -37.715  26.219  -1.978  1.00  0.00    -0.064 N
ATOM     20  H83 UNL     1     -37.693  27.221  -1.786  1.00  0.00     0.275 HD
ATOM     21  H82 UNL     1     -38.017  25.895  -1.059  1.00  0.00     0.275 HD
ATOM     22  H81 UNL     1     -36.793  25.859  -2.224  1.00  0.00     0.275 HD
ENDBRANCH  18  19
ENDBRANCH  17  18
ENDBRANCH  16  17
ENDBRANCH  15  16
ENDBRANCH  14  15
ENDBRANCH  10  14
BRANCH   4  23
HETATM   23  N3  UNL     1     -32.691  20.894  -4.117  1.00  0.00    -0.383 N
ATOM     24  H32 UNL     1     -32.169  20.178  -3.612  1.00  0.00     0.157 HD
ATOM     25  H31 UNL     1     -32.288  21.831  -4.112  1.00  0.00     0.157 HD
ENDBRANCH   4  23
BRANCH   1  26
HETATM   26  N1  UNL     1     -35.238  18.107  -6.723  1.00  0.00    -0.234 N
ATOM     27  H12 UNL     1     -34.541  17.912  -7.441  1.00  0.00     0.174 HD
ATOM     28  H11 UNL     1     -36.008  17.466  -6.533  1.00  0.00     0.174 HD
ENDBRANCH   1  26
TORSDOF 8
ENDMDL