MODEL 2
REMARK VINA RESULT: -6.747210548      1.245      1.279
REMARK  7 active torsions:
REMARK  status: ('A' for Active; 'I' for Inactive)
REMARK    1  A    between atoms: N1_1  and  C1_4
REMARK    2  A    between atoms: N5_15  and  C5_16
REMARK    3  A    between atoms: C5_16  and  C6_17
REMARK    4  A    between atoms: C6_17  and  N6_18
REMARK    5  A    between atoms: N6_18  and  C7_20
REMARK    6  A    between atoms: C7_20  and  O1_21
REMARK    7  A    between atoms: O1_21  and  N7_22
ROOT
HETATM    1  C1  UNL     1     -34.877  18.478  -5.924  1.00  0.00     0.679 A
HETATM    2  N2  UNL     1     -33.715  18.215  -5.278  1.00  0.00    -0.175 N
ATOM      3  H2  UNL     1     -33.264  17.306  -5.380  1.00  0.00     0.186 HD
HETATM    4  C2  UNL     1     -33.161  19.164  -4.502  1.00  0.00     0.145 A
HETATM    5  N3  UNL     1     -32.063  19.000  -3.857  1.00  0.00    -0.383 N
ATOM      6  H31 UNL     1     -31.643  19.720  -3.269  1.00  0.00     0.157 HD
ATOM      7  H32 UNL     1     -31.611  18.091  -3.955  1.00  0.00     0.157 HD
HETATM    8  C3  UNL     1     -33.773  20.393  -4.370  1.00  0.00     0.123 A
HETATM    9  N4  UNL     1     -33.487  21.520  -3.693  1.00  0.00    -0.346 N
ATOM     10  H4  UNL     1     -32.669  21.654  -3.099  1.00  0.00     0.167 HD
HETATM   11  C4  UNL     1     -34.441  22.445  -3.916  1.00  0.00     0.185 A
HETATM   12  N5  UNL     1     -35.336  21.871  -4.751  1.00  0.00    -0.325 N
HETATM   13  C8  UNL     1     -34.970  20.615  -5.057  1.00  0.00     0.155 A
HETATM   14  N8  UNL     1     -35.512  19.655  -5.827  1.00  0.00    -0.174 N
ATOM     15  H8  UNL     1     -36.386  19.819  -6.327  1.00  0.00     0.186 HD
ENDROOT
BRANCH  12  16
HETATM   16  C5  UNL     1     -36.545  22.551  -5.244  1.00  0.00     0.150 C
BRANCH  16  17
HETATM   17  C6  UNL     1     -37.635  22.477  -4.202  1.00  0.00     0.136 C
BRANCH  17  18
HETATM   18  N6  UNL     1     -38.026  23.757  -3.730  1.00  0.00    -0.398 N
ATOM     19  H6  UNL     1     -38.854  23.900  -3.152  1.00  0.00     0.155 HD
BRANCH  18  20
HETATM   20  C7  UNL     1     -37.164  24.842  -4.131  1.00  0.00     0.318 C
BRANCH  20  21
HETATM   21  O1  UNL     1     -36.491  25.264  -2.959  1.00  0.00    -0.268 OA
BRANCH  21  22
HETATM   22  N7  UNL     1     -37.327  26.033  -2.231  1.00  0.00    -0.309 N
ATOM     23  H72 UNL     1     -38.112  26.561  -2.611  1.00  0.00     0.184 HD
ATOM     24  H71 UNL     1     -37.041  25.994  -1.253  1.00  0.00     0.184 HD
ENDBRANCH  21  22
ENDBRANCH  20  21
ENDBRANCH  18  20
ENDBRANCH  17  18
ENDBRANCH  16  17
ENDBRANCH  12  16
BRANCH   1  25
HETATM   25  N1  UNL     1     -35.412  17.547  -6.676  1.00  0.00    -0.234 N
ATOM     26  H12 UNL     1     -36.246  17.071  -6.333  1.00  0.00     0.174 HD
ATOM     27  H11 UNL     1     -34.980  17.329  -7.575  1.00  0.00     0.174 HD
ENDBRANCH   1  25
TORSDOF 7
ENDMDL