MODEL 2
REMARK VINA RESULT: -6.262381209      1.313      1.576
REMARK  7 active torsions:
REMARK  status: ('A' for Active; 'I' for Inactive)
REMARK    1  A    between atoms: O1_1  and  C1_3
REMARK    2  A    between atoms: C1_3  and  C2_4
REMARK    3  A    between atoms: C2_4  and  S1_5
REMARK    4  A    between atoms: S1_5  and  C3_6
REMARK    5  A    between atoms: C3_6  and  C4_7
REMARK    6  A    between atoms: C4_7  and  N1_8
REMARK    7  A    between atoms: N1_8  and  C5_10
ROOT
HETATM    1  C5  UNL     1     -35.018  22.516  -4.198  1.00  0.00     0.090 C
HETATM    2  N2  UNL     1     -35.988  22.068  -4.911  1.00  0.00    -0.347 N
ATOM      3  H2  UNL     1     -36.018  21.141  -5.336  1.00  0.00     0.163 HD
HETATM    4  C6  UNL     1     -37.041  23.069  -5.028  1.00  0.00     0.290 C
HETATM    5  N3  UNL     1     -37.972  23.061  -3.946  1.00  0.00    -0.086 NA
HETATM    6  N4  UNL     1     -38.234  24.397  -3.617  1.00  0.00    -0.019 NA
HETATM    7  N5  UNL     1     -37.257  25.183  -4.213  1.00  0.00    -0.035 NA
HETATM    8  N6  UNL     1     -36.316  24.319  -4.784  1.00  0.00    -0.171 NA
HETATM    9  C7  UNL     1     -35.378  23.883  -3.776  1.00  0.00     0.190 C
ENDROOT
BRANCH   1  10
HETATM   10  N1  UNL     1     -33.800  21.865  -3.839  1.00  0.00    -0.378 N
ATOM     11  H1  UNL     1     -32.920  22.355  -4.003  1.00  0.00     0.160 HD
BRANCH  10  12
HETATM   12  C4  UNL     1     -33.755  20.552  -3.257  1.00  0.00     0.131 C
BRANCH  12  13
HETATM   13  C3  UNL     1     -32.595  19.734  -3.761  1.00  0.00     0.093 C
BRANCH  13  14
HETATM   14  S1  UNL     1     -33.318  18.352  -4.719  1.00  0.00    -0.165 SA
BRANCH  14  15
HETATM   15  C2  UNL     1     -34.837  18.926  -5.572  1.00  0.00     0.100 C
BRANCH  15  16
HETATM   16  C1  UNL     1     -34.379  19.452  -6.937  1.00  0.00     0.174 C
BRANCH  16  17
HETATM   17  O1  UNL     1     -33.986  20.770  -6.834  1.00  0.00    -0.400 OA
ATOM     18  H1  UNL     1     -33.040  20.826  -6.773  1.00  0.00     0.209 HD
ENDBRANCH  16  17
ENDBRANCH  15  16
ENDBRANCH  14  15
ENDBRANCH  13  14
ENDBRANCH  12  13
ENDBRANCH  10  12
ENDBRANCH   1  10
TORSDOF 7
ENDMDL