MODEL 2
REMARK VINA RESULT: -6.492535919      2.510      3.846
REMARK  10 active torsions:
REMARK  status: ('A' for Active; 'I' for Inactive)
REMARK    1  A    between atoms: N1_1  and  C1_4
REMARK    2  A    between atoms: C2_7  and  N3_8
REMARK    3  A    between atoms: N3_8  and  C3_10
REMARK    4  A    between atoms: C3_10  and  N4_11
REMARK    5  A    between atoms: N4_11  and  N5_12
REMARK    6  A    between atoms: N4_11  and  O1_15
REMARK    7  A    between atoms: C4_19  and  N7_20
REMARK    8  A    between atoms: N7_20  and  C5_22
REMARK    9  A    between atoms: C5_22  and  C6_23
REMARK   10  A    between atoms: C6_23  and  O2_24
ROOT
HETATM    1  C1  UNL     1     -34.078  21.887  -4.587  1.00  0.00     0.705 A
HETATM    2  N2  UNL     1     -35.283  22.473  -4.491  1.00  0.00    -0.022 N
ATOM      3  H2  UNL     1     -35.414  23.259  -3.854  1.00  0.00     0.203 HD
HETATM    4  C2  UNL     1     -36.330  22.027  -5.236  1.00  0.00     0.708 A
HETATM    5  N6  UNL     1     -36.112  20.984  -6.067  1.00  0.00    -0.021 N
ATOM      6  H6  UNL     1     -36.888  20.639  -6.632  1.00  0.00     0.203 HD
HETATM    7  C4  UNL     1     -34.915  20.379  -6.181  1.00  0.00     0.707 A
HETATM    8  N8  UNL     1     -33.904  20.849  -5.427  1.00  0.00    -0.022 N
ATOM      9  H8  UNL     1     -32.986  20.409  -5.493  1.00  0.00     0.203 HD
ENDROOT
BRANCH   4  10
HETATM   10  N3  UNL     1     -37.590  22.657  -5.121  1.00  0.00    -0.209 N
ATOM     11  H3  UNL     1     -38.281  22.551  -5.864  1.00  0.00     0.179 HD
BRANCH  10  12
HETATM   12  C3  UNL     1     -37.904  23.445  -3.962  1.00  0.00     0.284 C
BRANCH  12  13
HETATM   13  N4  UNL     1     -37.376  24.777  -4.047  1.00  0.00    -0.095 NA
BRANCH  13  14
HETATM   14  N5  UNL     1     -38.296  25.751  -3.688  1.00  0.00    -0.339 NA
ATOM     15  H52 UNL     1     -38.085  26.612  -4.192  1.00  0.00     0.173 HD
ATOM     16  H51 UNL     1     -38.354  25.895  -2.680  1.00  0.00     0.173 HD
ENDBRANCH  13  14
BRANCH  13  17
HETATM   17  O1  UNL     1     -36.262  24.934  -3.314  1.00  0.00    -0.293 OA
ATOM     18  H1  UNL     1     -35.643  24.226  -3.441  1.00  0.00     0.239 HD
ENDBRANCH  13  17
ENDBRANCH  12  13
ENDBRANCH  10  12
ENDBRANCH   4  10
BRANCH   1  19
HETATM   19  N1  UNL     1     -33.073  22.299  -3.886  1.00  0.00    -0.234 N
ATOM     20  H12 UNL     1     -33.197  22.446  -2.884  1.00  0.00     0.174 HD
ATOM     21  H11 UNL     1     -32.166  22.479  -4.315  1.00  0.00     0.174 HD
ENDBRANCH   1  19
BRANCH   7  22
HETATM   22  N7  UNL     1     -34.782  19.381  -7.001  1.00  0.00    -0.223 N
ATOM     23  H7  UNL     1     -34.494  19.571  -7.962  1.00  0.00     0.177 HD
BRANCH  22  24
HETATM   24  C5  UNL     1     -35.021  18.028  -6.614  1.00  0.00     0.164 C
BRANCH  24  25
HETATM   25  C6  UNL     1     -35.649  17.203  -7.716  1.00  0.00     0.184 C
BRANCH  25  26
HETATM   26  O2  UNL     1     -36.921  16.785  -7.342  1.00  0.00    -0.399 OA
ATOM     27  H2  UNL     1     -37.514  16.829  -8.082  1.00  0.00     0.209 HD
ENDBRANCH  25  26
ENDBRANCH  24  25
ENDBRANCH  22  24
ENDBRANCH   7  22
TORSDOF 10
ENDMDL