MODEL 1
REMARK VINA RESULT: -6.754324504      0.000      0.000
REMARK  8 active torsions:
REMARK  status: ('A' for Active; 'I' for Inactive)
REMARK    1  A    between atoms: C4_7  and  N3_8
REMARK    2  A    between atoms: C5_13  and  S1_14
REMARK    3  A    between atoms: S1_14  and  C6_15
REMARK    4  A    between atoms: C6_15  and  O1_16
REMARK    5  A    between atoms: C6_15  and  C7_20
REMARK    6  A    between atoms: O1_16  and  N5_17
REMARK    7  A    between atoms: C7_20  and  N6_21
REMARK    8  A    between atoms: C7_20  and  N7_25
ROOT
HETATM    1  N1  UNL     1     -35.152  24.485  -3.850  1.00  0.00    -0.191 NA
HETATM    2  C1  UNL     1     -35.916  23.663  -4.180  1.00  0.00     0.103 C
HETATM    3  C2  UNL     1     -36.849  22.657  -4.565  1.00  0.00     0.094 A
HETATM    4  C3  UNL     1     -38.222  22.925  -4.510  1.00  0.00     0.131 A
HETATM    5  N2  UNL     1     -39.063  21.945  -4.883  1.00  0.00    -0.201 N
ATOM      6  H2  UNL     1     -40.067  22.120  -4.850  1.00  0.00     0.183 HD
HETATM    7  C4  UNL     1     -38.625  20.743  -5.297  1.00  0.00     0.676 A
HETATM    8  N4  UNL     1     -37.283  20.508  -5.340  1.00  0.00    -0.184 N
ATOM      9  H4  UNL     1     -36.956  19.594  -5.654  1.00  0.00     0.185 HD
HETATM   10  C5  UNL     1     -36.372  21.433  -4.985  1.00  0.00     0.111 A
ENDROOT
BRANCH  10  11
HETATM   11  S1  UNL     1     -34.616  21.139  -5.037  1.00  0.00    -0.071 SA
BRANCH  11  12
HETATM   12  C6  UNL     1     -34.207  19.388  -4.901  1.00  0.00     0.276 C
BRANCH  12  13
HETATM   13  O1  UNL     1     -33.737  18.970  -6.144  1.00  0.00    -0.267 OA
BRANCH  13  14
HETATM   14  N5  UNL     1     -34.015  19.888  -7.119  1.00  0.00    -0.310 N
ATOM     15  H52 UNL     1     -34.412  19.642  -8.025  1.00  0.00     0.184 HD
ATOM     16  H51 UNL     1     -33.775  20.834  -6.820  1.00  0.00     0.184 HD
ENDBRANCH  13  14
ENDBRANCH  12  13
BRANCH  12  17
HETATM   17  C7  UNL     1     -33.095  19.207  -3.906  1.00  0.00     0.419 C
BRANCH  17  18
HETATM   18  N6  UNL     1     -32.132  20.258  -4.110  1.00  0.00    -0.047 N
ATOM     19  H63 UNL     1     -32.441  20.948  -4.794  1.00  0.00     0.276 HD
ATOM     20  H62 UNL     1     -32.057  20.883  -3.308  1.00  0.00     0.276 HD
ATOM     21  H61 UNL     1     -31.240  19.830  -4.359  1.00  0.00     0.276 HD
ENDBRANCH  17  18
BRANCH  17  22
HETATM   22  N7  UNL     1     -32.433  17.937  -4.029  1.00  0.00    -0.047 N
ATOM     23  H73 UNL     1     -32.900  17.347  -4.718  1.00  0.00     0.276 HD
ATOM     24  H72 UNL     1     -31.527  18.041  -4.486  1.00  0.00     0.276 HD
ATOM     25  H71 UNL     1     -32.338  17.449  -3.139  1.00  0.00     0.276 HD
ENDBRANCH  17  22
ENDBRANCH  12  17
ENDBRANCH  11  12
ENDBRANCH  10  11
BRANCH   7  26
HETATM   26  N3  UNL     1     -39.471  19.834  -5.644  1.00  0.00    -0.234 N
ATOM     27  H32 UNL     1     -40.475  19.988  -5.553  1.00  0.00     0.174 HD
ATOM     28  H31 UNL     1     -39.139  18.945  -6.017  1.00  0.00     0.174 HD
ENDBRANCH   7  26
TORSDOF 8
ENDMDL