MODEL 2
REMARK VINA RESULT: -7.828425549      1.539      3.245
REMARK  8 active torsions:
REMARK  status: ('A' for Active; 'I' for Inactive)
REMARK    1  A    between atoms: N1_1  and  C1_5
REMARK    2  A    between atoms: C1_5  and  C2_6
REMARK    3  A    between atoms: C2_6  and  C3_7
REMARK    4  A    between atoms: C3_7  and  C4_8
REMARK    5  A    between atoms: C4_8  and  C5_9
REMARK    6  A    between atoms: N2_11  and  C7_12
REMARK    7  A    between atoms: C7_12  and  C8_13
REMARK    8  A    between atoms: C10_20  and  N6_21
REMARK       I    between atoms: N6_21  and  C11_23
REMARK       I    between atoms: C11_23  and  N7_24
REMARK       I    between atoms: C11_23  and  N8_28
ROOT
HETATM    1  C8  UNL     1     -41.972 -11.048  14.131  1.00  0.00     0.049 A
HETATM    2  C9  UNL     1     -43.254 -10.534  14.100  1.00  0.00     0.142 A
HETATM    3  N3  UNL     1     -43.700  -9.314  14.660  1.00  0.00    -0.081 NA
HETATM    4  N4  UNL     1     -44.034 -11.427  13.418  1.00  0.00    -0.286 N
ATOM      5  H4  UNL     1     -45.032 -11.313  13.237  1.00  0.00     0.188 HD
HETATM    6  N5  UNL     1     -43.308 -12.457  13.029  1.00  0.00    -0.284 N
ATOM      7  H5  UNL     1     -43.644 -13.265  12.504  1.00  0.00     0.188 HD
HETATM    8  C10 UNL     1     -42.050 -12.256  13.447  1.00  0.00     0.130 A
ENDROOT
BRANCH   1   9
HETATM    9  C7  UNL     1     -40.791 -10.432  14.760  1.00  0.00     0.192 C
BRANCH   9  10
HETATM   10  N2  UNL     1     -39.546 -10.719  14.071  1.00  0.00    -0.281 N
HETATM   11  C6  UNL     1     -39.014 -10.112  12.996  1.00  0.00     0.134 A
HETATM   12  C5  UNL     1     -37.810 -10.701  12.670  1.00  0.00     0.040 A
HETATM   13  N10 UNL     1     -37.654 -11.670  13.586  1.00  0.00    -0.287 N
HETATM   14  N9  UNL     1     -38.689 -11.669  14.410  1.00  0.00    -0.020 NA
ATOM     15  H10 UNL     1     -36.860 -12.308  13.638  1.00  0.00     0.184 HD
BRANCH  12  16
HETATM   16  C4  UNL     1     -36.862 -10.392  11.587  1.00  0.00     0.059 C
BRANCH  16  17
HETATM   17  C3  UNL     1     -35.583  -9.839  12.158  1.00  0.00     0.008 C
BRANCH  17  18
HETATM   18  C2  UNL     1     -35.254  -8.459  11.666  1.00  0.00     0.027 C
BRANCH  18  19
HETATM   19  C1  UNL     1     -35.736  -7.372  12.597  1.00  0.00     0.229 C
BRANCH  19  20
HETATM   20  N1  UNL     1     -34.692  -6.338  12.611  1.00  0.00    -0.079 N
ATOM     21  H13 UNL     1     -34.417  -6.055  13.552  1.00  0.00     0.274 HD
ATOM     22  H12 UNL     1     -33.780  -6.681  12.310  1.00  0.00     0.274 HD
ATOM     23  H11 UNL     1     -35.040  -5.565  12.044  1.00  0.00     0.274 HD
ENDBRANCH  19  20
ENDBRANCH  18  19
ENDBRANCH  17  18
ENDBRANCH  16  17
ENDBRANCH  12  16
ENDBRANCH   9  10
ENDBRANCH   1   9
BRANCH   8  24
HETATM   24  N6  UNL     1     -41.052 -13.021  13.269  1.00  0.00    -0.326 N
HETATM   25  C11 UNL     1     -41.086 -14.451  13.268  1.00  0.00     0.481 C
HETATM   26  N7  UNL     1     -41.947 -15.039  12.323  1.00  0.00    -0.033 N
HETATM   27  N8  UNL     1     -39.721 -14.925  13.008  1.00  0.00    -0.033 N
ATOM     28  H73 UNL     1     -42.890 -14.669  12.433  1.00  0.00     0.278 HD
ATOM     29  H72 UNL     1     -41.725 -14.695  11.388  1.00  0.00     0.278 HD
ATOM     30  H71 UNL     1     -41.971 -16.059  12.321  1.00  0.00     0.278 HD
ATOM     31  H83 UNL     1     -39.321 -14.536  12.153  1.00  0.00     0.278 HD
ATOM     32  H82 UNL     1     -39.037 -14.544  13.660  1.00  0.00     0.278 HD
ATOM     33  H81 UNL     1     -39.746 -15.945  13.006  1.00  0.00     0.278 HD
ATOM     34  H6  UNL     1     -40.146 -12.577  13.114  1.00  0.00     0.165 HD
ENDBRANCH   8  24
TORSDOF 8
ENDMDL