MODEL 1
REMARK VINA RESULT: -7.262451732      0.000      0.000
REMARK  10 active torsions:
REMARK  status: ('A' for Active; 'I' for Inactive)
REMARK    1  A    between atoms: N1_1  and  C1_4
REMARK    2  A    between atoms: C4_11  and  N4_12
REMARK    3  A    between atoms: N4_12  and  C5_14
REMARK    4  A    between atoms: C5_14  and  C6_15
REMARK    5  A    between atoms: C6_15  and  N5_16
REMARK    6  A    between atoms: N5_16  and  C7_19
REMARK    7  A    between atoms: C7_19  and  C8_20
REMARK    8  A    between atoms: C8_20  and  C9_21
REMARK    9  A    between atoms: C9_21  and  C10_22
REMARK   10  A    between atoms: C10_22  and  O1_23
ROOT
HETATM    1  C1  UNL     1     -40.665 -14.033  13.058  1.00  0.00     0.131 A
HETATM    2  N2  UNL     1     -39.512 -14.610  12.682  1.00  0.00    -0.337 N
ATOM      3  H2  UNL     1     -39.540 -15.535  12.253  1.00  0.00     0.168 HD
HETATM    4  C2  UNL     1     -38.322 -14.009  12.852  1.00  0.00     0.182 A
HETATM    5  N3  UNL     1     -38.264 -12.791  13.415  1.00  0.00    -0.347 N
ATOM      6  H3  UNL     1     -37.360 -12.338  13.543  1.00  0.00     0.167 HD
HETATM    7  C3  UNL     1     -39.385 -12.160  13.813  1.00  0.00     0.111 A
HETATM    8  C4  UNL     1     -39.362 -10.913  14.393  1.00  0.00     0.146 A
HETATM    9  N6  UNL     1     -40.522 -10.363  14.758  1.00  0.00    -0.269 N
ATOM     10  H6  UNL     1     -40.522  -9.439  15.189  1.00  0.00     0.190 HD
HETATM   11  N7  UNL     1     -41.665 -10.987  14.572  1.00  0.00    -0.240 N
ATOM     12  H7  UNL     1     -42.527 -10.528  14.867  1.00  0.00     0.208 HD
HETATM   13  N8  UNL     1     -41.740 -12.174  14.025  1.00  0.00    -0.280 N
ATOM     14  H8  UNL     1     -42.645 -12.627  13.898  1.00  0.00     0.188 HD
HETATM   15  C11 UNL     1     -40.614 -12.787  13.634  1.00  0.00     0.123 A
ENDROOT
BRANCH   8  16
HETATM   16  N4  UNL     1     -38.234 -10.331  14.560  1.00  0.00    -0.372 N
ATOM     17  H4  UNL     1     -37.427 -10.915  14.775  1.00  0.00     0.161 HD
BRANCH  16  18
HETATM   18  C5  UNL     1     -38.026  -8.910  14.465  1.00  0.00     0.149 C
BRANCH  18  19
HETATM   19  C6  UNL     1     -36.900  -8.676  13.483  1.00  0.00     0.251 C
BRANCH  19  20
HETATM   20  N5  UNL     1     -36.204  -9.891  13.167  1.00  0.00    -0.074 N
ATOM     21  H52 UNL     1     -35.246  -9.875  13.518  1.00  0.00     0.277 HD
ATOM     22  H51 UNL     1     -36.558 -10.678  13.711  1.00  0.00     0.277 HD
BRANCH  20  23
HETATM   23  C7  UNL     1     -36.244 -10.164  11.759  1.00  0.00     0.232 C
BRANCH  23  24
HETATM   24  C8  UNL     1     -35.859  -8.969  10.910  1.00  0.00     0.029 C
BRANCH  24  25
HETATM   25  C9  UNL     1     -34.455  -9.149  10.396  1.00  0.00     0.028 C
BRANCH  25  26
HETATM   26  C10 UNL     1     -33.400  -8.942  11.430  1.00  0.00     0.164 C
BRANCH  26  27
HETATM   27  O1  UNL     1     -33.759  -7.855  12.226  1.00  0.00    -0.401 OA
ATOM     28  H1  UNL     1     -33.239  -7.873  13.021  1.00  0.00     0.209 HD
ENDBRANCH  26  27
ENDBRANCH  25  26
ENDBRANCH  24  25
ENDBRANCH  23  24
ENDBRANCH  20  23
ENDBRANCH  19  20
ENDBRANCH  18  19
ENDBRANCH  16  18
ENDBRANCH   8  16
BRANCH   1  29
HETATM   29  N1  UNL     1     -41.775 -14.641  12.878  1.00  0.00    -0.383 N
ATOM     30  H12 UNL     1     -42.565 -14.184  12.422  1.00  0.00     0.157 HD
ATOM     31  H11 UNL     1     -41.887 -15.605  13.191  1.00  0.00     0.157 HD
ENDBRANCH   1  29
TORSDOF 10
ENDMDL