MODEL 5
REMARK VINA RESULT: -6.356427826      3.985      8.202
REMARK  10 active torsions:
REMARK  status: ('A' for Active; 'I' for Inactive)
REMARK    1  A    between atoms: N1_1  and  C1_4
REMARK    2  A    between atoms: C4_11  and  N5_12
REMARK    3  A    between atoms: N5_12  and  C5_13
REMARK    4  A    between atoms: N5_12  and  C7_19
REMARK    5  A    between atoms: C5_13  and  C6_14
REMARK    6  A    between atoms: C6_14  and  N6_15
REMARK    7  A    between atoms: C7_19  and  C8_20
REMARK    8  A    between atoms: C8_20  and  C9_21
REMARK    9  A    between atoms: C9_21  and  C10_22
REMARK   10  A    between atoms: C10_22  and  N7_23
ROOT
HETATM    1  C1  UNL     1     -40.798 -12.870  13.428  1.00  0.00     0.123 C
HETATM    2  C2  UNL     1     -41.682 -11.932  13.935  1.00  0.00     0.119 C
HETATM    3  N2  UNL     1     -41.174 -10.963  14.828  1.00  0.00    -0.096 NA
HETATM    4  C3  UNL     1     -43.034 -11.887  13.623  1.00  0.00     0.158 C
HETATM    5  N3  UNL     1     -43.639 -10.619  13.837  1.00  0.00    -0.080 NA
HETATM    6  N4  UNL     1     -43.818 -12.881  13.154  1.00  0.00    -0.177 N
ATOM      7  H4  UNL     1     -44.816 -12.676  13.203  1.00  0.00     0.185 HD
HETATM    8  C4  UNL     1     -43.540 -14.071  12.643  1.00  0.00     0.684 C
HETATM    9  N8  UNL     1     -42.320 -14.666  12.771  1.00  0.00    -0.154 N
ATOM     10  H8  UNL     1     -42.336 -15.683  12.693  1.00  0.00     0.187 HD
HETATM   11  C11 UNL     1     -41.098 -14.143  12.982  1.00  0.00     0.287 C
HETATM   12  O1  UNL     1     -40.079 -14.856  12.762  1.00  0.00    -0.265 OA
ENDROOT
BRANCH   8  13
HETATM   13  N5  UNL     1     -44.514 -14.806  11.918  1.00  0.00    -0.216 N
BRANCH  13  14
HETATM   14  C5  UNL     1     -44.062 -15.695  10.865  1.00  0.00     0.168 C
BRANCH  14  15
HETATM   15  C6  UNL     1     -44.744 -15.465   9.542  1.00  0.00     0.250 C
BRANCH  15  16
HETATM   16  N6  UNL     1     -43.689 -15.092   8.589  1.00  0.00    -0.078 N
ATOM     17  H63 UNL     1     -42.750 -15.331   8.911  1.00  0.00     0.274 HD
ATOM     18  H62 UNL     1     -43.684 -15.666   7.745  1.00  0.00     0.274 HD
ATOM     19  H61 UNL     1     -43.809 -14.097   8.400  1.00  0.00     0.274 HD
ENDBRANCH  15  16
ENDBRANCH  14  15
ENDBRANCH  13  14
BRANCH  13  20
HETATM   20  C7  UNL     1     -45.934 -14.753  12.126  1.00  0.00     0.141 C
BRANCH  20  21
HETATM   21  C8  UNL     1     -46.370 -15.458  13.381  1.00  0.00     0.022 C
BRANCH  21  22
HETATM   22  C9  UNL     1     -47.047 -14.609  14.385  1.00  0.00     0.029 C
BRANCH  22  23
HETATM   23  C10 UNL     1     -47.363 -13.208  14.042  1.00  0.00     0.229 C
BRANCH  23  24
HETATM   24  N7  UNL     1     -48.727 -12.808  14.110  1.00  0.00    -0.079 N
ATOM     25  H73 UNL     1     -49.312 -13.628  14.272  1.00  0.00     0.274 HD
ATOM     26  H72 UNL     1     -48.884 -12.287  14.973  1.00  0.00     0.274 HD
ATOM     27  H71 UNL     1     -49.101 -12.278  13.323  1.00  0.00     0.274 HD
ENDBRANCH  23  24
ENDBRANCH  22  23
ENDBRANCH  21  22
ENDBRANCH  20  21
ENDBRANCH  13  20
ENDBRANCH   8  13
BRANCH   1  28
HETATM   28  N1  UNL     1     -39.570 -12.497  13.377  1.00  0.00    -0.393 N
ATOM     29  H12 UNL     1     -38.854 -13.218  13.464  1.00  0.00     0.156 HD
ATOM     30  H11 UNL     1     -39.423 -11.495  13.253  1.00  0.00     0.156 HD
ENDBRANCH   1  28
TORSDOF 10
ENDMDL