MODEL 4
REMARK VINA RESULT: -6.900426694      1.202      2.408
REMARK  9 active torsions:
REMARK  status: ('A' for Active; 'I' for Inactive)
REMARK    1  A    between atoms: C2_2  and  N1_3
REMARK    2  A    between atoms: N1_3  and  C3_4
REMARK    3  A    between atoms: N1_3  and  N9_26
REMARK    4  A    between atoms: C3_4  and  C4_5
REMARK    5  A    between atoms: C4_5  and  C5_6
REMARK    6  A    between atoms: C5_6  and  N2_7
REMARK    7  A    between atoms: C7_11  and  N4_12
REMARK    8  A    between atoms: C8_17  and  N6_18
REMARK    9  A    between atoms: N9_26  and  N10_27
ROOT
HETATM    1  N2  UNL     1     -39.292 -10.161  14.782  1.00  0.00    -0.232 N
HETATM    2  N3  UNL     1     -40.605 -10.032  14.688  1.00  0.00    -0.277 N
ATOM      3  H3  UNL     1     -41.121  -9.194  14.956  1.00  0.00     0.189 HD
HETATM    4  C6  UNL     1     -41.170 -11.142  14.196  1.00  0.00     0.140 A
HETATM    5  C7  UNL     1     -42.465 -11.524  13.906  1.00  0.00     0.147 A
HETATM    6  N5  UNL     1     -42.639 -12.763  13.404  1.00  0.00    -0.175 N
ATOM      7  H5  UNL     1     -43.582 -13.080  13.176  1.00  0.00     0.186 HD
HETATM    8  C8  UNL     1     -41.600 -13.593  13.197  1.00  0.00     0.679 A
HETATM    9  N7  UNL     1     -40.318 -13.260  13.467  1.00  0.00    -0.173 N
ATOM     10  H7  UNL     1     -39.568 -13.928  13.289  1.00  0.00     0.186 HD
HETATM   11  C9  UNL     1     -40.033 -12.057  13.967  1.00  0.00     0.169 A
HETATM   12  N8  UNL     1     -38.940 -11.380  14.348  1.00  0.00    -0.266 N
ATOM     13  H8  UNL     1     -37.986 -11.738  14.313  1.00  0.00     0.190 HD
ENDROOT
BRANCH   1  14
HETATM   14  C5  UNL     1     -38.399  -9.130  15.271  1.00  0.00     0.171 C
BRANCH  14  15
HETATM   15  C4  UNL     1     -37.765  -8.323  14.153  1.00  0.00     0.039 C
BRANCH  15  16
HETATM   16  C3  UNL     1     -36.586  -9.116  13.610  1.00  0.00     0.113 C
BRANCH  16  17
HETATM   17  N1  UNL     1     -36.220  -8.523  12.344  1.00  0.00    -0.215 NA
BRANCH  17  18
HETATM   18  C2  UNL     1     -35.979  -9.622  11.390  1.00  0.00     0.107 C
HETATM   19  C1  UNL     1     -35.385  -9.123  10.110  1.00  0.00     0.022 C
ENDBRANCH  17  18
BRANCH  17  20
HETATM   20  N9  UNL     1     -34.995  -7.845  12.421  1.00  0.00    -0.056 NA
BRANCH  20  21
HETATM   21  N10 UNL     1     -35.106  -6.488  12.636  1.00  0.00    -0.333 N
ATOM     22 2H10 UNL     1     -34.459  -5.822  12.215  1.00  0.00     0.173 HD
ATOM     23 1H10 UNL     1     -35.880  -6.219  13.243  1.00  0.00     0.173 HD
ENDBRANCH  20  21
ENDBRANCH  17  20
ENDBRANCH  16  17
ENDBRANCH  15  16
ENDBRANCH  14  15
ENDBRANCH   1  14
BRANCH   5  24
HETATM   24  N4  UNL     1     -43.470 -10.740  14.099  1.00  0.00    -0.383 N
ATOM     25  H42 UNL     1     -43.930 -10.277  13.315  1.00  0.00     0.157 HD
ATOM     26  H41 UNL     1     -43.841 -10.552  15.030  1.00  0.00     0.157 HD
ENDBRANCH   5  24
BRANCH   8  27
HETATM   27  N6  UNL     1     -41.821 -14.764  12.717  1.00  0.00    -0.234 N
ATOM     28  H62 UNL     1     -41.261 -15.536  13.079  1.00  0.00     0.174 HD
ATOM     29  H61 UNL     1     -42.537 -14.879  12.000  1.00  0.00     0.174 HD
ENDBRANCH   8  27
TORSDOF 9
ENDMDL