MODEL 2
REMARK VINA RESULT: -6.304666356      2.382      3.406
REMARK  10 active torsions:
REMARK  status: ('A' for Active; 'I' for Inactive)
REMARK    1  A    between atoms: C2_6  and  N2_7
REMARK    2  A    between atoms: N2_7  and  C3_9
REMARK    3  A    between atoms: C3_9  and  C4_10
REMARK    4  A    between atoms: C4_10  and  C5_11
REMARK    5  A    between atoms: C5_11  and  N3_12
REMARK    6  A    between atoms: C6_18  and  N5_19
REMARK    7  A    between atoms: N5_19  and  C7_21
REMARK    8  A    between atoms: C7_21  and  C8_22
REMARK    9  A    between atoms: C8_22  and  N6_23
REMARK   10  A    between atoms: C9_27  and  N7_28
ROOT
HETATM    1  N1  UNL     1     -38.110 -14.265  12.968  1.00  0.00    -0.391 N
ATOM      2  H11 UNL     1     -38.752 -15.057  13.007  1.00  0.00     0.157 HD
ATOM      3  H12 UNL     1     -37.127 -14.531  12.897  1.00  0.00     0.157 HD
HETATM    4  C1  UNL     1     -38.452 -13.000  13.003  1.00  0.00     0.108 A
HETATM    5  S1  UNL     1     -37.382 -11.684  12.938  1.00  0.00    -0.034 SA
HETATM    6  C2  UNL     1     -38.203 -10.178  13.006  1.00  0.00     0.148 A
HETATM    7  N4  UNL     1     -39.537 -10.232  13.099  1.00  0.00    -0.321 N
ATOM      8  H4  UNL     1     -40.040  -9.345  13.141  1.00  0.00     0.169 HD
HETATM    9  C6  UNL     1     -40.276 -11.368  13.143  1.00  0.00     0.139 A
HETATM   10  C9  UNL     1     -39.793 -12.638  13.100  1.00  0.00     0.179 A
ENDROOT
BRANCH   6  11
HETATM   11  N2  UNL     1     -37.578  -9.046  12.969  1.00  0.00    -0.370 N
ATOM     12  H2  UNL     1     -38.110  -8.178  12.905  1.00  0.00     0.161 HD
BRANCH  11  13
HETATM   13  C3  UNL     1     -36.152  -8.997  13.016  1.00  0.00     0.123 C
BRANCH  13  14
HETATM   14  C4  UNL     1     -35.561  -8.157  11.911  1.00  0.00     0.047 C
BRANCH  14  15
HETATM   15  C5  UNL     1     -34.878  -9.010  10.863  1.00  0.00     0.231 C
BRANCH  15  16
HETATM   16  N3  UNL     1     -35.865  -9.624   9.996  1.00  0.00    -0.079 N
ATOM     17  H33 UNL     1     -36.667  -9.973  10.519  1.00  0.00     0.274 HD
ATOM     18  H32 UNL     1     -36.349  -8.934   9.421  1.00  0.00     0.274 HD
ATOM     19  H31 UNL     1     -35.431 -10.353   9.430  1.00  0.00     0.274 HD
ENDBRANCH  15  16
ENDBRANCH  14  15
ENDBRANCH  13  14
ENDBRANCH  11  13
ENDBRANCH   6  11
BRANCH   9  20
HETATM   20  N5  UNL     1     -41.705 -11.149  13.245  1.00  0.00    -0.372 N
ATOM     21  H5  UNL     1     -42.311 -11.566  12.538  1.00  0.00     0.161 HD
BRANCH  20  22
HETATM   22  C7  UNL     1     -42.304 -10.382  14.279  1.00  0.00     0.148 C
BRANCH  22  23
HETATM   23  C8  UNL     1     -43.634 -10.995  14.652  1.00  0.00     0.249 C
BRANCH  23  24
HETATM   24  N6  UNL     1     -44.079 -11.954  13.660  1.00  0.00    -0.078 N
ATOM     25  H63 UNL     1     -44.012 -11.572  12.717  1.00  0.00     0.274 HD
ATOM     26  H62 UNL     1     -43.420 -12.726  13.567  1.00  0.00     0.274 HD
ATOM     27  H61 UNL     1     -45.022 -12.291  13.858  1.00  0.00     0.274 HD
ENDBRANCH  23  24
ENDBRANCH  22  23
ENDBRANCH  20  22
ENDBRANCH   9  20
BRANCH  10  28
HETATM   28  N7  UNL     1     -40.729 -13.705  13.154  1.00  0.00    -0.109 N
HETATM   29  O1  UNL     1     -40.760 -14.548  12.262  1.00  0.00    -0.532 OA
HETATM   30  O2  UNL     1     -41.587 -13.781  14.204  1.00  0.00    -0.532 OA
ENDBRANCH  10  28
TORSDOF 10
ENDMDL