MODEL 4
REMARK VINA RESULT: -7.186721181      3.083      7.330
REMARK  10 active torsions:
REMARK  status: ('A' for Active; 'I' for Inactive)
REMARK    1  A    between atoms: N1_1  and  C1_4
REMARK    2  A    between atoms: C3_6  and  C4_7
REMARK    3  A    between atoms: C4_7  and  O1_8
REMARK    4  A    between atoms: O1_8  and  N2_9
REMARK    5  A    between atoms: N2_9  and  N3_10
REMARK    6  A    between atoms: N2_9  and  C5_13
REMARK    7  A    between atoms: C5_13  and  C6_14
REMARK    8  A    between atoms: C6_14  and  C7_15
REMARK    9  A    between atoms: C7_15  and  C8_16
REMARK   10  A    between atoms: C9_27  and  N9_28
ROOT
HETATM    1  O1  UNL     1     -39.331 -12.130  13.700  1.00  0.00    -0.279 OA
ENDROOT
BRANCH   1   2
HETATM    2  C4  UNL     1     -40.374 -12.984  13.388  1.00  0.00     0.254 C
BRANCH   2   3
HETATM    3  C3  UNL     1     -41.697 -12.318  13.565  1.00  0.00     0.055 A
HETATM    4  C2  UNL     1     -41.788 -11.028  14.038  1.00  0.00     0.076 A
HETATM    5  C1  UNL     1     -43.007 -10.408  14.202  1.00  0.00     0.116 A
HETATM    6  N10 UNL     1     -44.128 -11.083  13.891  1.00  0.00    -0.177 N
HETATM    7  C9  UNL     1     -44.030 -12.350  13.427  1.00  0.00     0.677 A
ATOM      8  H10 UNL     1     -45.041 -10.644  14.005  1.00  0.00     0.185 HD
HETATM    9  N8  UNL     1     -42.849 -12.946  13.270  1.00  0.00    -0.193 N
ATOM     10  H8  UNL     1     -42.817 -13.902  12.916  1.00  0.00     0.184 HD
BRANCH   5  11
HETATM   11  N1  UNL     1     -43.064  -9.199  14.647  1.00  0.00    -0.385 N
ATOM     12  H12 UNL     1     -42.414  -8.486  14.315  1.00  0.00     0.157 HD
ATOM     13  H11 UNL     1     -43.765  -8.943  15.343  1.00  0.00     0.157 HD
ENDBRANCH   5  11
BRANCH   7  14
HETATM   14  N9  UNL     1     -45.109 -12.974  13.138  1.00  0.00    -0.234 N
ATOM     15  H92 UNL     1     -45.183 -13.958  13.397  1.00  0.00     0.174 HD
ATOM     16  H91 UNL     1     -45.870 -12.490  12.660  1.00  0.00     0.174 HD
ENDBRANCH   7  14
ENDBRANCH   2   3
ENDBRANCH   1   2
BRANCH   1  17
HETATM   17  N2  UNL     1     -38.225 -12.383  12.936  1.00  0.00    -0.111 NA
BRANCH  17  18
HETATM   18  N3  UNL     1     -38.455 -13.560  12.193  1.00  0.00    -0.341 NA
ATOM     19  H32 UNL     1     -39.376 -13.970  12.349  1.00  0.00     0.173 HD
ATOM     20  H31 UNL     1     -37.704 -14.220  12.393  1.00  0.00     0.173 HD
ENDBRANCH  17  18
BRANCH  17  21
HETATM   21  C5  UNL     1     -37.864 -11.267  12.140  1.00  0.00     0.146 C
BRANCH  21  22
HETATM   22  C6  UNL     1     -36.613 -10.565  12.514  1.00  0.00     0.026 C
BRANCH  22  23
HETATM   23  C7  UNL     1     -36.714  -9.204  13.103  1.00  0.00     0.080 C
BRANCH  23  24
HETATM   24  C8  UNL     1     -37.684  -9.210  14.264  1.00  0.00     0.113 A
HETATM   25  N4  UNL     1     -37.841 -10.187  15.164  1.00  0.00    -0.272 N
HETATM   26  N5  UNL     1     -38.776  -9.848  16.034  1.00  0.00    -0.227 N
ATOM     27  H4  UNL     1     -37.318 -11.062  15.178  1.00  0.00     0.190 HD
HETATM   28  N6  UNL     1     -39.217  -8.668  15.698  1.00  0.00    -0.227 N
ATOM     29  H5  UNL     1     -39.095 -10.408  16.825  1.00  0.00     0.210 HD
HETATM   30  N7  UNL     1     -38.562  -8.260  14.619  1.00  0.00    -0.272 N
ATOM     31  H6  UNL     1     -39.945  -8.144  16.184  1.00  0.00     0.210 HD
ATOM     32  H7  UNL     1     -38.703  -7.372  14.138  1.00  0.00     0.190 HD
ENDBRANCH  23  24
ENDBRANCH  22  23
ENDBRANCH  21  22
ENDBRANCH  17  21
ENDBRANCH   1  17
TORSDOF 10
ENDMDL