MODEL 1
REMARK VINA RESULT: -7.139887522      0.000      0.000
REMARK  9 active torsions:
REMARK  status: ('A' for Active; 'I' for Inactive)
REMARK    1  A    between atoms: N1_1  and  C1_5
REMARK    2  A    between atoms: C1_5  and  C2_6
REMARK    3  A    between atoms: C2_6  and  C3_7
REMARK    4  A    between atoms: C3_7  and  N2_8
REMARK    5  A    between atoms: N2_8  and  C4_11
REMARK    6  A    between atoms: C4_11  and  C5_12
REMARK    7  A    between atoms: N3_13  and  C6_15
REMARK    8  A    between atoms: C8_22  and  N6_23
REMARK    9  A    between atoms: N6_23  and  C9_25
ROOT
HETATM    1  C6  UNL     1     -38.384 -13.060  13.101  1.00  0.00     0.152 A
HETATM    2  N4  UNL     1     -38.092 -14.367  13.094  1.00  0.00    -0.281 N
ATOM      3  H4  UNL     1     -37.164 -14.769  13.222  1.00  0.00     0.188 HD
HETATM    4  N5  UNL     1     -39.201 -15.050  12.895  1.00  0.00    -0.263 N
ATOM      5  H5  UNL     1     -39.257 -16.067  12.847  1.00  0.00     0.190 HD
HETATM    6  C7  UNL     1     -40.246 -14.221  12.763  1.00  0.00     0.290 A
HETATM    7  O1  UNL     1     -41.454 -14.552  12.562  1.00  0.00    -0.264 OA
HETATM    8  C8  UNL     1     -39.728 -12.933  12.895  1.00  0.00     0.150 A
ENDROOT
BRANCH   1   9
HETATM    9  N3  UNL     1     -37.433 -12.026  13.305  1.00  0.00    -0.351 N
HETATM   10  C5  UNL     1     -37.264 -11.195  12.343  1.00  0.00     0.090 C
ATOM     11  H3  UNL     1     -36.909 -11.948  14.176  1.00  0.00     0.166 HD
BRANCH  10  12
HETATM   12  C4  UNL     1     -36.312 -10.043  12.374  1.00  0.00     0.276 C
BRANCH  12  13
HETATM   13  N2  UNL     1     -36.448  -9.399  13.658  1.00  0.00    -0.071 N
ATOM     14  H22 UNL     1     -35.583  -8.930  13.927  1.00  0.00     0.277 HD
ATOM     15  H21 UNL     1     -36.503 -10.086  14.411  1.00  0.00     0.277 HD
BRANCH  13  16
HETATM   16  C3  UNL     1     -37.565  -8.493  13.700  1.00  0.00     0.234 C
BRANCH  16  17
HETATM   17  C2  UNL     1     -38.136  -8.478  15.103  1.00  0.00     0.055 C
BRANCH  17  18
HETATM   18  C1  UNL     1     -39.010  -9.708  15.354  1.00  0.00     0.231 C
BRANCH  18  19
HETATM   19  N1  UNL     1     -38.293 -10.503  16.353  1.00  0.00    -0.079 N
ATOM     20  H13 UNL     1     -37.532  -9.999  16.808  1.00  0.00     0.274 HD
ATOM     21  H12 UNL     1     -38.837 -10.685  17.196  1.00  0.00     0.274 HD
ATOM     22  H11 UNL     1     -37.993 -11.348  15.868  1.00  0.00     0.274 HD
ENDBRANCH  18  19
ENDBRANCH  17  18
ENDBRANCH  16  17
ENDBRANCH  13  16
ENDBRANCH  12  13
ENDBRANCH  10  12
ENDBRANCH   1   9
BRANCH   8  23
HETATM   23  N6  UNL     1     -40.503 -11.757  12.809  1.00  0.00    -0.321 N
ATOM     24  H6  UNL     1     -40.163 -10.939  12.305  1.00  0.00     0.169 HD
BRANCH  23  25
HETATM   25  C9  UNL     1     -41.787 -11.747  13.454  1.00  0.00     0.175 A
HETATM   26  N7  UNL     1     -42.901 -11.928  12.837  1.00  0.00    -0.361 N
HETATM   27  C10 UNL     1     -44.020 -11.867  13.721  1.00  0.00     0.142 A
ATOM     28  H7  UNL     1     -42.976 -12.095  11.834  1.00  0.00     0.162 HD
HETATM   29  C11 UNL     1     -43.415 -11.547  15.062  1.00  0.00     0.142 A
HETATM   30  N8  UNL     1     -41.989 -11.539  14.837  1.00  0.00    -0.361 N
ATOM     31  H8  UNL     1     -41.265 -11.409  15.543  1.00  0.00     0.162 HD
ENDBRANCH  23  25
ENDBRANCH   8  23
TORSDOF 9
ENDMDL