MODEL 3
REMARK VINA RESULT: -6.840566371      3.478      4.979
REMARK  11 active torsions:
REMARK  status: ('A' for Active; 'I' for Inactive)
REMARK    1  A    between atoms: C2_3  and  C3_4
REMARK    2  A    between atoms: C3_4  and  N2_5
REMARK    3  A    between atoms: N2_5  and  C4_6
REMARK    4  A    between atoms: N2_5  and  C7_11
REMARK    5  A    between atoms: C4_6  and  C5_7
REMARK    6  A    between atoms: C5_7  and  C6_8
REMARK    7  A    between atoms: C6_8  and  O1_9
REMARK    8  A    between atoms: C8_14  and  N4_15
REMARK    9  A    between atoms: N4_15  and  N5_17
REMARK   10  A    between atoms: N5_17  and  C9_19
REMARK   11  A    between atoms: C10_25  and  N8_26
ROOT
HETATM    1  N1  UNL     1     -39.267  -6.849  16.540  1.00  0.00    -0.197 NA
HETATM    2  C1  UNL     1     -38.777  -7.562  15.770  1.00  0.00     0.060 C
HETATM    3  C2  UNL     1     -38.165  -8.491  14.789  1.00  0.00     0.144 C
ENDROOT
BRANCH   3   4
HETATM    4  C3  UNL     1     -38.426  -9.880  15.286  1.00  0.00     0.155 C
BRANCH   4   5
HETATM    5  N2  UNL     1     -38.868 -10.795  14.246  1.00  0.00    -0.216 N
BRANCH   5   6
HETATM    6  C4  UNL     1     -37.863 -11.413  13.421  1.00  0.00     0.143 C
BRANCH   6   7
HETATM    7  C5  UNL     1     -37.762 -10.722  12.071  1.00  0.00     0.046 C
BRANCH   7   8
HETATM    8  C6  UNL     1     -36.339 -10.200  11.914  1.00  0.00     0.165 C
BRANCH   8   9
HETATM    9  O1  UNL     1     -35.644 -10.300  13.124  1.00  0.00    -0.401 OA
ATOM     10  H1  UNL     1     -34.792  -9.884  13.054  1.00  0.00     0.209 HD
ENDBRANCH   8   9
ENDBRANCH   7   8
ENDBRANCH   6   7
ENDBRANCH   5   6
BRANCH   5  11
HETATM   11  C7  UNL     1     -40.269 -11.057  14.088  1.00  0.00     0.709 A
HETATM   12  N3  UNL     1     -40.665 -12.271  13.624  1.00  0.00    -0.020 N
HETATM   13  C8  UNL     1     -41.975 -12.560  13.449  1.00  0.00     0.726 A
ATOM     14  H3  UNL     1     -39.962 -12.976  13.404  1.00  0.00     0.203 HD
HETATM   15  N7  UNL     1     -42.930 -11.652  13.729  1.00  0.00    -0.020 N
HETATM   16  C10 UNL     1     -42.548 -10.451  14.187  1.00  0.00     0.705 A
ATOM     17  H7  UNL     1     -43.917 -11.872  13.596  1.00  0.00     0.203 HD
HETATM   18  N9  UNL     1     -41.236 -10.176  14.358  1.00  0.00    -0.022 N
ATOM     19  H9  UNL     1     -40.973  -9.255  14.708  1.00  0.00     0.203 HD
BRANCH  13  20
HETATM   20  N4  UNL     1     -42.332 -13.717  13.006  1.00  0.00    -0.130 N
ATOM     21  H4  UNL     1     -41.635 -14.461  13.037  1.00  0.00     0.205 HD
BRANCH  20  22
HETATM   22  N5  UNL     1     -43.561 -14.039  12.500  1.00  0.00    -0.282 N
ATOM     23  H5  UNL     1     -44.354 -13.466  12.789  1.00  0.00     0.188 HD
BRANCH  22  24
HETATM   24  C9  UNL     1     -43.794 -15.012  11.684  1.00  0.00     0.191 C
HETATM   25  N6  UNL     1     -43.840 -15.640  10.552  1.00  0.00    -0.394 N
ATOM     26  H62 UNL     1     -43.458 -14.905   9.957  1.00  0.00     0.156 HD
ATOM     27  H61 UNL     1     -44.024 -16.409   9.907  1.00  0.00     0.156 HD
ENDBRANCH  22  24
ENDBRANCH  20  22
ENDBRANCH  13  20
BRANCH  16  28
HETATM   28  N8  UNL     1     -43.428  -9.561  14.468  1.00  0.00    -0.234 N
ATOM     29  H82 UNL     1     -44.017  -9.179  13.729  1.00  0.00     0.174 HD
ATOM     30  H81 UNL     1     -43.535  -9.235  15.428  1.00  0.00     0.174 HD
ENDBRANCH  16  28
ENDBRANCH   5  11
ENDBRANCH   4   5
ENDBRANCH   3   4
TORSDOF 11
ENDMDL