MODEL 5
REMARK VINA RESULT: -6.870927546      2.087      6.508
REMARK  8 active torsions:
REMARK  status: ('A' for Active; 'I' for Inactive)
REMARK    1  A    between atoms: C2_3  and  N2_4
REMARK    2  A    between atoms: C3_5  and  N3_6
REMARK    3  A    between atoms: N3_6  and  C4_8
REMARK    4  A    between atoms: C4_8  and  C5_9
REMARK    5  A    between atoms: C5_9  and  N4_10
REMARK    6  A    between atoms: N4_10  and  C6_13
REMARK    7  A    between atoms: C6_13  and  C7_14
REMARK    8  A    between atoms: C7_14  and  N5_15
ROOT
HETATM    1  N1  UNL     1     -37.662 -11.305  11.539  1.00  0.00    -0.196 NA
HETATM    2  C1  UNL     1     -38.151 -11.689  12.517  1.00  0.00     0.080 C
HETATM    3  C2  UNL     1     -38.792 -12.201  13.756  1.00  0.00     0.272 C
ENDROOT
BRANCH   3   4
HETATM    4  N2  UNL     1     -40.111 -11.661  13.907  1.00  0.00    -0.152 N
HETATM    5  C3  UNL     1     -40.506 -10.503  14.454  1.00  0.00     0.683 A
HETATM    6  N6  UNL     1     -41.881 -10.466  14.401  1.00  0.00    -0.182 N
HETATM    7  C8  UNL     1     -42.354 -11.574  13.833  1.00  0.00     0.162 A
ATOM      8  H6  UNL     1     -42.456  -9.697  14.747  1.00  0.00     0.184 HD
HETATM    9  C9  UNL     1     -43.642 -12.033  13.540  1.00  0.00     0.290 A
HETATM   10  C11 UNL     1     -41.252 -12.322  13.523  1.00  0.00     0.173 A
HETATM   11  O1  UNL     1     -44.615 -11.303  13.847  1.00  0.00    -0.265 OA
HETATM   12  N7  UNL     1     -43.739 -13.230  12.947  1.00  0.00    -0.154 N
HETATM   13  C10 UNL     1     -42.654 -13.963  12.644  1.00  0.00     0.680 A
ATOM     14  H7  UNL     1     -44.663 -13.596  12.720  1.00  0.00     0.187 HD
HETATM   15  N8  UNL     1     -42.754 -15.128  12.067  1.00  0.00    -0.234 N
HETATM   16  N9  UNL     1     -41.409 -13.526  12.924  1.00  0.00    -0.174 N
ATOM     17  H82 UNL     1     -43.695 -15.459  11.855  1.00  0.00     0.174 HD
ATOM     18  H81 UNL     1     -41.931 -15.685  11.836  1.00  0.00     0.174 HD
ATOM     19  H9  UNL     1     -40.597 -14.095  12.688  1.00  0.00     0.186 HD
BRANCH   5  20
HETATM   20  N3  UNL     1     -39.774  -9.411  14.977  1.00  0.00    -0.224 N
ATOM     21  H3  UNL     1     -40.335  -8.613  15.276  1.00  0.00     0.177 HD
BRANCH  20  22
HETATM   22  C4  UNL     1     -38.374  -9.262  15.147  1.00  0.00     0.165 C
BRANCH  22  23
HETATM   23  C5  UNL     1     -37.709  -8.334  14.144  1.00  0.00     0.252 C
BRANCH  23  24
HETATM   24  N4  UNL     1     -36.571  -9.052  13.603  1.00  0.00    -0.072 N
ATOM     25  H42 UNL     1     -35.941  -9.372  14.338  1.00  0.00     0.277 HD
ATOM     26  H41 UNL     1     -36.841  -9.960  13.226  1.00  0.00     0.277 HD
BRANCH  24  27
HETATM   27  C6  UNL     1     -35.876  -8.235  12.607  1.00  0.00     0.259 C
BRANCH  27  28
HETATM   28  C7  UNL     1     -34.974  -9.093  11.746  1.00  0.00     0.257 C
BRANCH  28  29
HETATM   29  N5  UNL     1     -35.502  -9.275  10.418  1.00  0.00    -0.078 N
ATOM     30  H53 UNL     1     -36.279  -9.935  10.416  1.00  0.00     0.274 HD
ATOM     31  H52 UNL     1     -35.997  -8.441  10.099  1.00  0.00     0.274 HD
ATOM     32  H51 UNL     1     -34.781  -9.553   9.751  1.00  0.00     0.274 HD
ENDBRANCH  28  29
ENDBRANCH  27  28
ENDBRANCH  24  27
ENDBRANCH  23  24
ENDBRANCH  22  23
ENDBRANCH  20  22
ENDBRANCH   5  20
ENDBRANCH   3   4
TORSDOF 8
ENDMDL