MODEL 1
REMARK VINA RESULT: -7.141969191      0.000      0.000
REMARK  9 active torsions:
REMARK  status: ('A' for Active; 'I' for Inactive)
REMARK    1  A    between atoms: N1_1  and  C1_4
REMARK    2  A    between atoms: C2_7  and  N3_8
REMARK    3  A    between atoms: N3_8  and  C3_9
REMARK    4  A    between atoms: N3_8  and  C5_13
REMARK    5  A    between atoms: C3_9  and  C4_10
REMARK    6  A    between atoms: C4_10  and  O1_11
REMARK    7  A    between atoms: C5_13  and  C6_14
REMARK    8  A    between atoms: C6_14  and  N4_15
REMARK    9  A    between atoms: C10_23  and  N7_24
ROOT
HETATM    1  C1  UNL     1     -41.620 -12.728  13.463  1.00  0.00     0.705 A
HETATM    2  N2  UNL     1     -40.339 -12.278  13.464  1.00  0.00    -0.022 N
ATOM      3  H2  UNL     1     -39.588 -12.921  13.217  1.00  0.00     0.203 HD
HETATM    4  C2  UNL     1     -40.035 -11.011  13.781  1.00  0.00     0.709 A
HETATM    5  N6  UNL     1     -41.033 -10.166  14.107  1.00  0.00    -0.022 N
ATOM      6  H6  UNL     1     -40.809  -9.201  14.349  1.00  0.00     0.203 HD
HETATM    7  C10 UNL     1     -42.324 -10.570  14.119  1.00  0.00     0.705 A
HETATM    8  N8  UNL     1     -42.573 -11.839  13.797  1.00  0.00    -0.022 N
ATOM      9  H8  UNL     1     -43.543 -12.155  13.803  1.00  0.00     0.203 HD
ENDROOT
BRANCH   4  10
HETATM   10  N3  UNL     1     -38.668 -10.538  13.774  1.00  0.00    -0.213 N
BRANCH  10  11
HETATM   11  C3  UNL     1     -38.402  -9.325  14.505  1.00  0.00     0.167 C
BRANCH  11  12
HETATM   12  C4  UNL     1     -38.347  -9.493  15.993  1.00  0.00     0.184 C
BRANCH  12  13
HETATM   13  O1  UNL     1     -38.285 -10.808  16.428  1.00  0.00    -0.399 OA
ATOM     14  H1  UNL     1     -37.618 -11.336  16.006  1.00  0.00     0.209 HD
ENDBRANCH  12  13
ENDBRANCH  11  12
ENDBRANCH  10  11
BRANCH  10  15
HETATM   15  C5  UNL     1     -37.646 -11.263  13.054  1.00  0.00     0.161 C
BRANCH  15  16
HETATM   16  C6  UNL     1     -37.587 -10.813  11.612  1.00  0.00     0.149 C
BRANCH  16  17
HETATM   17  N4  UNL     1     -36.365 -10.043  11.358  1.00  0.00    -0.350 N
HETATM   18  C7  UNL     1     -35.486  -9.591  12.274  1.00  0.00     0.108 A
HETATM   19  C8  UNL     1     -34.484  -8.922  11.643  1.00  0.00     0.106 A
HETATM   20  N5  UNL     1     -34.776  -8.979  10.312  1.00  0.00    -0.361 N
HETATM   21  C9  UNL     1     -35.921  -9.662  10.142  1.00  0.00     0.182 A
ATOM     22  H5  UNL     1     -34.216  -8.569   9.565  1.00  0.00     0.166 HD
ENDBRANCH  16  17
ENDBRANCH  15  16
ENDBRANCH  10  15
ENDBRANCH   4  10
BRANCH   1  23
HETATM   23  N1  UNL     1     -41.895 -13.961  13.155  1.00  0.00    -0.234 N
ATOM     24  H12 UNL     1     -42.214 -14.639  13.847  1.00  0.00     0.174 HD
ATOM     25  H11 UNL     1     -41.798 -14.296  12.197  1.00  0.00     0.174 HD
ENDBRANCH   1  23
BRANCH   7  26
HETATM   26  N7  UNL     1     -43.265  -9.720  14.441  1.00  0.00    -0.234 N
ATOM     27  H72 UNL     1     -43.959  -9.381  13.773  1.00  0.00     0.174 HD
ATOM     28  H71 UNL     1     -43.323  -9.368  15.396  1.00  0.00     0.174 HD
ENDBRANCH   7  26
TORSDOF 9
ENDMDL