MODEL 5
REMARK VINA RESULT: -6.825952055      1.638      2.292
REMARK  6 active torsions:
REMARK  status: ('A' for Active; 'I' for Inactive)
REMARK    1  A    between atoms: N1_1  and  C1_4
REMARK    2  A    between atoms: C3_13  and  N5_14
REMARK    3  A    between atoms: N5_14  and  N6_16
REMARK    4  A    between atoms: C4_18  and  C5_19
REMARK    5  A    between atoms: C5_19  and  N7_20
REMARK    6  A    between atoms: C5_19  and  C6_24
ROOT
HETATM    1  C1  UNL     1     -34.688 -18.725  -3.720  1.00  0.00     0.160 A
HETATM    2  N2  UNL     1     -35.044 -17.435  -3.533  1.00  0.00    -0.279 N
ATOM      3  H2  UNL     1     -34.337 -16.706  -3.629  1.00  0.00     0.189 HD
HETATM    4  N3  UNL     1     -36.289 -17.092  -3.226  1.00  0.00    -0.250 N
ATOM      5  H3  UNL     1     -36.540 -16.113  -3.089  1.00  0.00     0.192 HD
HETATM    6  C2  UNL     1     -37.214 -18.061  -3.101  1.00  0.00     0.340 A
HETATM    7  O1  UNL     1     -38.403 -17.724  -2.807  1.00  0.00    -0.245 OA
HETATM    8  N4  UNL     1     -36.882 -19.352  -3.283  1.00  0.00    -0.289 N
ATOM      9  H4  UNL     1     -37.604 -20.066  -3.182  1.00  0.00     0.172 HD
HETATM   10  C3  UNL     1     -35.616 -19.739  -3.597  1.00  0.00     0.170 A
ENDROOT
BRANCH  10  11
HETATM   11  N5  UNL     1     -35.291 -21.109  -3.784  1.00  0.00    -0.283 N
ATOM     12  H5  UNL     1     -34.319 -21.418  -3.808  1.00  0.00     0.188 HD
BRANCH  11  13
HETATM   13  N6  UNL     1     -36.338 -22.018  -3.935  1.00  0.00    -0.312 N
HETATM   14  C4  UNL     1     -37.255 -21.756  -4.802  1.00  0.00     0.122 C
ATOM     15  H6  UNL     1     -36.377 -22.869  -3.374  1.00  0.00     0.185 HD
BRANCH  14  16
HETATM   16  C5  UNL     1     -38.385 -22.701  -4.989  1.00  0.00     0.311 C
BRANCH  16  17
HETATM   17  N7  UNL     1     -37.862 -24.045  -4.893  1.00  0.00    -0.062 N
ATOM     18  H73 UNL     1     -37.149 -24.242  -5.596  1.00  0.00     0.275 HD
ATOM     19  H72 UNL     1     -37.280 -24.184  -4.067  1.00  0.00     0.275 HD
ATOM     20  H71 UNL     1     -38.649 -24.692  -4.936  1.00  0.00     0.275 HD
ENDBRANCH  16  17
BRANCH  16  21
HETATM   21  C6  UNL     1     -39.357 -22.443  -3.889  1.00  0.00     0.266 C
HETATM   22  N8  UNL     1     -39.423 -21.141  -3.320  1.00  0.00    -0.060 NA
HETATM   23  O2  UNL     1     -40.114 -23.359  -3.463  1.00  0.00    -0.274 OA
ENDBRANCH  16  21
ENDBRANCH  14  16
ENDBRANCH  11  13
ENDBRANCH  10  11
BRANCH   1  24
HETATM   24  N1  UNL     1     -33.475 -19.068  -4.019  1.00  0.00    -0.381 N
ATOM     25  H12 UNL     1     -33.355 -19.924  -4.562  1.00  0.00     0.157 HD
ATOM     26  H11 UNL     1     -32.668 -18.516  -3.729  1.00  0.00     0.157 HD
ENDBRANCH   1  24
TORSDOF 6
ENDMDL