MODEL 4
REMARK VINA RESULT: -7.211516134      1.535      2.077
REMARK  5 active torsions:
REMARK  status: ('A' for Active; 'I' for Inactive)
REMARK    1  A    between atoms: N1_2  and  O1_3
REMARK    2  A    between atoms: O1_3  and  C2_4
REMARK       I    between atoms: C2_4  and  N2_6
REMARK    3  A    between atoms: N2_6  and  N3_7
REMARK    4  A    between atoms: N3_7  and  C3_9
REMARK    5  A    between atoms: C6_15  and  N6_16
ROOT
HETATM    1  C3  UNL     1     -38.458 -19.298  -3.486  1.00  0.00     0.141 C
HETATM    2  C4  UNL     1     -37.035 -19.178  -3.678  1.00  0.00     0.092 A
HETATM    3  C5  UNL     1     -36.302 -20.115  -4.364  1.00  0.00     0.149 A
HETATM    4  N4  UNL     1     -36.920 -21.261  -4.930  1.00  0.00    -0.081 NA
HETATM    5  N5  UNL     1     -34.958 -19.987  -4.525  1.00  0.00    -0.178 N
ATOM      6  H5  UNL     1     -34.445 -20.701  -5.041  1.00  0.00     0.185 HD
HETATM    7  C6  UNL     1     -34.294 -18.929  -4.014  1.00  0.00     0.680 A
HETATM    8  N7  UNL     1     -35.011 -18.007  -3.339  1.00  0.00    -0.155 N
ATOM      9  H7  UNL     1     -34.521 -17.204  -2.948  1.00  0.00     0.187 HD
HETATM   10  C7  UNL     1     -36.323 -18.095  -3.160  1.00  0.00     0.274 A
HETATM   11  O3  UNL     1     -37.011 -17.236  -2.529  1.00  0.00    -0.267 OA
ENDROOT
BRANCH   1  12
HETATM   12  N3  UNL     1     -39.163 -20.273  -3.931  1.00  0.00    -0.240 N
ATOM     13  H3  UNL     1     -38.905 -20.708  -4.817  1.00  0.00     0.201 HD
BRANCH  12  14
HETATM   14  N2  UNL     1     -40.218 -20.733  -3.270  1.00  0.00    -0.258 NA
HETATM   15  C2  UNL     1     -41.299 -21.203  -2.594  1.00  0.00     0.477 C
HETATM   16  O2  UNL     1     -41.369 -21.545  -1.389  1.00  0.00    -0.217 OA
BRANCH  15  17
HETATM   17  O1  UNL     1     -42.569 -21.364  -3.254  1.00  0.00    -0.177 OA
BRANCH  17  18
HETATM   18  N1  UNL     1     -42.691 -22.197  -4.347  1.00  0.00    -0.093 NA
HETATM   19  C1  UNL     1     -42.404 -23.577  -4.000  1.00  0.00     0.168 C
ENDBRANCH  17  18
ENDBRANCH  15  17
ENDBRANCH  12  14
ENDBRANCH   1  12
BRANCH   7  20
HETATM   20  N6  UNL     1     -33.026 -18.770  -4.146  1.00  0.00    -0.234 N
ATOM     21  H62 UNL     1     -32.659 -17.846  -4.375  1.00  0.00     0.174 HD
ATOM     22  H61 UNL     1     -32.357 -19.531  -4.032  1.00  0.00     0.174 HD
ENDBRANCH   7  20
TORSDOF 5
ENDMDL