MODEL 5
REMARK VINA RESULT: -7.307349025      1.977      2.989
REMARK  4 active torsions:
REMARK  status: ('A' for Active; 'I' for Inactive)
REMARK    1  A    between atoms: N1_1  and  C1_4
REMARK    2  A    between atoms: C1_4  and  C2_5
REMARK    3  A    between atoms: C2_5  and  N2_6
REMARK    4  A    between atoms: C5_22  and  N9_23
ROOT
HETATM    1  C1  UNL     1     -37.486 -20.902  -4.122  1.00  0.00     0.057 C
HETATM    2  C4  UNL     1     -38.797 -21.204  -3.614  1.00  0.00     0.141 A
HETATM    3  N7  UNL     1     -39.594 -20.205  -3.092  1.00  0.00    -0.280 N
ATOM      4  H7  UNL     1     -39.230 -19.253  -3.078  1.00  0.00     0.188 HD
HETATM    5  N8  UNL     1     -40.792 -20.417  -2.615  1.00  0.00    -0.132 N
ATOM      6  H8  UNL     1     -41.331 -19.634  -2.244  1.00  0.00     0.205 HD
HETATM    7  C5  UNL     1     -41.324 -21.646  -2.607  1.00  0.00     0.693 A
HETATM    8  N10 UNL     1     -40.626 -22.662  -3.089  1.00  0.00    -0.153 N
ATOM      9  H10 UNL     1     -41.020 -23.603  -3.088  1.00  0.00     0.187 HD
HETATM   10  C6  UNL     1     -39.381 -22.443  -3.584  1.00  0.00     0.289 A
HETATM   11  O1  UNL     1     -38.761 -23.427  -4.027  1.00  0.00    -0.265 OA
ENDROOT
BRANCH   1  12
HETATM   12  N1  UNL     1     -36.683 -21.717  -4.613  1.00  0.00    -0.399 N
ATOM     13  H12 UNL     1     -35.991 -21.518  -5.335  1.00  0.00     0.156 HD
ATOM     14  H11 UNL     1     -36.715 -22.674  -4.263  1.00  0.00     0.156 HD
ENDBRANCH   1  12
BRANCH   1  15
HETATM   15  C2  UNL     1     -37.055 -19.470  -4.051  1.00  0.00     0.228 C
BRANCH  15  16
HETATM   16  N2  UNL     1     -35.646 -19.310  -4.326  1.00  0.00    -0.102 N
HETATM   17  N3  UNL     1     -35.141 -19.311  -5.543  1.00  0.00    -0.211 N
HETATM   18  N4  UNL     1     -33.834 -19.145  -5.432  1.00  0.00    -0.213 N
ATOM     19  H3  UNL     1     -35.663 -19.420  -6.412  1.00  0.00     0.210 HD
HETATM   20  N5  UNL     1     -33.500 -19.041  -4.177  1.00  0.00    -0.115 N
ATOM     21  H4  UNL     1     -33.181 -19.104  -6.214  1.00  0.00     0.210 HD
HETATM   22  C3  UNL     1     -34.630 -19.143  -3.464  1.00  0.00     0.710 A
ATOM     23  H5  UNL     1     -32.559 -18.908  -3.808  1.00  0.00     0.207 HD
HETATM   24  N6  UNL     1     -34.774 -19.095  -2.179  1.00  0.00    -0.232 N
ATOM     25  H62 UNL     1     -35.634 -19.172  -1.636  1.00  0.00     0.174 HD
ATOM     26  H61 UNL     1     -34.002 -18.968  -1.524  1.00  0.00     0.174 HD
ENDBRANCH  15  16
ENDBRANCH   1  15
BRANCH   7  27
HETATM   27  N9  UNL     1     -42.519 -21.808  -2.123  1.00  0.00    -0.233 N
ATOM     28  H92 UNL     1     -42.816 -21.346  -1.263  1.00  0.00     0.174 HD
ATOM     29  H91 UNL     1     -43.173 -22.413  -2.620  1.00  0.00     0.174 HD
ENDBRANCH   7  27
TORSDOF 4
ENDMDL