MODEL 5
REMARK VINA RESULT: -7.065604896      1.656      2.258
REMARK  4 active torsions:
REMARK  status: ('A' for Active; 'I' for Inactive)
REMARK    1  A    between atoms: C2_7  and  N3_8
REMARK    2  A    between atoms: N3_8  and  C3_10
REMARK    3  A    between atoms: C3_10  and  O1_11
REMARK    4  A    between atoms: C3_10  and  C4_13
ROOT
HETATM    1  N1  UNL     1     -38.726 -23.292  -5.044  1.00  0.00    -0.233 N
ATOM      2  H11 UNL     1     -39.731 -23.248  -5.213  1.00  0.00     0.174 HD
ATOM      3  H12 UNL     1     -38.216 -24.153  -5.243  1.00  0.00     0.174 HD
HETATM    4  C1  UNL     1     -38.052 -22.293  -4.581  1.00  0.00     0.692 A
HETATM    5  N2  UNL     1     -36.647 -22.354  -4.345  1.00  0.00    -0.172 N
ATOM      6  H2  UNL     1     -36.144 -23.218  -4.546  1.00  0.00     0.186 HD
HETATM    7  C2  UNL     1     -35.943 -21.251  -3.841  1.00  0.00     0.165 A
HETATM    8  C5  UNL     1     -36.614 -20.145  -3.589  1.00  0.00     0.174 A
HETATM    9  N5  UNL     1     -35.925 -18.991  -3.072  1.00  0.00    -0.334 N
ATOM     10  H5  UNL     1     -34.920 -19.040  -2.904  1.00  0.00     0.168 HD
HETATM   11  C6  UNL     1     -36.557 -17.898  -2.817  1.00  0.00     0.183 A
HETATM   12  N6  UNL     1     -37.952 -17.812  -3.043  1.00  0.00    -0.347 N
ATOM     13  H6  UNL     1     -38.423 -16.932  -2.829  1.00  0.00     0.167 HD
HETATM   14  C7  UNL     1     -38.657 -18.781  -3.502  1.00  0.00     0.210 A
HETATM   15  N7  UNL     1     -38.030 -20.015  -3.805  1.00  0.00    -0.217 N
HETATM   16  N8  UNL     1     -38.765 -21.090  -4.305  1.00  0.00    -0.123 N
ATOM     17  H8  UNL     1     -39.769 -21.019  -4.465  1.00  0.00     0.206 HD
ENDROOT
BRANCH   7  18
HETATM   18  N3  UNL     1     -34.525 -21.313  -3.602  1.00  0.00    -0.339 N
ATOM     19  H3  UNL     1     -34.170 -21.458  -2.656  1.00  0.00     0.164 HD
BRANCH  18  20
HETATM   20  C3  UNL     1     -33.603 -21.167  -4.707  1.00  0.00     0.310 C
BRANCH  20  21
HETATM   21  O1  UNL     1     -34.005 -21.924  -5.773  1.00  0.00    -0.368 OA
ATOM     22  H1  UNL     1     -33.389 -21.845  -6.491  1.00  0.00     0.212 HD
ENDBRANCH  20  21
BRANCH  20  23
HETATM   23  C4  UNL     1     -33.495 -19.750  -5.107  1.00  0.00     0.279 C
HETATM   24  N4  UNL     1     -32.851 -18.836  -4.238  1.00  0.00    -0.058 NA
HETATM   25  O2  UNL     1     -33.957 -19.335  -6.198  1.00  0.00    -0.272 OA
ENDBRANCH  20  23
ENDBRANCH  18  20
ENDBRANCH   7  18
TORSDOF 4
ENDMDL