MODEL 1
REMARK VINA RESULT: -6.334478434      0.000      0.000
REMARK  8 active torsions:
REMARK  status: ('A' for Active; 'I' for Inactive)
REMARK    1  A    between atoms: N1_2  and  N2_3
REMARK       I    between atoms: N1_2  and  C2_7
REMARK    2  A    between atoms: N2_3  and  O1_5
REMARK    3  A    between atoms: C2_7  and  C3_9
REMARK    4  A    between atoms: C3_9  and  N3_10
REMARK    5  A    between atoms: C4_11  and  N4_12
REMARK    6  A    between atoms: C5_17  and  N6_18
REMARK    7  A    between atoms: C6_23  and  N8_24
REMARK    8  A    between atoms: N8_24  and  N9_26
ROOT
HETATM    1  N3  UNL     1     -41.901 -21.816  -3.027  1.00  0.00    -0.003 N
HETATM    2  C4  UNL     1     -42.587 -22.632  -3.830  1.00  0.00     0.707 A
HETATM    3  N5  UNL     1     -43.766 -22.200  -4.323  1.00  0.00    -0.022 N
ATOM      4  H5  UNL     1     -44.303 -22.809  -4.939  1.00  0.00     0.203 HD
HETATM    5  C5  UNL     1     -44.245 -20.985  -4.021  1.00  0.00     0.705 A
HETATM    6  N7  UNL     1     -43.545 -20.163  -3.206  1.00  0.00    -0.020 N
ATOM      7  H7  UNL     1     -43.901 -19.237  -2.970  1.00  0.00     0.203 HD
HETATM    8  C6  UNL     1     -42.369 -20.593  -2.714  1.00  0.00     0.728 A
ENDROOT
BRANCH   1   9
HETATM    9  C3  UNL     1     -40.629 -22.195  -2.465  1.00  0.00     0.271 C
BRANCH   9  10
HETATM   10  C2  UNL     1     -39.569 -22.360  -3.451  1.00  0.00     0.258 C
HETATM   11  N1  UNL     1     -38.768 -21.258  -3.818  1.00  0.00    -0.245 N
HETATM   12  C1  UNL     1     -37.691 -21.392  -4.809  1.00  0.00     0.183 C
HETATM   13  O2  UNL     1     -39.363 -23.473  -3.972  1.00  0.00    -0.270 OA
BRANCH  11  14
HETATM   14  N2  UNL     1     -38.980 -19.984  -3.240  1.00  0.00    -0.206 N
ATOM     15  H2  UNL     1     -38.739 -19.856  -2.258  1.00  0.00     0.216 HD
BRANCH  14  16
HETATM   16  O1  UNL     1     -39.435 -19.026  -3.853  1.00  0.00    -0.274 OA
ATOM     17  H1  UNL     1     -40.006 -18.374  -3.465  1.00  0.00     0.246 HD
ENDBRANCH  14  16
ENDBRANCH  11  14
ENDBRANCH   9  10
ENDBRANCH   1   9
BRANCH   2  18
HETATM   18  N4  UNL     1     -42.158 -23.833  -4.143  1.00  0.00    -0.233 N
ATOM     19  H42 UNL     1     -41.345 -24.218  -3.659  1.00  0.00     0.174 HD
ATOM     20  H41 UNL     1     -42.604 -24.402  -4.863  1.00  0.00     0.174 HD
ENDBRANCH   2  18
BRANCH   8  21
HETATM   21  N8  UNL     1     -41.659 -19.830  -1.922  1.00  0.00    -0.137 N
ATOM     22  H8  UNL     1     -40.667 -19.663  -2.092  1.00  0.00     0.205 HD
BRANCH  21  23
HETATM   23  N9  UNL     1     -42.316 -19.262  -0.845  1.00  0.00    -0.331 N
ATOM     24  H92 UNL     1     -42.369 -18.248  -0.744  1.00  0.00     0.177 HD
ATOM     25  H91 UNL     1     -42.736 -19.902  -0.171  1.00  0.00     0.177 HD
ENDBRANCH  21  23
ENDBRANCH   8  21
BRANCH   5  26
HETATM   26  N6  UNL     1     -45.368 -20.537  -4.472  1.00  0.00    -0.234 N
ATOM     27  H62 UNL     1     -46.154 -21.187  -4.474  1.00  0.00     0.174 HD
ATOM     28  H61 UNL     1     -45.492 -19.584  -4.816  1.00  0.00     0.174 HD
ENDBRANCH   5  26
TORSDOF 8
ENDMDL