MODEL 3
REMARK VINA RESULT: -6.742652700      2.400      2.833
REMARK  9 active torsions:
REMARK  status: ('A' for Active; 'I' for Inactive)
REMARK    1  A    between atoms: N1_1  and  N2_4
REMARK    2  A    between atoms: N2_4  and  C1_5
REMARK    3  A    between atoms: C1_5  and  N3_6
REMARK    4  A    between atoms: C1_5  and  O1_10
REMARK    5  A    between atoms: O1_10  and  C2_11
REMARK    6  A    between atoms: C2_11  and  C3_12
REMARK    7  A    between atoms: C3_12  and  N4_13
REMARK    8  A    between atoms: N4_13  and  N5_15
REMARK       I    between atoms: C4_17  and  N7_19
REMARK    9  A    between atoms: N7_19  and  C5_21
ROOT
HETATM    1  N4  UNL     1     -39.449 -20.708  -3.211  1.00  0.00    -0.265 N
ATOM      2  H4  UNL     1     -39.743 -19.743  -3.362  1.00  0.00     0.196 HD
ENDROOT
BRANCH   1   3
HETATM    3  C3  UNL     1     -40.294 -21.654  -3.013  1.00  0.00    -0.028 C
BRANCH   3   4
HETATM    4  C2  UNL     1     -41.301 -22.437  -2.675  1.00  0.00     0.277 C
BRANCH   4   5
HETATM    5  O1  UNL     1     -41.838 -22.279  -1.438  1.00  0.00    -0.333 OA
BRANCH   5   6
HETATM    6  C1  UNL     1     -42.698 -21.277  -1.004  1.00  0.00     0.435 C
BRANCH   6   7
HETATM    7  N2  UNL     1     -42.027 -20.267  -0.187  1.00  0.00    -0.087 NA
BRANCH   7   8
HETATM    8  N1  UNL     1     -41.666 -19.150  -0.915  1.00  0.00    -0.344 N
ATOM      9  H12 UNL     1     -42.071 -18.228  -0.753  1.00  0.00     0.172 HD
ATOM     10  H11 UNL     1     -40.959 -19.356  -1.621  1.00  0.00     0.172 HD
ENDBRANCH   7   8
ENDBRANCH   6   7
BRANCH   6  11
HETATM   11  N3  UNL     1     -43.743 -21.902  -0.202  1.00  0.00    -0.037 N
ATOM     12  H33 UNL     1     -44.435 -21.231   0.131  1.00  0.00     0.279 HD
ATOM     13  H32 UNL     1     -44.369 -22.484  -0.758  1.00  0.00     0.279 HD
ATOM     14  H31 UNL     1     -43.301 -22.419   0.559  1.00  0.00     0.279 HD
ENDBRANCH   6  11
ENDBRANCH   5   6
ENDBRANCH   4   5
ENDBRANCH   3   4
ENDBRANCH   1   3
BRANCH   1  15
HETATM   15  N5  UNL     1     -38.103 -21.079  -3.209  1.00  0.00    -0.267 N
HETATM   16  C4  UNL     1     -37.610 -21.492  -4.325  1.00  0.00     0.209 C
HETATM   17  N6  UNL     1     -38.398 -21.569  -5.510  1.00  0.00    -0.062 NA
HETATM   18  N7  UNL     1     -36.238 -21.898  -4.437  1.00  0.00    -0.314 N
ATOM     19  H7  UNL     1     -35.967 -22.834  -4.136  1.00  0.00     0.170 HD
ATOM     20  H5  UNL     1     -37.536 -21.024  -2.362  1.00  0.00     0.190 HD
BRANCH  18  21
HETATM   21  C5  UNL     1     -35.346 -21.104  -4.908  1.00  0.00     0.137 A
HETATM   22  C6  UNL     1     -35.460 -19.733  -4.917  1.00  0.00     0.154 A
HETATM   23  N8  UNL     1     -34.330 -19.247  -5.489  1.00  0.00    -0.292 N
HETATM   24  N9  UNL     1     -33.554 -20.263  -5.819  1.00  0.00    -0.021 NA
ATOM     25  H8  UNL     1     -34.117 -18.261  -5.639  1.00  0.00     0.183 HD
HETATM   26  N10 UNL     1     -34.160 -21.391  -5.472  1.00  0.00    -0.268 N
ATOM     27  H10 UNL     1     -33.786 -22.330  -5.612  1.00  0.00     0.186 HD
ENDBRANCH  18  21
ENDBRANCH   1  15
TORSDOF 9
ENDMDL