MODEL 2
REMARK VINA RESULT: -7.095600274      1.985      4.690
REMARK  8 active torsions:
REMARK  status: ('A' for Active; 'I' for Inactive)
REMARK    1  A    between atoms: N1_1  and  N2_4
REMARK    2  A    between atoms: N2_4  and  C1_6
REMARK    3  A    between atoms: C2_9  and  C3_10
REMARK    4  A    between atoms: C3_10  and  C4_12
REMARK       I    between atoms: C4_12  and  N4_14
REMARK    5  A    between atoms: N4_14  and  N5_16
REMARK    6  A    between atoms: C5_19  and  N6_20
REMARK    7  A    between atoms: N6_20  and  O3_22
REMARK    8  A    between atoms: C6_24  and  O4_25
ROOT
HETATM    1  C1  UNL     1     -37.892 -22.171  -4.327  1.00  0.00     0.699 A
HETATM    2  N3  UNL     1     -36.595 -21.782  -4.365  1.00  0.00    -0.184 N
ATOM      3  H3  UNL     1     -35.880 -22.483  -4.562  1.00  0.00     0.184 HD
HETATM    4  C2  UNL     1     -36.209 -20.514  -4.154  1.00  0.00     0.138 A
HETATM    5  C5  UNL     1     -37.187 -19.597  -3.894  1.00  0.00     0.137 A
HETATM    6  C6  UNL     1     -38.496 -19.982  -3.855  1.00  0.00     0.186 A
HETATM    7  N7  UNL     1     -38.816 -21.262  -4.073  1.00  0.00    -0.167 N
ATOM      8  H7  UNL     1     -39.797 -21.542  -4.042  1.00  0.00     0.186 HD
ENDROOT
BRANCH   4   9
HETATM    9  C3  UNL     1     -34.820 -20.121  -4.199  1.00  0.00     0.270 C
HETATM   10  O1  UNL     1     -34.290 -19.572  -3.194  1.00  0.00    -0.280 OA
BRANCH   9  11
HETATM   11  C4  UNL     1     -34.061 -20.373  -5.424  1.00  0.00     0.312 C
HETATM   12  O2  UNL     1     -33.817 -19.443  -6.230  1.00  0.00    -0.262 OA
HETATM   13  N4  UNL     1     -33.575 -21.671  -5.744  1.00  0.00    -0.270 N
ATOM     14  H4  UNL     1     -33.762 -22.443  -5.104  1.00  0.00     0.189 HD
BRANCH  13  15
HETATM   15  N5  UNL     1     -32.852 -21.912  -6.908  1.00  0.00    -0.342 N
ATOM     16  H52 UNL     1     -33.348 -21.880  -7.799  1.00  0.00     0.176 HD
ATOM     17  H51 UNL     1     -31.854 -22.117  -6.884  1.00  0.00     0.176 HD
ENDBRANCH  13  15
ENDBRANCH   9  11
ENDBRANCH   4   9
BRANCH   5  18
HETATM   18  N6  UNL     1     -36.890 -18.226  -3.656  1.00  0.00    -0.263 N
ATOM     19  H6  UNL     1     -36.698 -17.580  -4.422  1.00  0.00     0.194 HD
BRANCH  18  20
HETATM   20  O3  UNL     1     -36.877 -17.848  -2.460  1.00  0.00    -0.289 OA
ATOM     21  H3  UNL     1     -36.048 -17.532  -2.118  1.00  0.00     0.244 HD
ENDBRANCH  18  20
ENDBRANCH   5  18
BRANCH   1  22
HETATM   22  N2  UNL     1     -38.113 -23.416  -4.547  1.00  0.00    -0.138 N
ATOM     23  H2  UNL     1     -39.063 -23.748  -4.382  1.00  0.00     0.205 HD
BRANCH  22  24
HETATM   24  N1  UNL     1     -37.209 -24.341  -4.979  1.00  0.00    -0.331 N
ATOM     25  H12 UNL     1     -36.274 -24.261  -4.578  1.00  0.00     0.177 HD
ATOM     26  H11 UNL     1     -37.376 -25.089  -5.651  1.00  0.00     0.177 HD
ENDBRANCH  22  24
ENDBRANCH   1  22
BRANCH   6  27
HETATM   27  O4  UNL     1     -39.494 -19.045  -3.588  1.00  0.00    -0.344 OA
ATOM     28  H4  UNL     1     -40.203 -18.914  -4.207  1.00  0.00     0.219 HD
ENDBRANCH   6  27
TORSDOF 8
ENDMDL