MODEL 2
REMARK VINA RESULT: -7.084871958      1.485      5.821
REMARK  6 active torsions:
REMARK  status: ('A' for Active; 'I' for Inactive)
REMARK    1  A    between atoms: N1_1  and  C1_4
REMARK    2  A    between atoms: C2_10  and  C3_11
REMARK       I    between atoms: C3_11  and  N4_13
REMARK    3  A    between atoms: N4_13  and  C4_15
REMARK    4  A    between atoms: C5_21  and  N7_22
REMARK    5  A    between atoms: N7_22  and  N8_23
REMARK    6  A    between atoms: N7_22  and  N9_26
ROOT
HETATM    1  C4  UNL     1     -38.676 -21.662  -4.288  1.00  0.00     0.180 A
HETATM    2  N5  UNL     1     -38.664 -23.010  -4.423  1.00  0.00    -0.222 N
ATOM      3  H5  UNL     1     -38.027 -23.549  -5.011  1.00  0.00     0.198 HD
HETATM    4  O3  UNL     1     -39.606 -23.493  -3.672  1.00  0.00    -0.153 OA
HETATM    5  N6  UNL     1     -40.233 -22.522  -3.051  1.00  0.00    -0.219 N
ATOM      6  H6  UNL     1     -41.012 -22.641  -2.404  1.00  0.00     0.198 HD
HETATM    7  C5  UNL     1     -39.682 -21.339  -3.407  1.00  0.00     0.212 A
ENDROOT
BRANCH   1   8
HETATM    8  N4  UNL     1     -37.883 -20.835  -4.891  1.00  0.00    -0.303 N
HETATM    9  C3  UNL     1     -36.466 -20.896  -4.697  1.00  0.00     0.279 C
HETATM   10  O2  UNL     1     -35.793 -21.892  -5.034  1.00  0.00    -0.265 OA
ATOM     11  H4  UNL     1     -38.274 -20.129  -5.514  1.00  0.00     0.171 HD
BRANCH   9  12
HETATM   12  C2  UNL     1     -35.794 -19.760  -4.086  1.00  0.00     0.169 A
HETATM   13  C1  UNL     1     -34.903 -18.910  -4.667  1.00  0.00     0.155 A
HETATM   14  N2  UNL     1     -34.562 -18.014  -3.686  1.00  0.00    -0.224 N
HETATM   15  O1  UNL     1     -35.203 -18.304  -2.591  1.00  0.00    -0.155 OA
ATOM     16  H2  UNL     1     -33.907 -17.240  -3.796  1.00  0.00     0.198 HD
HETATM   17  N3  UNL     1     -35.953 -19.342  -2.784  1.00  0.00    -0.233 N
ATOM     18  H3  UNL     1     -36.559 -19.777  -2.089  1.00  0.00     0.197 HD
BRANCH  13  19
HETATM   19  N1  UNL     1     -34.435 -18.878  -5.848  1.00  0.00    -0.382 N
ATOM     20  H12 UNL     1     -34.324 -18.102  -6.500  1.00  0.00     0.157 HD
ATOM     21  H11 UNL     1     -34.077 -19.697  -6.340  1.00  0.00     0.157 HD
ENDBRANCH  13  19
ENDBRANCH   9  12
ENDBRANCH   1   8
BRANCH   7  22
HETATM   22  N7  UNL     1     -40.087 -20.059  -2.942  1.00  0.00    -0.187 N
BRANCH  22  23
HETATM   23  N8  UNL     1     -41.345 -19.954  -2.346  1.00  0.00    -0.323 N
ATOM     24  H82 UNL     1     -42.178 -20.027  -2.930  1.00  0.00     0.179 HD
ATOM     25  H81 UNL     1     -41.381 -19.803  -1.338  1.00  0.00     0.179 HD
ENDBRANCH  22  23
BRANCH  22  26
HETATM   26  N9  UNL     1     -39.295 -18.922  -3.051  1.00  0.00    -0.323 N
ATOM     27  H92 UNL     1     -39.639 -18.128  -3.591  1.00  0.00     0.179 HD
ATOM     28  H91 UNL     1     -38.377 -18.836  -2.614  1.00  0.00     0.179 HD
ENDBRANCH  22  26
ENDBRANCH   7  22
TORSDOF 6
ENDMDL