MODEL 5
REMARK VINA RESULT: -6.812493873      2.332      6.357
REMARK  7 active torsions:
REMARK  status: ('A' for Active; 'I' for Inactive)
REMARK    1  A    between atoms: N1_1  and  C1_4
REMARK    2  A    between atoms: C2_7  and  N3_8
REMARK    3  A    between atoms: C5_11  and  N4_12
REMARK    4  A    between atoms: N4_12  and  N5_13
REMARK    5  A    between atoms: N4_12  and  N6_16
REMARK    6  A    between atoms: N6_16  and  O1_18
REMARK    7  A    between atoms: C6_24  and  N9_25
ROOT
HETATM    1  C1  UNL     1     -41.253 -22.587  -3.394  1.00  0.00     0.705 A
HETATM    2  N2  UNL     1     -40.017 -22.282  -3.814  1.00  0.00    -0.020 N
ATOM      3  H2  UNL     1     -39.521 -22.959  -4.394  1.00  0.00     0.203 HD
HETATM    4  C2  UNL     1     -39.394 -21.115  -3.505  1.00  0.00     0.728 A
HETATM    5  N8  UNL     1     -40.030 -20.222  -2.747  1.00  0.00    -0.020 N
ATOM      6  H8  UNL     1     -39.589 -19.337  -2.499  1.00  0.00     0.203 HD
HETATM    7  C6  UNL     1     -41.269 -20.517  -2.320  1.00  0.00     0.705 A
HETATM    8  N10 UNL     1     -41.885 -21.676  -2.629  1.00  0.00    -0.022 N
ATOM      9  H10 UNL     1     -42.827 -21.862  -2.284  1.00  0.00     0.203 HD
ENDROOT
BRANCH   4  10
HETATM   10  N3  UNL     1     -38.080 -20.865  -3.972  1.00  0.00    -0.121 N
HETATM   11  C3  UNL     1     -37.096 -21.903  -4.284  1.00  0.00     0.175 C
HETATM   12  C4  UNL     1     -35.851 -21.211  -3.699  1.00  0.00     0.104 C
HETATM   13  C5  UNL     1     -36.149 -19.794  -4.108  1.00  0.00     0.140 C
HETATM   14  N7  UNL     1     -37.435 -19.671  -4.245  1.00  0.00    -0.270 N
ATOM     15  H7  UNL     1     -37.908 -18.809  -4.518  1.00  0.00     0.189 HD
BRANCH  13  16
HETATM   16  N4  UNL     1     -35.178 -18.777  -4.309  1.00  0.00    -0.170 N
BRANCH  16  17
HETATM   17  N5  UNL     1     -35.167 -17.624  -3.533  1.00  0.00    -0.321 N
ATOM     18  H52 UNL     1     -36.055 -17.301  -3.150  1.00  0.00     0.179 HD
ATOM     19  H51 UNL     1     -34.303 -17.115  -3.352  1.00  0.00     0.179 HD
ENDBRANCH  16  17
BRANCH  16  20
HETATM   20  N6  UNL     1     -34.198 -18.906  -5.295  1.00  0.00    -0.188 N
ATOM     21  H6  UNL     1     -33.203 -18.928  -5.073  1.00  0.00     0.218 HD
BRANCH  20  22
HETATM   22  O1  UNL     1     -34.628 -18.995  -6.484  1.00  0.00    -0.273 OA
ATOM     23  H1  UNL     1     -34.342 -19.762  -6.966  1.00  0.00     0.246 HD
ENDBRANCH  20  22
ENDBRANCH  16  20
ENDBRANCH  13  16
ENDBRANCH   4  10
BRANCH   1  24
HETATM   24  N1  UNL     1     -41.787 -23.713  -3.723  1.00  0.00    -0.234 N
ATOM     25  H12 UNL     1     -41.802 -24.521  -3.100  1.00  0.00     0.174 HD
ATOM     26  H11 UNL     1     -42.218 -23.825  -4.640  1.00  0.00     0.174 HD
ENDBRANCH   1  24
BRANCH   7  27
HETATM   27  N9  UNL     1     -41.881 -19.638  -1.581  1.00  0.00    -0.234 N
ATOM     28  H92 UNL     1     -41.354 -19.104  -0.889  1.00  0.00     0.174 HD
ATOM     29  H91 UNL     1     -42.883 -19.513  -1.723  1.00  0.00     0.174 HD
ENDBRANCH   7  27
TORSDOF 7
ENDMDL