MODEL 4
REMARK VINA RESULT: -7.406843121      2.536      6.942
REMARK  5 active torsions:
REMARK  status: ('A' for Active; 'I' for Inactive)
REMARK    1  A    between atoms: C2_2  and  C3_3
REMARK    2  A    between atoms: C2_2  and  N3_10
REMARK       I    between atoms: C3_3  and  N1_5
REMARK    3  A    between atoms: N1_5  and  N2_7
REMARK    4  A    between atoms: C4_15  and  N6_16
REMARK       I    between atoms: N6_16  and  C5_18
REMARK       I    between atoms: C5_18  and  N7_20
REMARK    5  A    between atoms: N7_20  and  N8_22
ROOT
HETATM    1  N3  UNL     1     -40.255 -21.514  -2.969  1.00  0.00    -0.247 N
HETATM    2  N4  UNL     1     -39.967 -20.216  -2.834  1.00  0.00    -0.237 N
ATOM      3  H4  UNL     1     -40.545 -19.540  -2.336  1.00  0.00     0.208 HD
HETATM    4  N5  UNL     1     -38.831 -19.932  -3.436  1.00  0.00    -0.268 N
ATOM      5  H5  UNL     1     -38.400 -19.008  -3.474  1.00  0.00     0.190 HD
HETATM    6  C4  UNL     1     -38.329 -21.041  -3.989  1.00  0.00     0.168 A
HETATM    7  C6  UNL     1     -39.241 -22.030  -3.684  1.00  0.00     0.180 A
HETATM    8  N9  UNL     1     -39.106 -23.372  -4.077  1.00  0.00    -0.077 NA
ENDROOT
BRANCH   1   9
HETATM    9  C2  UNL     1     -41.429 -22.198  -2.440  1.00  0.00     0.200 C
HETATM   10  C1  UNL     1     -42.137 -21.407  -1.366  1.00  0.00     0.044 C
BRANCH   9  11
HETATM   11  C3  UNL     1     -42.366 -22.621  -3.519  1.00  0.00     0.260 C
HETATM   12  O1  UNL     1     -43.142 -21.793  -4.071  1.00  0.00    -0.269 OA
HETATM   13  N1  UNL     1     -42.430 -23.965  -3.974  1.00  0.00    -0.275 N
ATOM     14  H1  UNL     1     -41.818 -24.665  -3.554  1.00  0.00     0.189 HD
BRANCH  13  15
HETATM   15  N2  UNL     1     -43.303 -24.341  -4.974  1.00  0.00    -0.343 N
ATOM     16  H22 UNL     1     -44.149 -24.849  -4.712  1.00  0.00     0.176 HD
ATOM     17  H21 UNL     1     -43.116 -24.121  -5.951  1.00  0.00     0.176 HD
ENDBRANCH  13  15
ENDBRANCH   9  11
ENDBRANCH   1   9
BRANCH   6  18
HETATM   18  N6  UNL     1     -37.132 -21.249  -4.740  1.00  0.00    -0.289 N
HETATM   19  C5  UNL     1     -35.853 -21.229  -4.150  1.00  0.00     0.340 C
HETATM   20  O2  UNL     1     -35.742 -21.024  -2.928  1.00  0.00    -0.245 OA
HETATM   21  N7  UNL     1     -34.709 -21.439  -4.934  1.00  0.00    -0.258 N
ATOM     22  H7  UNL     1     -34.807 -21.607  -5.935  1.00  0.00     0.191 HD
ATOM     23  H6  UNL     1     -37.206 -21.419  -5.743  1.00  0.00     0.172 HD
BRANCH  21  24
HETATM   24  N8  UNL     1     -33.435 -21.421  -4.357  1.00  0.00    -0.341 N
ATOM     25  H82 UNL     1     -33.179 -20.634  -3.762  1.00  0.00     0.177 HD
ATOM     26  H81 UNL     1     -32.775 -22.179  -4.528  1.00  0.00     0.177 HD
ENDBRANCH  21  24
ENDBRANCH   6  18
TORSDOF 5
ENDMDL