MODEL 4
REMARK VINA RESULT: -8.250210798      1.418      3.943
REMARK  0 active torsions:
REMARK  status: ('A' for Active; 'I' for Inactive)
ROOT
HETATM    1  C1  UNL     1     -17.734  -4.047  -3.848  1.00  0.00     0.013 A
HETATM    2  C2  UNL     1     -17.495  -3.942  -2.532  1.00  0.00     0.013 A
HETATM    3  C3  UNL     1     -17.148  -2.565  -2.199  1.00  0.00    -0.021 A
HETATM    4  C4  UNL     1     -16.808  -1.843  -1.066  1.00  0.00     0.029 A
HETATM    5  C5  UNL     1     -16.533  -0.496  -1.125  1.00  0.00     0.089 A
HETATM    6  N1  UNL     1     -16.596   0.147  -2.330  1.00  0.00    -0.365 N
ATOM      7  H1  UNL     1     -16.393   1.146  -2.385  1.00  0.00     0.165 HD
HETATM    8  C6  UNL     1     -16.930  -0.544  -3.464  1.00  0.00     0.043 A
HETATM    9  C7  UNL     1     -17.010   0.049  -4.707  1.00  0.00     0.030 A
HETATM   10  C8  UNL     1     -17.363  -0.760  -5.799  1.00  0.00     0.003 A
HETATM   11  C9  UNL     1     -17.625  -2.113  -5.659  1.00  0.00     0.012 A
HETATM   12  C10 UNL     1     -17.544  -2.700  -4.418  1.00  0.00    -0.023 A
HETATM   13  C11 UNL     1     -17.199  -1.887  -3.371  1.00  0.00     0.011 A
ENDROOT
TORSDOF 0
ENDMDL