MODEL 1
REMARK VINA RESULT: -7.532860014      0.000      0.000
REMARK  0 active torsions:
REMARK  status: ('A' for Active; 'I' for Inactive)
ROOT
HETATM    1  C1  UNL     1     -18.176  -1.528  -0.385  1.00  0.00     0.001 A
HETATM    2  C2  UNL     1     -16.938  -1.663  -0.982  1.00  0.00     0.001 A
HETATM    3  C3  UNL     1     -16.826  -1.679  -2.370  1.00  0.00     0.014 A
HETATM    4  C4  UNL     1     -17.948  -1.561  -3.183  1.00  0.00     0.003 A
HETATM    5  C5  UNL     1     -19.193  -1.425  -2.572  1.00  0.00    -0.011 A
HETATM    6  C6  UNL     1     -19.295  -1.410  -1.182  1.00  0.00     0.013 A
HETATM    7  C7  UNL     1     -19.767  -1.366  -3.905  1.00  0.00     0.003 A
HETATM    8  C8  UNL     1     -20.845  -1.253  -4.760  1.00  0.00     0.016 A
HETATM    9  C9  UNL     1     -20.706  -1.271  -6.130  1.00  0.00     0.018 A
HETATM   10  C10 UNL     1     -19.464  -1.406  -6.708  1.00  0.00     0.088 A
HETATM   11  N1  UNL     1     -18.406  -1.519  -5.865  1.00  0.00    -0.364 N
ATOM     12  H1  UNL     1     -17.474  -1.621  -6.264  1.00  0.00     0.165 HD
HETATM   13  C11 UNL     1     -18.533  -1.501  -4.517  1.00  0.00     0.054 A
ENDROOT
TORSDOF 0
ENDMDL