MODEL 4
REMARK VINA RESULT: -7.773942355      1.998      3.325
REMARK  0 active torsions:
REMARK  status: ('A' for Active; 'I' for Inactive)
ROOT
HETATM    1  C1  UNL     1     -20.892  -1.236  -6.041  1.00  0.00     0.019 C
HETATM    2  C2  UNL     1     -20.105  -1.697  -5.251  1.00  0.00    -0.059 C
HETATM    3  C3  UNL     1     -19.149  -2.236  -4.298  1.00  0.00     0.097 A
HETATM    4  N1  UNL     1     -19.101  -3.553  -4.022  1.00  0.00    -0.358 N
ATOM      5  H1  UNL     1     -19.748  -4.188  -4.489  1.00  0.00     0.166 HD
HETATM    6  C4  UNL     1     -18.214  -4.046  -3.138  1.00  0.00     0.090 A
HETATM    7  C5  UNL     1     -17.313  -3.247  -2.473  1.00  0.00     0.029 A
HETATM    8  C6  UNL     1     -17.329  -1.888  -2.728  1.00  0.00    -0.022 A
HETATM    9  C7  UNL     1     -16.440  -1.054  -2.079  1.00  0.00     0.012 A
HETATM   10  C8  UNL     1     -16.493   0.294  -2.365  1.00  0.00     0.001 A
HETATM   11  C9  UNL     1     -17.418   0.757  -3.277  1.00  0.00     0.001 A
HETATM   12  C10 UNL     1     -18.310  -0.073  -3.928  1.00  0.00     0.015 A
HETATM   13  C11 UNL     1     -18.261  -1.416  -3.647  1.00  0.00     0.010 A
ENDROOT
TORSDOF 0
ENDMDL