MODEL 1
REMARK VINA RESULT: -6.627215630      0.000      0.000
REMARK  0 active torsions:
REMARK  status: ('A' for Active; 'I' for Inactive)
ROOT
HETATM    1  C1  UNL     1     -16.457  -1.636  -0.445  1.00  0.00     0.229 C
HETATM    2  N1  UNL     1     -16.929  -1.624  -1.515  1.00  0.00    -0.429 NA
HETATM    3  C2  UNL     1     -17.488  -1.589  -2.783  1.00  0.00     0.106 A
HETATM    4  C3  UNL     1     -16.744  -1.856  -3.917  1.00  0.00     0.045 A
HETATM    5  C4  UNL     1     -17.307  -1.819  -5.176  1.00  0.00     0.015 A
HETATM    6  C5  UNL     1     -18.643  -1.513  -5.336  1.00  0.00    -0.026 A
HETATM    7  C6  UNL     1     -19.238  -1.469  -6.598  1.00  0.00     0.012 A
HETATM    8  C7  UNL     1     -20.553  -1.172  -6.796  1.00  0.00     0.001 A
HETATM    9  C8  UNL     1     -21.319  -0.900  -5.659  1.00  0.00     0.001 A
HETATM   10  C9  UNL     1     -20.745  -0.939  -4.407  1.00  0.00     0.012 A
HETATM   11  C10 UNL     1     -19.413  -1.243  -4.223  1.00  0.00    -0.023 A
HETATM   12  C11 UNL     1     -18.829  -1.284  -2.973  1.00  0.00     0.057 A
ENDROOT
TORSDOF 0
ENDMDL