MODEL 5
REMARK VINA RESULT: -6.198834454      2.319      2.864
REMARK  1 active torsions:
REMARK  status: ('A' for Active; 'I' for Inactive)
REMARK    1  A    between atoms: O1_1  and  N1_3
ROOT
HETATM    1  N1  UNL     1     -17.313  -3.149  -3.090  1.00  0.00    -0.228 N
HETATM    2  C1  UNL     1     -17.635  -3.624  -4.295  1.00  0.00     0.173 A
HETATM    3  S1  UNL     1     -17.580  -2.229  -5.278  1.00  0.00    -0.080 SA
HETATM    4  C2  UNL     1     -17.142  -1.093  -4.084  1.00  0.00     0.035 A
HETATM    5  C3  UNL     1     -16.895   0.295  -4.080  1.00  0.00     0.021 A
HETATM    6  C4  UNL     1     -16.553   0.918  -2.907  1.00  0.00     0.002 A
HETATM    7  C5  UNL     1     -16.470   0.134  -1.785  1.00  0.00     0.002 A
HETATM    8  C6  UNL     1     -16.708  -1.203  -1.779  1.00  0.00     0.033 A
HETATM    9  C7  UNL     1     -17.060  -1.869  -2.964  1.00  0.00     0.079 A
ENDROOT
BRANCH   1  10
HETATM   10  O1  UNL     1     -17.278  -4.110  -2.044  1.00  0.00    -0.282 OA
ATOM     11  H1  UNL     1     -18.119  -4.324  -1.658  1.00  0.00     0.245 HD
ENDBRANCH   1  10
TORSDOF 1
ENDMDL