MODEL 1
REMARK VINA RESULT: -7.477097926      0.000      0.000
REMARK  0 active torsions:
REMARK  status: ('A' for Active; 'I' for Inactive)
ROOT
HETATM    1  C1  UNL     1     -17.662  -1.597  -0.547  1.00  0.00     0.013 A
HETATM    2  C2  UNL     1     -16.522  -1.779  -1.197  1.00  0.00     0.013 A
HETATM    3  C3  UNL     1     -17.217  -1.699  -2.488  1.00  0.00    -0.024 A
HETATM    4  C4  UNL     1     -17.202  -1.726  -3.868  1.00  0.00     0.042 A
HETATM    5  C5  UNL     1     -18.354  -1.568  -4.627  1.00  0.00     0.043 A
HETATM    6  N1  UNL     1     -18.326  -1.597  -5.982  1.00  0.00    -0.365 N
ATOM      7  H1  UNL     1     -17.436  -1.739  -6.458  1.00  0.00     0.165 HD
HETATM    8  C6  UNL     1     -19.444  -1.443  -6.716  1.00  0.00     0.088 A
HETATM    9  C7  UNL     1     -20.647  -1.252  -6.096  1.00  0.00     0.018 A
HETATM   10  C8  UNL     1     -20.677  -1.222  -4.705  1.00  0.00     0.015 A
HETATM   11  C9  UNL     1     -19.532  -1.379  -3.949  1.00  0.00    -0.009 A
HETATM   12  C10 UNL     1     -19.549  -1.351  -2.564  1.00  0.00     0.026 A
HETATM   13  C11 UNL     1     -18.403  -1.509  -1.810  1.00  0.00    -0.025 A
ENDROOT
TORSDOF 0
ENDMDL