MODEL 3
REMARK VINA RESULT: -7.970850515      1.599      1.645
REMARK  0 active torsions:
REMARK  status: ('A' for Active; 'I' for Inactive)
ROOT
HETATM    1  O1  UNL     1     -19.624  -1.280  -7.255  1.00  0.00    -0.289 OA
HETATM    2  C1  UNL     1     -19.103  -1.563  -6.162  1.00  0.00     0.172 C
HETATM    3  C2  UNL     1     -17.745  -1.285  -5.995  1.00  0.00     0.055 C
HETATM    4  C3  UNL     1     -17.060  -1.144  -4.805  1.00  0.00     0.016 C
HETATM    5  C4  UNL     1     -17.551  -1.166  -3.516  1.00  0.00    -0.026 A
HETATM    6  C5  UNL     1     -16.666  -0.655  -2.579  1.00  0.00     0.012 A
HETATM    7  C6  UNL     1     -16.978  -0.593  -1.236  1.00  0.00     0.001 A
HETATM    8  C7  UNL     1     -18.198  -1.045  -0.775  1.00  0.00     0.001 A
HETATM    9  C8  UNL     1     -19.082  -1.555  -1.714  1.00  0.00     0.012 A
HETATM   10  C9  UNL     1     -18.773  -1.619  -3.060  1.00  0.00    -0.026 A
HETATM   11  C10 UNL     1     -19.779  -2.159  -3.839  1.00  0.00     0.016 C
HETATM   12  C11 UNL     1     -19.942  -2.130  -5.224  1.00  0.00     0.055 C
ENDROOT
TORSDOF 0
ENDMDL