MODEL 4
REMARK VINA RESULT: -7.088411812      1.802      2.951
REMARK  0 active torsions:
REMARK  status: ('A' for Active; 'I' for Inactive)
ROOT
HETATM    1  S1  UNL     1     -17.992  -4.491  -3.814  1.00  0.00    -0.059 SA
HETATM    2  C1  UNL     1     -17.628  -2.935  -4.123  1.00  0.00     0.111 A
HETATM    3  N1  UNL     1     -17.713  -2.489  -5.412  1.00  0.00    -0.356 N
ATOM      4  H1  UNL     1     -18.000  -3.138  -6.145  1.00  0.00     0.166 HD
HETATM    5  C2  UNL     1     -17.428  -1.224  -5.734  1.00  0.00     0.090 A
HETATM    6  C3  UNL     1     -17.044  -0.369  -4.734  1.00  0.00     0.029 A
HETATM    7  C4  UNL     1     -16.936  -0.747  -3.412  1.00  0.00    -0.022 A
HETATM    8  C5  UNL     1     -16.546   0.128  -2.410  1.00  0.00     0.012 A
HETATM    9  C6  UNL     1     -16.451  -0.285  -1.114  1.00  0.00     0.001 A
HETATM   10  C7  UNL     1     -16.756  -1.605  -0.830  1.00  0.00     0.001 A
HETATM   11  C8  UNL     1     -17.148  -2.506  -1.798  1.00  0.00     0.015 A
HETATM   12  C9  UNL     1     -17.240  -2.067  -3.122  1.00  0.00     0.012 A
ENDROOT
TORSDOF 0
ENDMDL