MODEL 5
REMARK VINA RESULT: -7.132530275      2.100      4.129
REMARK  1 active torsions:
REMARK  status: ('A' for Active; 'I' for Inactive)
REMARK    1  A    between atoms: O1_1  and  N1_3
ROOT
HETATM    1  N1  UNL     1     -16.988  -2.290  -1.750  1.00  0.00    -0.235 N
HETATM    2  C1  UNL     1     -17.301  -3.581  -1.923  1.00  0.00     0.123 A
HETATM    3  C2  UNL     1     -17.651  -4.057  -3.167  1.00  0.00     0.021 A
HETATM    4  C3  UNL     1     -17.679  -3.193  -4.243  1.00  0.00     0.015 A
HETATM    5  C4  UNL     1     -17.359  -1.852  -4.082  1.00  0.00    -0.007 A
HETATM    6  C5  UNL     1     -17.381  -0.970  -5.151  1.00  0.00     0.014 A
HETATM    7  C6  UNL     1     -17.062   0.355  -4.977  1.00  0.00     0.001 A
HETATM    8  C7  UNL     1     -16.720   0.768  -3.706  1.00  0.00     0.002 A
HETATM    9  C8  UNL     1     -16.695  -0.106  -2.639  1.00  0.00     0.033 A
HETATM   10  C9  UNL     1     -17.019  -1.453  -2.806  1.00  0.00     0.072 A
ENDROOT
BRANCH   1  11
HETATM   11  O1  UNL     1     -16.646  -1.870  -0.491  1.00  0.00    -0.283 OA
ATOM     12  H1  UNL     1     -17.003  -1.047  -0.181  1.00  0.00     0.245 HD
ENDBRANCH   1  11
TORSDOF 1
ENDMDL