MODEL 2
REMARK VINA RESULT: -8.301231817      2.640      3.792
REMARK  2 active torsions:
REMARK  status: ('A' for Active; 'I' for Inactive)
REMARK    1  A    between atoms: N1_1  and  N2_4
REMARK    2  A    between atoms: N3_6  and  C1_8
ROOT
HETATM    1  C1  UNL     1     -17.375   0.423  -2.417  1.00  0.00     0.060 A
HETATM    2  C2  UNL     1     -17.226  -0.032  -1.118  1.00  0.00     0.032 A
HETATM    3  C3  UNL     1     -16.991  -1.373  -0.902  1.00  0.00     0.003 A
HETATM    4  C4  UNL     1     -16.907  -2.240  -1.968  1.00  0.00     0.012 A
HETATM    5  C5  UNL     1     -17.053  -1.809  -3.279  1.00  0.00    -0.024 A
HETATM    6  C6  UNL     1     -16.973  -2.653  -4.348  1.00  0.00     0.012 A
HETATM    7  C7  UNL     1     -17.127  -2.160  -5.623  1.00  0.00     0.001 A
HETATM    8  C8  UNL     1     -17.363  -0.827  -5.882  1.00  0.00     0.001 A
HETATM    9  C9  UNL     1     -17.441   0.016  -4.778  1.00  0.00     0.014 A
HETATM   10  C10 UNL     1     -17.288  -0.463  -3.487  1.00  0.00     0.002 A
ENDROOT
BRANCH   1  11
HETATM   11  N3  UNL     1     -17.622   1.801  -2.706  1.00  0.00    -0.286 N
HETATM   12  N2  UNL     1     -18.812   2.237  -2.729  1.00  0.00    -0.249 N
ATOM     13  H2  UNL     1     -18.994   3.220  -2.934  1.00  0.00     0.207 HD
ATOM     14  H3  UNL     1     -16.842   2.432  -2.892  1.00  0.00     0.188 HD
BRANCH  12  15
HETATM   15  N1  UNL     1     -19.887   1.355  -2.469  1.00  0.00    -0.331 N
ATOM     16  H12 UNL     1     -20.838   1.722  -2.449  1.00  0.00     0.178 HD
ATOM     17  H11 UNL     1     -19.700   0.366  -2.306  1.00  0.00     0.178 HD
ENDBRANCH  12  15
ENDBRANCH   1  11
TORSDOF 2
ENDMDL