MODEL 5
REMARK VINA RESULT: -6.618679675      2.714      4.163
REMARK  5 active torsions:
REMARK  status: ('A' for Active; 'I' for Inactive)
REMARK    1  A    between atoms: N1_2  and  C2_3
REMARK    2  A    between atoms: N1_2  and  C14_19
REMARK    3  A    between atoms: C2_3  and  C3_4
REMARK    4  A    between atoms: C3_4  and  N2_5
REMARK       I    between atoms: N2_5  and  C4_7
REMARK    5  A    between atoms: C4_7  and  C5_9
ROOT
HETATM    1  N2  UNL     1     -21.828 -44.498  27.906  1.00  0.00    -0.359 N
ATOM      2  H2  UNL     1     -21.182 -44.332  28.677  1.00  0.00     0.162 HD
HETATM    3  C4  UNL     1     -22.494 -45.739  27.878  1.00  0.00     0.221 C
HETATM    4  O1  UNL     1     -23.300 -45.983  26.949  1.00  0.00    -0.273 OA
ENDROOT
BRANCH   3   5
HETATM    5  C5  UNL     1     -22.276 -46.784  28.929  1.00  0.00     0.078 C
HETATM    6  C6  UNL     1     -23.324 -47.867  28.800  1.00  0.00     0.015 C
HETATM    7  C7  UNL     1     -22.803 -49.077  29.541  1.00  0.00     0.012 C
HETATM    8  C8  UNL     1     -21.669 -49.649  28.761  1.00  0.00    -0.017 C
HETATM    9  C9  UNL     1     -21.046 -50.862  29.417  1.00  0.00     0.038 C
HETATM   10  C11 UNL     1     -22.229 -50.269  27.494  1.00  0.00     0.177 C
HETATM   11  C12 UNL     1     -20.641 -48.628  28.356  1.00  0.00     0.012 C
HETATM   12  C10 UNL     1     -20.883 -51.793  28.240  1.00  0.00     0.168 C
HETATM   13  O2  UNL     1     -21.125 -51.047  27.088  1.00  0.00    -0.390 OA
HETATM   14  C13 UNL     1     -20.873 -47.277  28.946  1.00  0.00     0.015 C
ENDBRANCH   3   5
BRANCH   1  15
HETATM   15  C3  UNL     1     -21.981 -43.440  26.934  1.00  0.00     0.142 C
BRANCH  15  16
HETATM   16  C2  UNL     1     -20.759 -43.177  26.129  1.00  0.00     0.138 C
BRANCH  16  17
HETATM   17  N1  UNL     1     -20.976 -43.048  24.732  1.00  0.00    -0.395 N
HETATM   18  C1  UNL     1     -20.792 -41.764  24.164  1.00  0.00     0.145 C
BRANCH  17  19
HETATM   19  C14 UNL     1     -20.613 -44.157  23.917  1.00  0.00     0.098 C
HETATM   20  C15 UNL     1     -19.948 -43.737  22.638  1.00  0.00     0.056 C
HETATM   21  C16 UNL     1     -21.755 -45.076  23.570  1.00  0.00     0.056 C
HETATM   22 CL1  UNL     1     -19.429 -45.140  24.837  1.00  0.00    -0.097 Cl
ENDBRANCH  17  19
ENDBRANCH  16  17
ENDBRANCH  15  16
ENDBRANCH   1  15
TORSDOF 5
ENDMDL