MODEL 2
REMARK VINA RESULT: -7.967699052      4.228      7.850
REMARK  4 active torsions:
REMARK  status: ('A' for Active; 'I' for Inactive)
REMARK       I    between atoms: C1_2  and  N1_3
REMARK    1  A    between atoms: C1_2  and  C11_19
REMARK    2  A    between atoms: N1_3  and  S1_5
REMARK    3  A    between atoms: S1_5  and  N2_8
REMARK    4  A    between atoms: C4_11  and  C5_13
ROOT
HETATM    1  S1  UNL     1     -20.798 -44.110  21.281  1.00  0.00     0.305 S
HETATM    2  O2  UNL     1     -21.351 -43.583  19.964  1.00  0.00    -0.188 OA
HETATM    3  O3  UNL     1     -19.351 -44.404  21.036  1.00  0.00    -0.188 OA
ENDROOT
BRANCH   1   4
HETATM    4  N1  UNL     1     -21.023 -42.908  22.475  1.00  0.00    -0.241 N
HETATM    5  C1  UNL     1     -20.306 -41.680  22.471  1.00  0.00     0.236 C
HETATM    6  O1  UNL     1     -19.465 -41.449  21.558  1.00  0.00    -0.272 OA
ATOM      7  H1  UNL     1     -21.698 -43.078  23.220  1.00  0.00     0.182 HD
BRANCH   5   8
HETATM    8  C11 UNL     1     -20.517 -40.666  23.497  1.00  0.00     0.079 C
HETATM    9  C12 UNL     1     -21.499 -39.596  22.989  1.00  0.00     0.014 C
HETATM   10  C13 UNL     1     -21.823 -38.805  24.243  1.00  0.00     0.001 C
HETATM   11  C14 UNL     1     -21.508 -39.743  25.402  1.00  0.00     0.001 C
HETATM   12  C15 UNL     1     -21.195 -41.109  24.749  1.00  0.00     0.014 C
ENDBRANCH   5   8
ENDBRANCH   1   4
BRANCH   1  13
HETATM   13  N2  UNL     1     -21.641 -45.535  21.748  1.00  0.00    -0.190 NA
HETATM   14  C2  UNL     1     -20.733 -46.639  21.893  1.00  0.00     0.112 C
HETATM   15  C3  UNL     1     -21.097 -47.288  23.211  1.00  0.00     0.060 C
HETATM   16  C4  UNL     1     -21.458 -46.068  24.047  1.00  0.00     0.121 C
HETATM   17  F1  UNL     1     -20.290 -45.406  24.346  1.00  0.00    -0.241 F
HETATM   18  C10 UNL     1     -22.301 -45.324  23.027  1.00  0.00     0.152 C
BRANCH  16  19
HETATM   19  C5  UNL     1     -22.222 -46.505  25.252  1.00  0.00     0.026 C
HETATM   20  C6  UNL     1     -22.594 -45.362  26.155  1.00  0.00     0.008 C
HETATM   21  C7  UNL     1     -22.731 -46.044  27.511  1.00  0.00     0.001 C
HETATM   22  C8  UNL     1     -21.534 -46.946  27.543  1.00  0.00     0.001 C
HETATM   23  C9  UNL     1     -21.328 -47.399  26.090  1.00  0.00     0.008 C
ENDBRANCH  16  19
ENDBRANCH   1  13
TORSDOF 4
ENDMDL