MODEL 4
REMARK VINA RESULT: -6.992408832      1.216      1.596
REMARK  6 active torsions:
REMARK  status: ('A' for Active; 'I' for Inactive)
REMARK    1  A    between atoms: N1_2  and  C3_4
REMARK    2  A    between atoms: C3_4  and  C4_5
REMARK    3  A    between atoms: C4_5  and  C5_6
REMARK       I    between atoms: C5_6  and  N2_8
REMARK    4  A    between atoms: N2_8  and  C6_10
REMARK       I    between atoms: N3_13  and  C9_14
REMARK    5  A    between atoms: C9_14  and  C10_16
REMARK    6  A    between atoms: C15_21  and  C16_22
ROOT
HETATM    1  C6  UNL     1     -21.434 -43.884  26.241  1.00  0.00     0.092 C
HETATM    2  C7  UNL     1     -21.267 -42.782  27.276  1.00  0.00     0.045 C
HETATM    3  C8  UNL     1     -21.656 -41.500  26.624  1.00  0.00     0.128 C
HETATM    4  N3  UNL     1     -21.307 -41.360  25.225  1.00  0.00    -0.351 N
HETATM    5  C9  UNL     1     -21.469 -40.038  24.634  1.00  0.00     0.227 C
HETATM    6  O2  UNL     1     -21.911 -39.090  25.369  1.00  0.00    -0.273 OA
HETATM    7  C14 UNL     1     -20.836 -42.434  24.398  1.00  0.00     0.133 C
HETATM    8  C15 UNL     1     -20.356 -43.592  25.234  1.00  0.00     0.040 C
ENDROOT
BRANCH   1   9
HETATM    9  N2  UNL     1     -21.396 -45.192  26.794  1.00  0.00    -0.356 N
HETATM   10  C5  UNL     1     -22.474 -45.928  27.312  1.00  0.00     0.219 C
HETATM   11  O1  UNL     1     -23.630 -45.411  27.310  1.00  0.00    -0.274 OA
ATOM     12  H2  UNL     1     -20.485 -45.648  26.816  1.00  0.00     0.162 HD
BRANCH  10  13
HETATM   13  C4  UNL     1     -22.291 -47.293  27.862  1.00  0.00     0.133 C
BRANCH  13  14
HETATM   14  C3  UNL     1     -20.986 -47.339  28.625  1.00  0.00     0.280 C
BRANCH  14  15
HETATM   15  N1  UNL     1     -20.553 -48.678  28.899  1.00  0.00     0.080 N
HETATM   16  C1  UNL     1     -21.538 -49.514  29.526  1.00  0.00     0.309 C
HETATM   17  C2  UNL     1     -19.281 -48.695  29.555  1.00  0.00     0.309 C
ENDBRANCH  14  15
ENDBRANCH  13  14
ENDBRANCH  10  13
ENDBRANCH   1   9
BRANCH   8  18
HETATM   18  C16 UNL     1     -19.992 -44.794  24.404  1.00  0.00     0.123 C
HETATM   19 CL1  UNL     1     -19.615 -44.298  22.739  1.00  0.00    -0.130 Cl
ENDBRANCH   8  18
BRANCH   5  20
HETATM   20  C10 UNL     1     -21.154 -39.730  23.236  1.00  0.00     0.030 C
HETATM   21  C11 UNL     1     -19.700 -39.223  23.179  1.00  0.00     0.025 C
HETATM   22  C12 UNL     1     -21.163 -40.951  22.329  1.00  0.00     0.025 C
HETATM   23  C13 UNL     1     -22.000 -38.603  22.720  1.00  0.00     0.025 C
ENDBRANCH   5  20
TORSDOF 6
ENDMDL