MODEL 5
REMARK VINA RESULT: -6.863599909      2.161      7.655
REMARK  5 active torsions:
REMARK  status: ('A' for Active; 'I' for Inactive)
REMARK    1  A    between atoms: C2_2  and  N1_4
REMARK    2  A    between atoms: N1_4  and  C5_6
REMARK    3  A    between atoms: C5_6  and  C6_7
REMARK       I    between atoms: C6_7  and  N2_9
REMARK    4  A    between atoms: C9_12  and  N3_14
REMARK       I    between atoms: N3_14  and  C11_16
REMARK    5  A    between atoms: C11_16  and  C12_18
ROOT
HETATM    1  C6  UNL     1     -21.047 -48.168  24.397  1.00  0.00     0.248 C
HETATM    2  O1  UNL     1     -21.890 -48.809  23.723  1.00  0.00    -0.271 OA
HETATM    3  N2  UNL     1     -20.618 -46.884  24.011  1.00  0.00    -0.348 N
HETATM    4  C7  UNL     1     -21.176 -46.292  22.798  1.00  0.00     0.128 C
HETATM    5  C8  UNL     1     -21.974 -45.099  23.288  1.00  0.00     0.053 C
HETATM    6  C9  UNL     1     -21.104 -44.118  23.978  1.00  0.00     0.063 C
HETATM    7  C10 UNL     1     -21.878 -43.591  25.194  1.00  0.00     0.041 C
HETATM    8  C16 UNL     1     -19.793 -44.618  24.481  1.00  0.00     0.215 C
HETATM    9  F1  UNL     1     -19.460 -43.926  25.643  1.00  0.00    -0.245 F
HETATM   10  C17 UNL     1     -19.662 -46.073  24.713  1.00  0.00     0.165 C
ENDROOT
BRANCH   6  11
HETATM   11  N3  UNL     1     -20.944 -42.944  23.117  1.00  0.00    -0.349 N
HETATM   12  C11 UNL     1     -20.791 -41.639  23.657  1.00  0.00     0.226 C
HETATM   13  O2  UNL     1     -20.781 -41.416  24.893  1.00  0.00    -0.273 OA
ATOM     14  H3  UNL     1     -20.944 -43.066  22.104  1.00  0.00     0.163 HD
BRANCH  12  15
HETATM   15  C12 UNL     1     -20.633 -40.468  22.752  1.00  0.00     0.030 C
HETATM   16  C13 UNL     1     -19.209 -40.329  22.269  1.00  0.00     0.024 C
HETATM   17  C14 UNL     1     -21.042 -39.228  23.529  1.00  0.00     0.024 C
HETATM   18  C15 UNL     1     -21.517 -40.561  21.536  1.00  0.00     0.024 C
ENDBRANCH  12  15
ENDBRANCH   6  11
BRANCH   1  19
HETATM   19  C5  UNL     1     -20.503 -48.787  25.615  1.00  0.00     0.374 C
BRANCH  19  20
HETATM   20  N1  UNL     1     -21.422 -48.816  26.707  1.00  0.00     0.096 N
HETATM   21  C4  UNL     1     -21.544 -50.077  27.366  1.00  0.00     0.310 C
BRANCH  20  22
HETATM   22  C2  UNL     1     -21.130 -47.732  27.603  1.00  0.00     0.215 C
HETATM   23  C1  UNL     1     -22.277 -46.744  27.569  1.00  0.00     0.042 C
HETATM   24  C3  UNL     1     -20.920 -48.168  29.019  1.00  0.00     0.042 C
ENDBRANCH  20  22
ENDBRANCH  19  20
ENDBRANCH   1  19
TORSDOF 5
ENDMDL