MODEL 3
REMARK VINA RESULT: -7.003431459      1.929      4.921
REMARK  4 active torsions:
REMARK  status: ('A' for Active; 'I' for Inactive)
REMARK    1  A    between atoms: C2_2  and  C4_4
REMARK    2  A    between atoms: C4_4  and  N1_5
REMARK       I    between atoms: N1_5  and  C5_7
REMARK    3  A    between atoms: C5_7  and  C6_9
REMARK    4  A    between atoms: N3_15  and  C11_16
ROOT
HETATM    1  C6  UNL     1     -22.629 -45.476  26.316  1.00  0.00     0.342 C
HETATM    2  C7  UNL     1     -22.796 -46.364  27.497  1.00  0.00     0.317 C
HETATM    3  N2  UNL     1     -21.536 -46.810  28.063  1.00  0.00     0.088 N
HETATM    4  C8  UNL     1     -21.845 -47.683  29.173  1.00  0.00     0.310 C
HETATM    5  C9  UNL     1     -20.792 -47.583  27.082  1.00  0.00     0.302 C
HETATM    6  C10 UNL     1     -21.264 -47.265  25.680  1.00  0.00     0.304 C
HETATM    7  N3  UNL     1     -21.416 -45.833  25.561  1.00  0.00     0.111 N
ENDROOT
BRANCH   1   8
HETATM    8  C5  UNL     1     -22.593 -44.048  26.739  1.00  0.00     0.253 C
HETATM    9  N1  UNL     1     -21.436 -43.252  26.629  1.00  0.00    -0.359 N
ATOM     10  H1  UNL     1     -20.588 -43.668  26.243  1.00  0.00     0.162 HD
HETATM   11  O1  UNL     1     -23.646 -43.558  27.210  1.00  0.00    -0.271 OA
BRANCH   9  12
HETATM   12  C4  UNL     1     -21.407 -41.858  27.045  1.00  0.00     0.126 C
BRANCH  12  13
HETATM   13  C2  UNL     1     -21.804 -40.962  25.923  1.00  0.00    -0.005 C
HETATM   14  C1  UNL     1     -21.050 -41.425  24.669  1.00  0.00     0.011 C
HETATM   15  C3  UNL     1     -21.375 -39.563  26.246  1.00  0.00     0.011 C
ENDBRANCH  12  13
ENDBRANCH   9  12
ENDBRANCH   1   8
BRANCH   7  16
HETATM   16  C11 UNL     1     -21.559 -45.410  24.183  1.00  0.00     0.242 C
HETATM   17  C12 UNL     1     -22.209 -46.377  23.266  1.00  0.00     0.038 C
HETATM   18  C13 UNL     1     -22.114 -45.848  21.845  1.00  0.00     0.006 C
HETATM   19  C14 UNL     1     -20.736 -45.542  21.381  1.00  0.00    -0.017 C
HETATM   20  C15 UNL     1     -20.337 -46.351  20.153  1.00  0.00     0.010 C
HETATM   21  C16 UNL     1     -19.753 -45.752  22.491  1.00  0.00     0.026 C
HETATM   22  C17 UNL     1     -20.255 -44.907  23.662  1.00  0.00     0.116 C
HETATM   23 CL1  UNL     1     -18.980 -44.865  24.884  1.00  0.00    -0.123 Cl
ENDBRANCH   7  16
TORSDOF 4
ENDMDL