MODEL 5
REMARK VINA RESULT: -6.803834179      2.498      3.292
REMARK  8 active torsions:
REMARK  status: ('A' for Active; 'I' for Inactive)
REMARK    1  A    between atoms: C2_2  and  C3_4
REMARK    2  A    between atoms: C4_5  and  C5_6
REMARK    3  A    between atoms: C5_6  and  S1_9
REMARK    4  A    between atoms: S1_9  and  C8_12
REMARK    5  A    between atoms: C8_12  and  C9_13
REMARK    6  A    between atoms: C9_13  and  C10_14
REMARK    7  A    between atoms: C10_14  and  N1_15
REMARK    8  A    between atoms: N1_15  and  C11_17
ROOT
HETATM    1  C8  UNL     1     -20.938 -43.803  26.264  1.00  0.00     0.108 C
ENDROOT
BRANCH   1   2
HETATM    2  S1  UNL     1     -20.608 -44.581  24.786  1.00  0.00     0.184 S
HETATM    3  O1  UNL     1     -21.545 -45.829  24.729  1.00  0.00    -0.222 OA
HETATM    4  O2  UNL     1     -19.221 -45.288  24.893  1.00  0.00    -0.222 OA
BRANCH   2   5
HETATM    5  C5  UNL     1     -20.737 -43.810  23.245  1.00  0.00     0.123 C
HETATM    6  C6  UNL     1     -19.460 -43.942  22.393  1.00  0.00     0.046 C
HETATM    7  C7  UNL     1     -21.896 -44.196  22.402  1.00  0.00     0.046 C
BRANCH   5   8
HETATM    8  C4  UNL     1     -20.807 -42.317  23.560  1.00  0.00    -0.079 C
HETATM    9  C3  UNL     1     -20.880 -41.148  23.821  1.00  0.00    -0.085 C
BRANCH   9  10
HETATM   10  C2  UNL     1     -20.993 -39.727  24.143  1.00  0.00     0.157 C
HETATM   11  C1  UNL     1     -21.629 -39.527  25.515  1.00  0.00     0.040 C
HETATM   12 CL1  UNL     1     -22.039 -39.003  22.901  1.00  0.00    -0.112 Cl
ENDBRANCH   9  10
ENDBRANCH   5   8
ENDBRANCH   2   5
ENDBRANCH   1   2
BRANCH   1  13
HETATM   13  C9  UNL     1     -22.234 -43.524  26.846  1.00  0.00     0.004 C
BRANCH  13  14
HETATM   14  C10 UNL     1     -22.825 -44.380  27.905  1.00  0.00     0.149 C
BRANCH  14  15
HETATM   15  N1  UNL     1     -23.053 -45.749  27.407  1.00  0.00    -0.373 N
ATOM     16  H1  UNL     1     -23.567 -45.877  26.535  1.00  0.00     0.161 HD
BRANCH  15  17
HETATM   17  C11 UNL     1     -22.632 -46.774  28.028  1.00  0.00     0.100 A
HETATM   18  C12 UNL     1     -21.298 -47.122  28.165  1.00  0.00     0.048 A
HETATM   19  C13 UNL     1     -20.925 -48.256  28.857  1.00  0.00     0.005 A
HETATM   20  C14 UNL     1     -21.874 -49.054  29.419  1.00  0.00     0.017 A
HETATM   21  C15 UNL     1     -23.214 -48.701  29.279  1.00  0.00     0.089 A
HETATM   22  N2  UNL     1     -23.544 -47.583  28.595  1.00  0.00    -0.353 N
ATOM     23  H2  UNL     1     -24.531 -47.343  28.505  1.00  0.00     0.166 HD
ENDBRANCH  15  17
ENDBRANCH  14  15
ENDBRANCH  13  14
ENDBRANCH   1  13
TORSDOF 8
ENDMDL