MODEL 5
REMARK VINA RESULT: -6.982507179      2.058      2.554
REMARK  5 active torsions:
REMARK  status: ('A' for Active; 'I' for Inactive)
REMARK    1  A    between atoms: C2_2  and  C3_4
REMARK    2  A    between atoms: C3_4  and  N1_5
REMARK    3  A    between atoms: C3_4  and  C4_9
REMARK    4  A    between atoms: C4_9  and  N2_10
REMARK       I    between atoms: N3_12  and  C6_13
REMARK    5  A    between atoms: C6_13  and  C7_15
ROOT
HETATM    1  N2  UNL     1     -20.325 -45.851  24.399  1.00  0.00     0.118 N
HETATM    2  C5  UNL     1     -19.790 -44.631  24.958  1.00  0.00     0.401 C
HETATM    3  N3  UNL     1     -20.567 -43.475  24.622  1.00  0.00    -0.326 N
HETATM    4  C6  UNL     1     -20.750 -42.473  25.578  1.00  0.00     0.225 C
HETATM    5  O1  UNL     1     -20.222 -42.604  26.723  1.00  0.00    -0.273 OA
HETATM    6  C11 UNL     1     -21.146 -43.345  23.315  1.00  0.00     0.130 C
HETATM    7  C12 UNL     1     -21.605 -44.631  22.698  1.00  0.00     0.061 C
HETATM    8  C13 UNL     1     -20.613 -45.712  22.986  1.00  0.00     0.163 C
HETATM    9  C14 UNL     1     -19.354 -45.497  22.177  1.00  0.00     0.042 C
HETATM   10  C15 UNL     1     -19.518 -46.219  20.876  1.00  0.00     0.003 C
HETATM   11  C16 UNL     1     -20.850 -46.894  20.905  1.00  0.00     0.003 C
HETATM   12  C17 UNL     1     -21.151 -47.000  22.399  1.00  0.00     0.042 C
ENDROOT
BRANCH   1  13
HETATM   13  C4  UNL     1     -21.550 -46.164  25.102  1.00  0.00     0.314 C
BRANCH  13  14
HETATM   14  C3  UNL     1     -21.413 -47.206  26.156  1.00  0.00     0.255 C
BRANCH  14  15
HETATM   15  C2  UNL     1     -21.593 -46.631  27.543  1.00  0.00     0.034 C
HETATM   16  C1  UNL     1     -22.214 -45.483  27.752  1.00  0.00     0.034 C
HETATM   17 CL1  UNL     1     -20.970 -47.494  28.946  1.00  0.00    -0.088 Cl
ENDBRANCH  14  15
BRANCH  14  18
HETATM   18  N1  UNL     1     -20.025 -47.694  26.088  1.00  0.00    -0.069 N
ATOM     19  H13 UNL     1     -19.756 -48.019  25.159  1.00  0.00     0.275 HD
ATOM     20  H12 UNL     1     -19.331 -46.951  26.168  1.00  0.00     0.275 HD
ATOM     21  H11 UNL     1     -19.938 -48.409  26.808  1.00  0.00     0.275 HD
ENDBRANCH  14  18
ENDBRANCH  13  14
ENDBRANCH   1  13
BRANCH   4  22
HETATM   22  C7  UNL     1     -21.557 -41.289  25.217  1.00  0.00     0.078 C
HETATM   23  C8  UNL     1     -21.526 -40.156  26.250  1.00  0.00     0.014 C
HETATM   24  C9  UNL     1     -21.655 -39.221  25.038  1.00  0.00     0.002 C
HETATM   25  C10 UNL     1     -20.916 -40.313  24.253  1.00  0.00     0.014 C
ENDBRANCH   4  22
TORSDOF 5
ENDMDL