MODEL 3
REMARK VINA RESULT: -6.291123230      4.114      6.720
REMARK  4 active torsions:
REMARK  status: ('A' for Active; 'I' for Inactive)
REMARK    1  A    between atoms: S1_2  and  N1_5
REMARK    2  A    between atoms: N1_5  and  C2_7
REMARK    3  A    between atoms: C2_7  and  C3_8
REMARK    4  A    between atoms: N2_9  and  C4_11
ROOT
HETATM    1  C4  UNL     1     -22.150 -47.888  28.111  1.00  0.00     0.035 C
HETATM    2  C5  UNL     1     -23.123 -48.683  28.956  1.00  0.00     0.036 C
HETATM    3  C6  UNL     1     -22.374 -50.022  29.026  1.00  0.00    -0.010 C
HETATM    4  C7  UNL     1     -22.163 -50.246  27.522  1.00  0.00     0.012 C
HETATM    5  C8  UNL     1     -21.580 -48.874  27.154  1.00  0.00     0.015 C
HETATM    6  C9  UNL     1     -20.100 -48.989  27.545  1.00  0.00     0.028 C
HETATM    7  C10 UNL     1     -20.219 -48.793  29.059  1.00  0.00     0.021 C
HETATM    8 BR1  UNL     1     -18.505 -48.596  29.858  1.00  0.00    -0.085 Br
HETATM    9  C11 UNL     1     -21.051 -49.851  29.696  1.00  0.00     0.026 C
HETATM   10  C12 UNL     1     -21.022 -47.484  29.067  1.00  0.00     0.052 C
ENDROOT
BRANCH   1  11
HETATM   11  N2  UNL     1     -22.709 -46.737  27.535  1.00  0.00    -0.391 N
HETATM   12  C3  UNL     1     -22.477 -45.527  27.891  1.00  0.00     0.076 C
ATOM     13  H2  UNL     1     -23.361 -46.874  26.762  1.00  0.00     0.159 HD
BRANCH  12  14
HETATM   14  C2  UNL     1     -23.166 -44.437  27.158  1.00  0.00     0.176 C
BRANCH  14  15
HETATM   15  N1  UNL     1     -22.544 -43.168  27.535  1.00  0.00    -0.315 N
ATOM     16  H1  UNL     1     -22.683 -42.691  28.426  1.00  0.00     0.172 HD
BRANCH  15  17
HETATM   17  S1  UNL     1     -21.536 -42.597  26.247  1.00  0.00     0.223 S
HETATM   18  C1  UNL     1     -21.772 -40.862  25.973  1.00  0.00     0.185 C
HETATM   19  O1  UNL     1     -20.109 -42.820  26.654  1.00  0.00    -0.206 OA
HETATM   20  O2  UNL     1     -21.827 -43.363  24.974  1.00  0.00    -0.206 OA
ENDBRANCH  15  17
ENDBRANCH  14  15
ENDBRANCH  12  14
ENDBRANCH   1  11
TORSDOF 4
ENDMDL