MODEL 5
REMARK VINA RESULT: -7.163727119      2.635      3.499
REMARK  6 active torsions:
REMARK  status: ('A' for Active; 'I' for Inactive)
REMARK    1  A    between atoms: C4_4  and  C5_5
REMARK       I    between atoms: C5_5  and  N1_7
REMARK    2  A    between atoms: N1_7  and  N2_9
REMARK    3  A    between atoms: N3_17  and  C13_18
REMARK    4  A    between atoms: C13_18  and  C14_19
REMARK    5  A    between atoms: C15_20  and  C16_21
REMARK    6  A    between atoms: C16_21  and  C17_22
ROOT
HETATM    1  C1  UNL     1     -22.506 -45.321  21.899  1.00  0.00     0.032 C
HETATM    2  C2  UNL     1     -21.705 -44.802  23.102  1.00  0.00     0.081 C
HETATM    3  C3  UNL     1     -21.695 -45.846  24.133  1.00  0.00     0.039 C
HETATM    4  C4  UNL     1     -20.437 -46.680  24.171  1.00  0.00     0.086 C
HETATM    5  C11 UNL     1     -19.235 -45.753  24.127  1.00  0.00     0.058 C
HETATM    6  C12 UNL     1     -19.281 -44.992  22.826  1.00  0.00     0.060 C
HETATM    7  N3  UNL     1     -20.465 -44.264  22.706  1.00  0.00    -0.379 N
ENDROOT
BRANCH   4   8
HETATM    8  C5  UNL     1     -20.395 -47.407  25.464  1.00  0.00     0.240 C
HETATM    9  O1  UNL     1     -19.229 -47.560  25.984  1.00  0.00    -0.271 OA
HETATM   10  N1  UNL     1     -21.546 -47.916  26.122  1.00  0.00    -0.272 N
ATOM     11  H1  UNL     1     -22.436 -47.763  25.649  1.00  0.00     0.189 HD
BRANCH  10  12
HETATM   12  N2  UNL     1     -21.607 -48.582  27.306  1.00  0.00    -0.325 N
HETATM   13  C6  UNL     1     -22.614 -48.121  28.181  1.00  0.00     0.142 C
HETATM   14  C7  UNL     1     -22.619 -48.753  29.554  1.00  0.00     0.021 C
HETATM   15  C8  UNL     1     -21.699 -49.918  29.701  1.00  0.00     0.003 C
HETATM   16  C9  UNL     1     -21.756 -50.750  28.457  1.00  0.00     0.021 C
HETATM   17  C10 UNL     1     -21.399 -49.983  27.207  1.00  0.00     0.142 C
ENDBRANCH  10  12
ENDBRANCH   4   8
BRANCH   7  18
HETATM   18  C13 UNL     1     -20.416 -42.863  22.546  1.00  0.00     0.216 C
BRANCH  18  19
HETATM   19  C14 UNL     1     -20.774 -42.154  23.775  1.00  0.00    -0.087 C
HETATM   20  C15 UNL     1     -21.075 -41.616  24.807  1.00  0.00    -0.104 C
BRANCH  20  21
HETATM   21  C16 UNL     1     -21.456 -41.010  26.096  1.00  0.00     0.109 C
BRANCH  21  22
HETATM   22  C17 UNL     1     -21.495 -39.511  26.057  1.00  0.00     0.126 C
HETATM   23 CL1  UNL     1     -21.933 -38.884  24.467  1.00  0.00    -0.130 Cl
ENDBRANCH  21  22
ENDBRANCH  20  21
ENDBRANCH  18  19
ENDBRANCH   7  18
TORSDOF 6
ENDMDL