MODEL 3
REMARK VINA RESULT: -5.966386413      3.165      6.218
REMARK  4 active torsions:
REMARK  status: ('A' for Active; 'I' for Inactive)
REMARK    1  A    between atoms: C2_2  and  C6_7
REMARK    2  A    between atoms: C3_3  and  N1_4
REMARK    3  A    between atoms: C6_7  and  N2_8
REMARK       I    between atoms: N4_15  and  C10_17
REMARK    4  A    between atoms: C10_17  and  C11_19
ROOT
HETATM    1  N2  UNL     1     -20.124 -47.399  24.884  1.00  0.00    -0.272 N
HETATM    2  N3  UNL     1     -19.533 -48.429  25.449  1.00  0.00    -0.306 N
ATOM      3  H3  UNL     1     -18.904 -49.069  24.964  1.00  0.00     0.186 HD
HETATM    4  C7  UNL     1     -19.861 -48.528  26.738  1.00  0.00     0.130 A
HETATM    5  C8  UNL     1     -20.725 -47.465  26.968  1.00  0.00     0.073 A
HETATM    6 BR1  UNL     1     -21.515 -47.117  28.661  1.00  0.00    -0.045 Br
HETATM    7  C9  UNL     1     -20.889 -46.749  25.781  1.00  0.00     0.144 A
HETATM    8  N4  UNL     1     -21.609 -45.704  25.606  1.00  0.00    -0.310 N
ATOM      9  H4  UNL     1     -21.608 -45.306  24.666  1.00  0.00     0.170 HD
HETATM   10  C10 UNL     1     -22.397 -45.047  26.558  1.00  0.00     0.226 C
HETATM   11  O1  UNL     1     -23.560 -45.445  26.892  1.00  0.00    -0.273 OA
ENDROOT
BRANCH   1  12
HETATM   12  C6  UNL     1     -19.939 -47.066  23.486  1.00  0.00     0.186 C
BRANCH  12  13
HETATM   13  C2  UNL     1     -19.114 -45.882  23.247  1.00  0.00    -0.049 C
HETATM   14  C1  UNL     1     -17.755 -45.727  23.882  1.00  0.00     0.046 C
HETATM   15  C3  UNL     1     -19.511 -44.919  22.458  1.00  0.00     0.088 C
BRANCH  15  16
HETATM   16  N1  UNL     1     -20.758 -44.862  21.759  1.00  0.00    -0.398 N
HETATM   17  C4  UNL     1     -20.840 -45.464  20.449  1.00  0.00     0.148 C
HETATM   18  C5  UNL     1     -21.857 -44.190  22.394  1.00  0.00     0.148 C
ENDBRANCH  15  16
ENDBRANCH  12  13
ENDBRANCH   1  12
BRANCH  10  19
HETATM   19  C11 UNL     1     -21.900 -43.818  27.242  1.00  0.00     0.070 C
HETATM   20  C12 UNL     1     -20.806 -43.156  26.391  1.00  0.00     0.019 C
HETATM   21  C13 UNL     1     -23.004 -42.802  27.360  1.00  0.00     0.019 C
ENDBRANCH  10  19
TORSDOF 4
ENDMDL