MODEL 1
REMARK VINA RESULT: -6.777598759      0.000      0.000
REMARK  4 active torsions:
REMARK  status: ('A' for Active; 'I' for Inactive)
REMARK    1  A    between atoms: N1_1  and  N2_4
REMARK    2  A    between atoms: N2_4  and  C1_5
REMARK    3  A    between atoms: C1_5  and  C2_6
REMARK    4  A    between atoms: C1_5  and  C3_9
ROOT
HETATM    1  C1  UNL     1      -2.678  -5.202  16.764  1.00  0.00     0.176 C
ENDROOT
BRANCH   1   2
HETATM    2  N2  UNL     1      -3.117  -6.274  17.210  1.00  0.00    -0.332 NA
BRANCH   2   3
HETATM    3  N1  UNL     1      -3.581  -7.274  17.798  1.00  0.00    -0.280 N
ATOM      4  H12 UNL     1      -4.373  -7.168  17.164  1.00  0.00     0.191 HD
ATOM      5  H11 UNL     1      -3.850  -8.088  18.351  1.00  0.00     0.191 HD
ENDBRANCH   2   3
ENDBRANCH   1   2
BRANCH   1   6
HETATM    6  C2  UNL     1      -1.354  -4.745  17.128  1.00  0.00     0.293 C
HETATM    7  N3  UNL     1      -1.004  -4.561  18.481  1.00  0.00    -0.055 NA
HETATM    8  O1  UNL     1      -0.512  -4.511  16.229  1.00  0.00    -0.268 OA
ENDBRANCH   1   6
BRANCH   1   9
HETATM    9  C3  UNL     1      -3.488  -4.385  15.867  1.00  0.00     0.057 A
HETATM   10  C4  UNL     1      -4.816  -3.905  16.439  1.00  0.00     0.012 A
HETATM   11  C5  UNL     1      -4.387  -2.469  16.390  1.00  0.00     0.002 A
HETATM   12  C6  UNL     1      -3.055  -2.926  15.810  1.00  0.00     0.012 A
ENDBRANCH   1   9
TORSDOF 4
ENDMDL