MODEL 2
REMARK VINA RESULT: -6.806198313      1.439      4.639
REMARK  1 active torsions:
REMARK  status: ('A' for Active; 'I' for Inactive)
REMARK       I    between atoms: N1_5  and  C5_6
REMARK    1  A    between atoms: C5_6  and  C6_8
ROOT
HETATM    1  C1  UNL     1      -7.638  -8.429  16.555  1.00  0.00     0.012 C
HETATM    2  C2  UNL     1      -7.006  -7.629  17.201  1.00  0.00    -0.109 C
HETATM    3  C3  UNL     1      -6.259  -6.681  17.991  1.00  0.00     0.100 C
HETATM    4  C4  UNL     1      -6.096  -5.300  17.386  1.00  0.00     0.145 C
HETATM    5  N1  UNL     1      -4.709  -5.542  17.082  1.00  0.00    -0.346 N
HETATM    6  C5  UNL     1      -3.732  -4.826  16.365  1.00  0.00     0.242 C
HETATM    7  O1  UNL     1      -2.575  -5.289  16.259  1.00  0.00    -0.268 OA
HETATM    8  C8  UNL     1      -4.749  -6.779  17.794  1.00  0.00     0.145 C
ENDROOT
BRANCH   6   9
HETATM    9  C6  UNL     1      -4.023  -3.544  15.732  1.00  0.00     0.064 C
HETATM   10  C7  UNL     1      -4.124  -2.422  16.413  1.00  0.00     0.017 C
ENDBRANCH   6   9
TORSDOF 1
ENDMDL