MODEL 4
REMARK VINA RESULT: -6.280196102      1.036      4.042
REMARK  2 active torsions:
REMARK  status: ('A' for Active; 'I' for Inactive)
REMARK    1  A    between atoms: C2_2  and  C3_3
REMARK    2  A    between atoms: C3_3  and  N1_4
REMARK       I    between atoms: C4_6  and  N3_8
ROOT
HETATM    1  N1  UNL     1      -2.355  -4.093  17.052  1.00  0.00    -0.361 N
ATOM      2  H1  UNL     1      -1.459  -3.620  17.178  1.00  0.00     0.162 HD
HETATM    3  C4  UNL     1      -2.717  -4.970  17.923  1.00  0.00     0.186 C
HETATM    4  N2  UNL     1      -1.892  -5.276  19.038  1.00  0.00    -0.064 NA
HETATM    5  N3  UNL     1      -3.955  -5.687  17.833  1.00  0.00    -0.356 N
HETATM    6  C5  UNL     1      -5.003  -5.535  18.815  1.00  0.00     0.125 C
HETATM    7  C6  UNL     1      -6.188  -6.196  18.141  1.00  0.00     0.021 C
HETATM    8  C7  UNL     1      -5.483  -7.379  17.477  1.00  0.00     0.021 C
HETATM    9  C8  UNL     1      -4.331  -6.623  16.801  1.00  0.00     0.125 C
ENDROOT
BRANCH   1  10
HETATM   10  C3  UNL     1      -3.155  -3.755  15.918  1.00  0.00     0.148 C
BRANCH  10  11
HETATM   11  C2  UNL     1      -4.125  -2.672  16.240  1.00  0.00    -0.018 C
HETATM   12  C1  UNL     1      -3.853  -1.396  16.086  1.00  0.00     0.008 C
ENDBRANCH  10  11
ENDBRANCH   1  10
TORSDOF 2
ENDMDL