MODEL 3
REMARK VINA RESULT: -6.796859285      1.057      1.124
REMARK  4 active torsions:
REMARK  status: ('A' for Active; 'I' for Inactive)
REMARK    1  A    between atoms: N1_2  and  C2_4
REMARK    2  A    between atoms: C2_4  and  C3_5
REMARK    3  A    between atoms: C3_5  and  C4_6
REMARK    4  A    between atoms: C5_7  and  C6_8
ROOT
HETATM    1  C4  UNL     1      -4.643  -4.474  16.260  1.00  0.00    -0.104 C
HETATM    2  C5  UNL     1      -5.296  -5.071  17.077  1.00  0.00    -0.098 C
ENDROOT
BRANCH   1   3
HETATM    3  C3  UNL     1      -3.838  -3.764  15.265  1.00  0.00     0.113 C
BRANCH   3   4
HETATM    4  C2  UNL     1      -2.386  -3.744  15.708  1.00  0.00     0.130 C
BRANCH   4   5
HETATM    5  N1  UNL     1      -2.239  -4.152  17.068  1.00  0.00    -0.407 N
HETATM    6  C1  UNL     1      -1.185  -4.690  17.524  1.00  0.00     0.112 C
ATOM      7  H1  UNL     1      -3.021  -4.003  17.706  1.00  0.00     0.158 HD
ENDBRANCH   4   5
ENDBRANCH   3   4
ENDBRANCH   1   3
BRANCH   2   8
HETATM    8  C6  UNL     1      -6.106  -5.806  18.081  1.00  0.00     0.087 A
HETATM    9  C7  UNL     1      -7.286  -6.071  17.871  1.00  0.00    -0.014 A
HETATM   10  C8  UNL     1      -7.735  -6.624  17.598  1.00  0.00    -0.029 A
HETATM   11  C9  UNL     1      -7.679  -7.757  17.115  1.00  0.00     0.028 A
HETATM   12  C10 UNL     1      -5.878  -7.491  17.357  1.00  0.00     0.025 A
ENDBRANCH   2   8
TORSDOF 4
ENDMDL