MODEL 4
REMARK VINA RESULT: -6.993915044      1.968      2.369
REMARK  4 active torsions:
REMARK  status: ('A' for Active; 'I' for Inactive)
REMARK    1  A    between atoms: C2_2  and  C3_3
REMARK    2  A    between atoms: C3_3  and  C4_4
REMARK    3  A    between atoms: C5_5  and  C6_6
REMARK    4  A    between atoms: C8_8  and  C9_9
ROOT
HETATM    1  C6  UNL     1      -4.366  -4.282  16.063  1.00  0.00     0.078 A
HETATM    2  C7  UNL     1      -3.956  -2.926  16.500  1.00  0.00     0.033 A
HETATM    3  C8  UNL     1      -3.073  -4.148  16.738  1.00  0.00     0.092 A
ENDROOT
BRANCH   1   4
HETATM    4  C5  UNL     1      -5.467  -4.900  16.806  1.00  0.00    -0.101 C
HETATM    5  C4  UNL     1      -6.377  -5.389  17.428  1.00  0.00    -0.102 C
BRANCH   5   6
HETATM    6  C3  UNL     1      -7.490  -5.979  18.212  1.00  0.00     0.120 C
BRANCH   6   7
HETATM    7  C2  UNL     1      -8.127  -6.991  17.340  1.00  0.00    -0.025 C
HETATM    8  C1  UNL     1      -7.446  -8.067  16.984  1.00  0.00     0.008 C
ENDBRANCH   6   7
ENDBRANCH   5   6
ENDBRANCH   1   4
BRANCH   3   9
HETATM    9  C9  UNL     1      -1.835  -4.277  15.909  1.00  0.00     0.236 C
HETATM   10  N1  UNL     1      -0.620  -4.517  16.606  1.00  0.00    -0.062 NA
HETATM   11  O1  UNL     1      -1.836  -4.184  14.662  1.00  0.00    -0.276 OA
ENDBRANCH   3   9
TORSDOF 4
ENDMDL