MODEL 3
REMARK VINA RESULT: -6.671089880      2.758      4.051
REMARK  2 active torsions:
REMARK  status: ('A' for Active; 'I' for Inactive)
REMARK    1  A    between atoms: C1_2  and  N1_3
REMARK    2  A    between atoms: N1_3  and  C2_5
ROOT
HETATM    1  C2  UNL     1      -3.614  -3.825  17.067  1.00  0.00     0.088 C
HETATM    2  C3  UNL     1      -4.988  -4.176  16.569  1.00  0.00     0.031 C
HETATM    3  C4  UNL     1      -5.211  -5.555  17.155  1.00  0.00    -0.003 A
HETATM    4  C5  UNL     1      -4.552  -5.980  18.394  1.00  0.00    -0.005 A
HETATM    5  C6  UNL     1      -3.208  -5.505  18.829  1.00  0.00     0.012 C
HETATM    6  C7  UNL     1      -2.922  -5.141  17.368  1.00  0.00     0.013 C
HETATM    7  C8  UNL     1      -3.906  -6.188  16.995  1.00  0.00     0.001 A
ENDROOT
BRANCH   1   8
HETATM    8  N1  UNL     1      -2.868  -3.023  16.130  1.00  0.00    -0.363 N
ATOM      9  H1  UNL     1      -1.921  -3.304  15.878  1.00  0.00     0.162 HD
BRANCH   8  10
HETATM   10  C1  UNL     1      -3.424  -1.853  15.547  1.00  0.00     0.348 C
HETATM   11  O1  UNL     1      -2.673  -1.033  14.961  1.00  0.00    -0.284 OA
ENDBRANCH   8  10
ENDBRANCH   1   8
TORSDOF 2
ENDMDL