MODEL 3
REMARK VINA RESULT: -7.106437303      1.363      1.538
REMARK  2 active torsions:
REMARK  status: ('A' for Active; 'I' for Inactive)
REMARK       I    between atoms: N1_3  and  C3_5
REMARK    1  A    between atoms: C3_5  and  C4_7
REMARK    2  A    between atoms: C4_7  and  C6_9
ROOT
HETATM    1  C1  UNL     1       0.605  -3.442  14.612  1.00  0.00     0.037 C
HETATM    2  C2  UNL     1      -0.355  -3.765  15.281  1.00  0.00     0.002 C
HETATM    3  N1  UNL     1      -1.463  -4.129  16.075  1.00  0.00    -0.282 N
ATOM      4  H1  UNL     1      -1.304  -4.421  17.040  1.00  0.00     0.179 HD
HETATM    5  C3  UNL     1      -2.785  -4.102  15.577  1.00  0.00     0.258 C
HETATM    6  O1  UNL     1      -3.020  -3.742  14.375  1.00  0.00    -0.267 OA
ENDROOT
BRANCH   5   7
HETATM    7  C4  UNL     1      -3.899  -4.479  16.413  1.00  0.00     0.005 C
HETATM    8  C5  UNL     1      -4.949  -3.703  16.530  1.00  0.00     0.025 C
BRANCH   7   9
HETATM    9  C6  UNL     1      -3.847  -5.767  17.152  1.00  0.00     0.023 A
HETATM   10  C7  UNL     1      -4.888  -6.116  18.141  1.00  0.00     0.010 A
HETATM   11  C8  UNL     1      -3.546  -5.721  18.638  1.00  0.00     0.010 A
ENDBRANCH   7   9
ENDBRANCH   5   7
TORSDOF 2
ENDMDL