MODEL 2
REMARK VINA RESULT: -7.858388875      1.106      1.478
REMARK  3 active torsions:
REMARK  status: ('A' for Active; 'I' for Inactive)
REMARK    1  A    between atoms: C1_2  and  C2_4
REMARK    2  A    between atoms: C3_5  and  C4_6
REMARK    3  A    between atoms: C4_6  and  C5_7
ROOT
HETATM    1  C4  UNL     1      -4.612  -5.663  18.166  1.00  0.00     0.007 C
ENDROOT
BRANCH   1   2
HETATM    2  C3  UNL     1      -3.887  -4.796  17.217  1.00  0.00     0.006 C
HETATM    3  C2  UNL     1      -4.522  -3.829  16.638  1.00  0.00     0.071 C
BRANCH   3   4
HETATM    4  C1  UNL     1      -3.838  -2.956  15.699  1.00  0.00     0.254 C
HETATM    5  N1  UNL     1      -3.943  -1.554  15.878  1.00  0.00    -0.058 NA
HETATM    6  O1  UNL     1      -3.154  -3.436  14.732  1.00  0.00    -0.272 OA
ENDBRANCH   3   4
ENDBRANCH   1   2
BRANCH   1   7
HETATM    7  C5  UNL     1      -5.414  -6.553  17.694  1.00  0.00    -0.058 A
HETATM    8  C6  UNL     1      -6.022  -7.410  17.236  1.00  0.00     0.003 A
HETATM    9  C7  UNL     1      -6.713  -7.639  17.125  1.00  0.00    -0.026 A
HETATM   10  C8  UNL     1      -7.866  -7.310  17.330  1.00  0.00     0.032 A
HETATM   11  C9  UNL     1      -7.074  -5.874  18.100  1.00  0.00     0.042 A
ENDBRANCH   1   7
TORSDOF 3
ENDMDL