MODEL 5
REMARK VINA RESULT: -5.232658047      1.651      3.728
REMARK  2 active torsions:
REMARK  status: ('A' for Active; 'I' for Inactive)
REMARK    1  A    between atoms: C2_2  and  N1_3
REMARK    2  A    between atoms: C2_2  and  N2_6
ROOT
HETATM    1  N2  UNL     1      -4.425  -5.801  17.864  1.00  0.00    -0.027 N
HETATM    2  C4  UNL     1      -3.473  -5.636  18.954  1.00  0.00     0.281 C
HETATM    3  C5  UNL     1      -4.457  -7.177  17.404  1.00  0.00     0.245 C
HETATM    4  C6  UNL     1      -5.902  -7.618  17.369  1.00  0.00     0.030 C
HETATM    5  C7  UNL     1      -6.614  -6.253  17.359  1.00  0.00     0.030 C
HETATM    6  C8  UNL     1      -5.728  -5.535  18.356  1.00  0.00     0.245 C
ENDROOT
BRANCH   1   7
HETATM    7  C2  UNL     1      -4.047  -4.906  16.853  1.00  0.00     0.193 C
HETATM    8  C1  UNL     1      -4.694  -3.825  16.501  1.00  0.00     0.071 C
BRANCH   7   9
HETATM    9  N1  UNL     1      -2.825  -5.245  16.165  1.00  0.00    -0.375 N
HETATM   10  C3  UNL     1      -2.167  -4.232  15.386  1.00  0.00     0.147 C
ATOM     11  H1  UNL     1      -2.436  -6.185  16.229  1.00  0.00     0.160 HD
ENDBRANCH   7   9
ENDBRANCH   1   7
TORSDOF 2
ENDMDL