MODEL 1
REMARK VINA RESULT: -6.048050077      0.000      0.000
REMARK  4 active torsions:
REMARK  status: ('A' for Active; 'I' for Inactive)
REMARK    1  A    between atoms: N1_1  and  N2_4
REMARK    2  A    between atoms: N2_4  and  C1_5
REMARK    3  A    between atoms: C1_5  and  C2_6
REMARK       I    between atoms: C2_6  and  N3_8
REMARK    4  A    between atoms: N3_8  and  C3_10
ROOT
HETATM    1  C2  UNL     1      -2.725  -4.918  16.432  1.00  0.00     0.272 C
HETATM    2  O1  UNL     1      -1.831  -5.305  17.204  1.00  0.00    -0.266 OA
HETATM    3  N3  UNL     1      -4.078  -5.144  16.754  1.00  0.00    -0.351 N
ATOM      4  H3  UNL     1      -4.805  -4.825  16.114  1.00  0.00     0.163 HD
ENDROOT
BRANCH   1   5
HETATM    5  C1  UNL     1      -2.383  -4.237  15.201  1.00  0.00     0.282 C
BRANCH   5   6
HETATM    6  N2  UNL     1      -1.235  -3.793  14.960  1.00  0.00    -0.340 NA
BRANCH   6   7
HETATM    7  N1  UNL     1      -0.090  -3.386  15.149  1.00  0.00    -0.281 N
ATOM      8  H12 UNL     1      -0.343  -2.567  15.702  1.00  0.00     0.191 HD
ATOM      9  H11 UNL     1       0.927  -3.337  15.113  1.00  0.00     0.191 HD
ENDBRANCH   6   7
ENDBRANCH   5   6
ENDBRANCH   1   5
BRANCH   3  10
HETATM   10  C3  UNL     1      -4.452  -5.823  17.978  1.00  0.00     0.084 C
HETATM   11  C4  UNL     1      -5.973  -5.910  18.159  1.00  0.00     0.025 C
HETATM   12  C5  UNL     1      -5.908  -7.155  17.275  1.00  0.00     0.004 C
HETATM   13  C6  UNL     1      -4.466  -7.323  17.766  1.00  0.00     0.025 C
ENDBRANCH   3  10
TORSDOF 4
ENDMDL