MODEL 4
REMARK VINA RESULT: -7.287655812      4.866      7.614
REMARK  7 active torsions:
REMARK  status: ('A' for Active; 'I' for Inactive)
REMARK    1  A    between atoms: N2_8  and  C6_9
REMARK    2  A    between atoms: C6_9  and  C7_10
REMARK    3  A    between atoms: C6_9  and  C8_15
REMARK    4  A    between atoms: C7_10  and  N3_11
REMARK       I    between atoms: C8_15  and  N4_17
REMARK    5  A    between atoms: N4_17  and  C9_18
REMARK    6  A    between atoms: C12_21  and  S2_22
REMARK    7  A    between atoms: S2_22  and  N5_25
REMARK       I    between atoms: N5_25  and  C13_27
ROOT
HETATM    1  N1  UNL     1       2.501  16.999  85.132  1.00  0.00    -0.195 NA
HETATM    2  C1  UNL     1       2.123  17.722  84.306  1.00  0.00     0.096 C
HETATM    3  C2  UNL     1       1.618  18.614  83.209  1.00  0.00     0.339 C
HETATM    4  C3  UNL     1       0.640  17.797  82.466  1.00  0.00     0.124 C
HETATM    5  S1  UNL     1       0.785  17.656  80.706  1.00  0.00    -0.164 SA
HETATM    6  C4  UNL     1       2.055  18.874  80.158  1.00  0.00     0.104 C
HETATM    7  C5  UNL     1       2.042  19.861  81.313  1.00  0.00     0.285 C
HETATM    8  N2  UNL     1       2.678  19.215  82.492  1.00  0.00     0.124 N
ENDROOT
BRANCH   8   9
HETATM    9  C6  UNL     1       3.431  20.250  83.112  1.00  0.00     0.355 C
BRANCH   9  10
HETATM   10  C7  UNL     1       3.076  20.510  84.544  1.00  0.00     0.276 C
BRANCH  10  11
HETATM   11  N3  UNL     1       3.722  21.682  85.126  1.00  0.00    -0.077 N
ATOM     12  H33 UNL     1       4.120  21.453  86.037  1.00  0.00     0.274 HD
ATOM     13  H32 UNL     1       4.575  21.908  84.614  1.00  0.00     0.274 HD
ATOM     14  H31 UNL     1       3.123  22.504  85.197  1.00  0.00     0.274 HD
ENDBRANCH  10  11
ENDBRANCH   9  10
BRANCH   9  15
HETATM   15  C8  UNL     1       4.900  19.771  83.204  1.00  0.00     0.327 C
HETATM   16  O1  UNL     1       5.508  19.980  82.132  1.00  0.00    -0.255 OA
HETATM   17  N4  UNL     1       5.353  19.212  84.352  1.00  0.00    -0.369 NA
BRANCH  17  18
HETATM   18  C9  UNL     1       5.825  18.649  85.494  1.00  0.00     0.111 A
HETATM   19  C10 UNL     1       7.251  18.462  85.552  1.00  0.00     0.046 A
HETATM   20  C11 UNL     1       7.892  17.885  86.573  1.00  0.00     0.028 A
HETATM   21  C12 UNL     1       7.202  17.405  87.693  1.00  0.00     0.080 A
HETATM   22  C14 UNL     1       5.847  17.567  87.674  1.00  0.00     0.028 A
HETATM   23  C15 UNL     1       5.188  18.171  86.601  1.00  0.00     0.046 A
BRANCH  21  24
HETATM   24  S2  UNL     1       8.143  16.685  88.952  1.00  0.00     0.265 S
HETATM   25  O2  UNL     1       8.338  15.176  88.637  1.00  0.00    -0.200 OA
HETATM   26  O3  UNL     1       7.365  16.705  90.248  1.00  0.00    -0.200 OA
BRANCH  24  27
HETATM   27  N5  UNL     1       9.707  17.285  89.188  1.00  0.00    -0.254 N
HETATM   28  C13 UNL     1      10.300  17.461  90.442  1.00  0.00     0.195 C
HETATM   29  N6  UNL     1       9.729  17.981  91.455  1.00  0.00    -0.373 N
HETATM   30  N7  UNL     1      11.687  17.011  90.633  1.00  0.00    -0.063 NA
ATOM     31  H62 UNL     1       8.767  18.294  91.322  1.00  0.00     0.158 HD
ATOM     32  H61 UNL     1      10.161  18.110  92.370  1.00  0.00     0.158 HD
ATOM     33  H5  UNL     1      10.253  17.534  88.362  1.00  0.00     0.181 HD
ENDBRANCH  24  27
ENDBRANCH  21  24
ENDBRANCH  17  18
ENDBRANCH   9  15
ENDBRANCH   8   9
TORSDOF 7
ENDMDL