MODEL 2
REMARK VINA RESULT: -8.331665974      5.563      9.747
REMARK  7 active torsions:
REMARK  status: ('A' for Active; 'I' for Inactive)
REMARK    1  A    between atoms: C2_2  and  N1_4
REMARK       I    between atoms: N2_7  and  C6_8
REMARK       I    between atoms: C6_8  and  N4_12
REMARK    2  A    between atoms: N4_12  and  N5_14
REMARK    3  A    between atoms: N5_14  and  S1_16
REMARK    4  A    between atoms: S1_16  and  N6_19
REMARK    5  A    between atoms: N6_19  and  C7_21
REMARK    6  A    between atoms: C9_23  and  N7_24
REMARK    7  A    between atoms: C12_29  and  O5_30
ROOT
HETATM    1  N5  UNL     1       2.260  17.080  84.444  1.00  0.00    -0.195 N
ATOM      2  H5  UNL     1       2.486  16.332  83.788  1.00  0.00     0.202 HD
ENDROOT
BRANCH   1   3
HETATM    3  N4  UNL     1       2.278  16.928  85.813  1.00  0.00    -0.122 N
HETATM    4  C6  UNL     1       3.334  16.343  86.559  1.00  0.00     0.689 C
HETATM    5  N2  UNL     1       4.476  17.067  86.970  1.00  0.00    -0.211 N
HETATM    6  N3  UNL     1       3.244  15.100  86.871  1.00  0.00    -0.233 N
HETATM    7  C5  UNL     1       4.748  17.480  88.333  1.00  0.00     0.161 C
HETATM    8  C13 UNL     1       5.454  17.431  85.970  1.00  0.00     0.185 C
HETATM    9  C4  UNL     1       6.111  16.876  88.676  1.00  0.00     0.143 C
HETATM   10  N1  UNL     1       7.093  17.453  87.824  1.00  0.00    -0.386 N
HETATM   11  C14 UNL     1       6.660  18.054  86.645  1.00  0.00     0.079 C
ATOM     12  H32 UNL     1       4.004  14.678  87.407  1.00  0.00     0.174 HD
ATOM     13  H31 UNL     1       2.420  14.576  86.574  1.00  0.00     0.174 HD
ATOM     14  H4  UNL     1       1.467  17.265  86.333  1.00  0.00     0.206 HD
BRANCH  10  15
HETATM   15  C2  UNL     1       8.392  16.897  87.906  1.00  0.00     0.075 C
HETATM   16  C1  UNL     1       8.826  16.843  89.357  1.00  0.00     0.032 C
HETATM   17  C3  UNL     1       9.375  17.794  87.185  1.00  0.00     0.032 C
ENDBRANCH  10  15
ENDBRANCH   1   3
BRANCH   1  18
HETATM   18  S1  UNL     1       1.809  18.693  83.960  1.00  0.00     0.337 S
HETATM   19  O1  UNL     1       3.066  19.476  83.586  1.00  0.00    -0.181 OA
HETATM   20  O2  UNL     1       1.257  19.372  85.177  1.00  0.00    -0.181 OA
BRANCH  18  21
HETATM   21  N6  UNL     1       0.708  18.643  82.665  1.00  0.00    -0.264 N
ATOM     22  H6  UNL     1      -0.127  19.224  82.751  1.00  0.00     0.180 HD
BRANCH  21  23
HETATM   23  C7  UNL     1       0.830  17.878  81.482  1.00  0.00     0.079 A
HETATM   24  C8  UNL     1       0.287  16.629  81.370  1.00  0.00     0.069 A
HETATM   25  C9  UNL     1       0.420  15.896  80.213  1.00  0.00     0.105 A
HETATM   26  C10 UNL     1       1.103  16.408  79.152  1.00  0.00     0.039 A
HETATM   27  C11 UNL     1       1.645  17.655  79.266  1.00  0.00     0.041 A
HETATM   28  C12 UNL     1       1.529  18.406  80.400  1.00  0.00     0.093 A
BRANCH  25  29
HETATM   29  N7  UNL     1      -0.153  14.579  80.097  1.00  0.00    -0.116 N
HETATM   30  O3  UNL     1       0.219  13.809  79.195  1.00  0.00    -0.532 OA
HETATM   31  O4  UNL     1      -1.102  14.211  80.991  1.00  0.00    -0.532 OA
ENDBRANCH  25  29
BRANCH  28  32
HETATM   32  O5  UNL     1       2.085  19.663  80.492  1.00  0.00    -0.358 OA
ATOM     33  H5  UNL     1       2.987  19.760  80.772  1.00  0.00     0.217 HD
ENDBRANCH  28  32
ENDBRANCH  21  23
ENDBRANCH  18  21
ENDBRANCH   1  18
TORSDOF 7
ENDMDL