MODEL 2
REMARK VINA RESULT: -8.552227331      1.606      1.960
REMARK  10 active torsions:
REMARK  status: ('A' for Active; 'I' for Inactive)
REMARK       I    between atoms: C2_2  and  N1_4
REMARK    1  A    between atoms: C3_6  and  O2_7
REMARK    2  A    between atoms: C3_6  and  N2_9
REMARK    3  A    between atoms: N2_9  and  S1_11
REMARK    4  A    between atoms: S1_11  and  C4_14
REMARK    5  A    between atoms: C9_19  and  C10_20
REMARK    6  A    between atoms: C10_20  and  N3_21
REMARK       I    between atoms: N3_21  and  C11_23
REMARK    7  A    between atoms: C11_23  and  C12_25
REMARK    8  A    between atoms: C12_25  and  N4_26
REMARK    9  A    between atoms: C13_27  and  O6_28
REMARK   10  A    between atoms: C16_32  and  O7_33
ROOT
HETATM    1  C4  UNL     1       4.425  18.597  84.668  1.00  0.00     0.087 A
HETATM    2  C5  UNL     1       4.182  18.960  83.363  1.00  0.00     0.026 A
HETATM    3  C6  UNL     1       5.144  19.627  82.602  1.00  0.00     0.002 A
HETATM    4  C7  UNL     1       6.353  19.929  83.161  1.00  0.00     0.001 A
HETATM    5  C8  UNL     1       6.585  19.553  84.492  1.00  0.00     0.010 A
HETATM    6  C9  UNL     1       5.642  18.895  85.245  1.00  0.00    -0.017 A
ENDROOT
BRANCH   6   7
HETATM    7  C10 UNL     1       5.883  18.503  86.630  1.00  0.00     0.162 C
BRANCH   7   8
HETATM    8  N3  UNL     1       7.078  17.745  86.891  1.00  0.00    -0.355 N
HETATM    9  C11 UNL     1       7.105  16.989  88.119  1.00  0.00     0.236 C
HETATM   10  O5  UNL     1       6.119  17.016  88.891  1.00  0.00    -0.272 OA
ATOM     11  H3  UNL     1       7.865  17.743  86.241  1.00  0.00     0.162 HD
BRANCH   9  12
HETATM   12  C12 UNL     1       8.288  16.174  88.485  1.00  0.00     0.236 C
BRANCH  12  13
HETATM   13  N4  UNL     1       9.033  16.857  89.509  1.00  0.00    -0.300 N
HETATM   14  C13 UNL     1      10.220  17.458  89.263  1.00  0.00     0.144 A
HETATM   15  C14 UNL     1      10.662  18.012  90.443  1.00  0.00     0.060 A
HETATM   16  C15 UNL     1       9.730  17.740  91.401  1.00  0.00     0.060 A
HETATM   17  C16 UNL     1       8.730  17.024  90.807  1.00  0.00     0.144 A
BRANCH  14  18
HETATM   18  O6  UNL     1      10.895  17.523  88.053  1.00  0.00    -0.346 OA
ATOM     19  H6  UNL     1      11.791  17.258  87.878  1.00  0.00     0.219 HD
ENDBRANCH  14  18
BRANCH  17  20
HETATM   20  O7  UNL     1       7.560  16.523  91.404  1.00  0.00    -0.346 OA
ATOM     21  H7  UNL     1       6.862  17.075  91.738  1.00  0.00     0.219 HD
ENDBRANCH  17  20
ENDBRANCH  12  13
ENDBRANCH   9  12
ENDBRANCH   7   8
ENDBRANCH   6   7
BRANCH   1  22
HETATM   22  S1  UNL     1       3.177  17.781  85.555  1.00  0.00     0.266 S
HETATM   23  O3  UNL     1       2.317  18.729  86.368  1.00  0.00    -0.200 OA
HETATM   24  O4  UNL     1       2.280  17.086  84.553  1.00  0.00    -0.200 OA
BRANCH  22  25
HETATM   25  N2  UNL     1       3.799  16.639  86.689  1.00  0.00    -0.245 N
ATOM     26  H2  UNL     1       3.821  16.863  87.684  1.00  0.00     0.182 HD
BRANCH  25  27
HETATM   27  C3  UNL     1       4.278  15.394  86.231  1.00  0.00     0.233 C
HETATM   28  N1  UNL     1       3.796  14.261  86.619  1.00  0.00    -0.293 N
HETATM   29  C2  UNL     1       2.731  14.232  87.552  1.00  0.00     0.220 C
ATOM     30  H1  UNL     1       4.182  13.390  86.256  1.00  0.00     0.172 HD
HETATM   31  C1  UNL     1       1.363  13.815  87.179  1.00  0.00     0.117 C
HETATM   32  O1  UNL     1       2.967  14.574  88.733  1.00  0.00    -0.274 OA
BRANCH  27  33
HETATM   33  O2  UNL     1       5.328  15.335  85.308  1.00  0.00    -0.332 OA
ATOM     34  H2  UNL     1       5.137  14.909  84.481  1.00  0.00     0.221 HD
ENDBRANCH  27  33
ENDBRANCH  25  27
ENDBRANCH  22  25
ENDBRANCH   1  22
TORSDOF 10
ENDMDL