MODEL 4
REMARK VINA RESULT: -7.370167436      1.309      4.086
REMARK  12 active torsions:
REMARK  status: ('A' for Active; 'I' for Inactive)
REMARK    1  A    between atoms: C4_4  and  O1_5
REMARK    2  A    between atoms: C4_4  and  C5_7
REMARK    3  A    between atoms: C5_7  and  O2_8
REMARK    4  A    between atoms: C6_10  and  O3_11
REMARK    5  A    between atoms: C6_10  and  C7_13
REMARK    6  A    between atoms: C8_16  and  C9_17
REMARK    7  A    between atoms: C9_17  and  O6_18
REMARK    8  A    between atoms: O6_18  and  C10_19
REMARK    9  A    between atoms: C10_19  and  C11_21
REMARK   10  A    between atoms: C19_29  and  O8_30
REMARK   11  A    between atoms: C19_29  and  C20_32
REMARK   12  A    between atoms: C20_32  and  O9_33
ROOT
HETATM    1  C1  UNL     1       4.940  15.316  87.111  1.00  0.00     0.019 C
HETATM    2  C2  UNL     1       4.823  16.475  86.193  1.00  0.00     0.005 C
HETATM    3  C3  UNL     1       5.402  16.110  84.870  1.00  0.00     0.057 C
HETATM    4  C4  UNL     1       6.571  16.962  84.634  1.00  0.00     0.122 C
HETATM    5  C6  UNL     1       6.609  17.997  85.775  1.00  0.00     0.189 C
HETATM    6  C8  UNL     1       5.514  17.745  86.700  1.00  0.00     0.036 C
HETATM    7  C17 UNL     1       4.389  18.753  86.553  1.00  0.00     0.019 C
HETATM    8  C18 UNL     1       3.488  18.236  85.460  1.00  0.00     0.042 C
HETATM    9  C19 UNL     1       3.394  16.778  85.945  1.00  0.00     0.087 C
ENDROOT
BRANCH   6  10
HETATM   10  C9  UNL     1       5.735  17.655  88.183  1.00  0.00     0.193 C
BRANCH  10  11
HETATM   11  O6  UNL     1       6.691  16.969  88.751  1.00  0.00    -0.317 OA
BRANCH  11  12
HETATM   12  C10 UNL     1       7.581  16.388  89.454  1.00  0.00     0.293 C
HETATM   13  O7  UNL     1       7.800  15.183  89.114  1.00  0.00    -0.259 OA
BRANCH  12  14
HETATM   14  C11 UNL     1       8.409  16.852  90.595  1.00  0.00     0.039 A
HETATM   15  C12 UNL     1       9.738  17.110  90.386  1.00  0.00     0.017 A
HETATM   16  C13 UNL     1      10.555  17.541  91.402  1.00  0.00     0.001 A
HETATM   17  C14 UNL     1      10.027  17.723  92.670  1.00  0.00     0.000 A
HETATM   18  C15 UNL     1       8.684  17.458  92.869  1.00  0.00     0.001 A
HETATM   19  C16 UNL     1       7.879  17.027  91.839  1.00  0.00     0.017 A
ENDBRANCH  12  14
ENDBRANCH  11  12
ENDBRANCH  10  11
ENDBRANCH   6  10
BRANCH   5  20
HETATM   20  O3  UNL     1       6.233  19.199  85.065  1.00  0.00    -0.375 OA
ATOM     21  H3  UNL     1       5.470  19.469  85.563  1.00  0.00     0.211 HD
ENDBRANCH   5  20
BRANCH   5  22
HETATM   22  C7  UNL     1       7.979  18.159  86.060  1.00  0.00     0.213 C
HETATM   23  O4  UNL     1       8.776  17.716  86.912  1.00  0.00    -0.646 OA
HETATM   24  O5  UNL     1       8.721  19.031  85.214  1.00  0.00    -0.646 OA
ENDBRANCH   5  22
BRANCH   9  25
HETATM   25  O8  UNL     1       2.945  16.012  84.846  1.00  0.00    -0.387 OA
ATOM     26  H8  UNL     1       3.349  15.152  84.881  1.00  0.00     0.210 HD
ENDBRANCH   9  25
BRANCH   9  27
HETATM   27  C20 UNL     1       2.401  16.617  87.016  1.00  0.00     0.202 C
BRANCH  27  28
HETATM   28  O9  UNL     1       1.200  17.271  86.748  1.00  0.00    -0.398 OA
ATOM     29  H9  UNL     1       1.068  18.040  87.288  1.00  0.00     0.209 HD
ENDBRANCH  27  28
ENDBRANCH   9  27
BRANCH   4  30
HETATM   30  O1  UNL     1       6.468  17.649  83.389  1.00  0.00    -0.384 OA
ATOM     31  H1  UNL     1       6.567  18.588  83.503  1.00  0.00     0.210 HD
ENDBRANCH   4  30
BRANCH   4  32
HETATM   32  C5  UNL     1       7.772  16.112  84.473  1.00  0.00     0.205 C
BRANCH  32  33
HETATM   33  O2  UNL     1       8.616  16.351  83.437  1.00  0.00    -0.398 OA
ATOM     34  H2  UNL     1       9.429  15.862  83.381  1.00  0.00     0.209 HD
ENDBRANCH  32  33
ENDBRANCH   4  32
TORSDOF 12
ENDMDL