MODEL 2
REMARK VINA RESULT: -7.581619108      0.905      1.262
REMARK  9 active torsions:
REMARK  status: ('A' for Active; 'I' for Inactive)
REMARK    1  A    between atoms: C2_2  and  C3_3
REMARK    2  A    between atoms: C3_3  and  O1_4
REMARK    3  A    between atoms: C3_3  and  C4_6
REMARK    4  A    between atoms: C4_6  and  C5_7
REMARK    5  A    between atoms: C5_7  and  C6_9
REMARK    6  A    between atoms: C6_9  and  C7_10
REMARK    7  A    between atoms: C6_9  and  C8_13
REMARK    8  A    between atoms: C13_19  and  O6_20
REMARK    9  A    between atoms: C14_22  and  C15_23
ROOT
HETATM    1  C8  UNL     1       3.591  18.480  85.512  1.00  0.00     0.182 C
HETATM    2  O5  UNL     1       4.764  18.967  85.007  1.00  0.00    -0.370 OA
HETATM    3  C9  UNL     1       5.878  18.199  85.249  1.00  0.00     0.061 C
HETATM    4  C10 UNL     1       7.020  19.148  84.900  1.00  0.00     0.046 C
HETATM    5  C11 UNL     1       6.093  17.806  86.670  1.00  0.00     0.041 C
HETATM    6  C12 UNL     1       4.899  17.747  87.535  1.00  0.00     0.047 C
HETATM    7  C13 UNL     1       3.656  17.580  86.672  1.00  0.00     0.129 C
HETATM    8  C14 UNL     1       3.569  16.110  86.391  1.00  0.00     0.208 A
HETATM    9  O9  UNL     1       3.063  15.914  85.009  1.00  0.00    -0.355 OA
HETATM   10  C16 UNL     1       4.355  15.409  85.561  1.00  0.00     0.172 A
HETATM   11  C17 UNL     1       5.462  15.736  84.701  1.00  0.00     0.043 C
HETATM   12  C18 UNL     1       5.945  17.051  84.335  1.00  0.00     0.018 C
HETATM   13  C19 UNL     1       7.397  16.946  83.816  1.00  0.00     0.013 C
ENDROOT
BRANCH   1  14
HETATM   14  C6  UNL     1       2.463  19.474  85.410  1.00  0.00     0.188 C
BRANCH  14  15
HETATM   15  C5  UNL     1       2.777  20.837  85.033  1.00  0.00     0.146 C
HETATM   16  O2  UNL     1       2.823  21.100  83.808  1.00  0.00    -0.297 OA
BRANCH  15  17
HETATM   17  C4  UNL     1       3.047  21.933  85.967  1.00  0.00     0.111 C
BRANCH  17  18
HETATM   18  C3  UNL     1       1.809  22.834  86.073  1.00  0.00     0.124 C
BRANCH  18  19
HETATM   19  C2  UNL     1       2.219  24.277  85.996  1.00  0.00     0.027 C
HETATM   20  C1  UNL     1       3.495  24.489  85.239  1.00  0.00     0.007 C
ENDBRANCH  18  19
BRANCH  18  21
HETATM   21  O1  UNL     1       1.101  22.584  87.228  1.00  0.00    -0.395 OA
ATOM     22  H1  UNL     1       1.677  22.282  87.921  1.00  0.00     0.210 HD
ENDBRANCH  18  21
ENDBRANCH  17  18
ENDBRANCH  15  17
ENDBRANCH  14  15
BRANCH  14  23
HETATM   23  C7  UNL     1       1.514  18.922  84.374  1.00  0.00     0.187 C
HETATM   24  O3  UNL     1       1.951  18.225  83.456  1.00  0.00    -0.647 OA
HETATM   25  O4  UNL     1       0.178  19.210  84.481  1.00  0.00    -0.647 OA
ENDBRANCH  14  23
ENDBRANCH   1  14
BRANCH   7  26
HETATM   26  O6  UNL     1       2.599  17.956  87.525  1.00  0.00    -0.383 OA
ATOM     27  H6  UNL     1       2.974  18.540  88.172  1.00  0.00     0.210 HD
ENDBRANCH   7  26
BRANCH   8  28
HETATM   28  C15 UNL     1       2.713  15.417  87.398  1.00  0.00     0.215 C
HETATM   29  O7  UNL     1       1.510  15.156  87.149  1.00  0.00    -0.646 OA
HETATM   30  O8  UNL     1       3.219  15.052  88.611  1.00  0.00    -0.646 OA
ENDBRANCH   8  28
TORSDOF 9
ENDMDL