MODEL 2
REMARK VINA RESULT: -8.409583462      2.885      3.812
REMARK  7 active torsions:
REMARK  status: ('A' for Active; 'I' for Inactive)
REMARK    1  A    between atoms: N1_1  and  C1_4
REMARK    2  A    between atoms: C3_8  and  C4_9
REMARK    3  A    between atoms: N3_10  and  N4_12
REMARK       I    between atoms: N4_12  and  C5_14
REMARK    4  A    between atoms: C5_14  and  C6_16
REMARK       I    between atoms: C6_16  and  N5_18
REMARK       I    between atoms: N5_18  and  C7_20
REMARK    5  A    between atoms: C7_20  and  C8_22
REMARK    6  A    between atoms: C11_25  and  N6_26
REMARK    7  A    between atoms: C15_32  and  C16_33
ROOT
HETATM    1  N4  UNL     1       5.151  17.419  87.910  1.00  0.00    -0.262 N
ATOM      2  H4  UNL     1       5.443  18.281  88.370  1.00  0.00     0.190 HD
HETATM    3  C5  UNL     1       4.372  17.474  86.691  1.00  0.00     0.328 C
HETATM    4  O1  UNL     1       4.011  16.432  86.122  1.00  0.00    -0.261 OA
ENDROOT
BRANCH   1   5
HETATM    5  N3  UNL     1       5.485  16.235  88.430  1.00  0.00    -0.308 N
HETATM    6  C4  UNL     1       6.480  15.749  88.951  1.00  0.00     0.120 C
ATOM      7  H3  UNL     1       4.716  15.566  88.380  1.00  0.00     0.186 HD
BRANCH   6   8
HETATM    8  C3  UNL     1       7.757  16.378  89.195  1.00  0.00    -0.003 A
HETATM    9  C2  UNL     1       8.657  16.696  88.223  1.00  0.00     0.102 A
HETATM   10  N2  UNL     1       9.844  17.289  88.538  1.00  0.00    -0.351 N
HETATM   11  C1  UNL     1      10.168  17.581  89.806  1.00  0.00     0.116 A
ATOM     12  H2  UNL     1      10.500  17.517  87.791  1.00  0.00     0.166 HD
HETATM   13  C15 UNL     1       9.271  17.269  90.813  1.00  0.00     0.085 A
HETATM   14  C14 UNL     1       8.082  16.677  90.517  1.00  0.00     0.036 A
BRANCH  11  15
HETATM   15  N1  UNL     1      11.276  18.142  90.155  1.00  0.00    -0.385 N
ATOM     16  H12 UNL     1      11.231  18.847  90.891  1.00  0.00     0.157 HD
ATOM     17  H11 UNL     1      12.181  17.920  89.741  1.00  0.00     0.157 HD
ENDBRANCH  11  15
BRANCH  13  18
HETATM   18  C16 UNL     1       9.602  17.576  92.183  1.00  0.00     0.213 C
HETATM   19  O6  UNL     1      10.690  17.204  92.661  1.00  0.00    -0.644 OA
HETATM   20  O7  UNL     1       8.719  18.283  92.964  1.00  0.00    -0.644 OA
ENDBRANCH  13  18
ENDBRANCH   6   8
ENDBRANCH   1   5
BRANCH   3  21
HETATM   21  C6  UNL     1       4.027  18.769  86.153  1.00  0.00     0.317 C
HETATM   22  O2  UNL     1       2.936  19.293  86.452  1.00  0.00    -0.262 OA
HETATM   23  N5  UNL     1       4.934  19.429  85.289  1.00  0.00    -0.285 N
HETATM   24  C7  UNL     1       4.670  20.704  84.718  1.00  0.00     0.258 C
ATOM     25  H5  UNL     1       5.817  18.970  85.066  1.00  0.00     0.172 HD
HETATM   26  O3  UNL     1       5.533  21.245  83.946  1.00  0.00    -0.267 OA
BRANCH  24  27
HETATM   27  C8  UNL     1       3.433  21.442  84.975  1.00  0.00     0.032 A
HETATM   28  C9  UNL     1       3.392  22.301  86.079  1.00  0.00     0.019 A
HETATM   29  C10 UNL     1       2.227  22.997  86.316  1.00  0.00     0.037 A
HETATM   30  C11 UNL     1       1.117  22.874  85.510  1.00  0.00     0.102 A
HETATM   31  C12 UNL     1       1.151  22.019  84.409  1.00  0.00     0.037 A
HETATM   32  C13 UNL     1       2.312  21.319  84.163  1.00  0.00     0.019 A
BRANCH  30  33
HETATM   33  N6  UNL     1      -0.074  23.602  85.777  1.00  0.00    -0.116 N
HETATM   34  O4  UNL     1      -0.697  23.365  86.828  1.00  0.00    -0.532 OA
HETATM   35  O5  UNL     1      -0.557  24.554  84.917  1.00  0.00    -0.532 OA
ENDBRANCH  30  33
ENDBRANCH  24  27
ENDBRANCH   3  21
TORSDOF 7
ENDMDL