MODEL 4
REMARK VINA RESULT: -7.969928282      1.826      2.116
REMARK  8 active torsions:
REMARK  status: ('A' for Active; 'I' for Inactive)
REMARK       I    between atoms: C2_2  and  N1_4
REMARK    1  A    between atoms: N1_4  and  C3_6
REMARK    2  A    between atoms: C5_8  and  C6_9
REMARK       I    between atoms: C6_9  and  N2_11
REMARK    3  A    between atoms: N2_11  and  N3_13
REMARK    4  A    between atoms: N4_17  and  C8_18
REMARK    5  A    between atoms: C8_18  and  C9_19
REMARK    6  A    between atoms: C9_19  and  N5_21
REMARK    7  A    between atoms: N5_21  and  N6_23
REMARK       I    between atoms: N6_23  and  C10_25
REMARK    8  A    between atoms: C10_25  and  C11_27
ROOT
HETATM    1  C3  UNL     1       4.198  19.436  85.233  1.00  0.00     0.105 A
HETATM    2  C4  UNL     1       5.433  19.539  84.671  1.00  0.00     0.054 A
HETATM    3  C5  UNL     1       6.495  18.844  85.259  1.00  0.00     0.052 A
HETATM    4  C7  UNL     1       6.264  18.076  86.383  1.00  0.00     0.117 A
HETATM    5  N4  UNL     1       5.032  17.968  86.948  1.00  0.00    -0.294 N
HETATM    6  C15 UNL     1       4.028  18.634  86.382  1.00  0.00     0.278 A
HETATM    7  O4  UNL     1       2.874  18.556  86.889  1.00  0.00    -0.265 OA
ENDROOT
BRANCH   5   8
HETATM    8  C8  UNL     1       4.823  17.141  88.113  1.00  0.00     0.142 C
BRANCH   8   9
HETATM    9  C9  UNL     1       5.194  15.746  87.999  1.00  0.00     0.131 C
HETATM   10  S1  UNL     1       4.143  14.738  87.201  1.00  0.00    -0.058 SA
BRANCH   9  11
HETATM   11  N5  UNL     1       6.363  15.178  88.500  1.00  0.00    -0.286 N
ATOM     12  H5  UNL     1       6.826  14.430  87.982  1.00  0.00     0.188 HD
BRANCH  11  13
HETATM   13  N6  UNL     1       6.912  15.632  89.724  1.00  0.00    -0.264 N
HETATM   14  C10 UNL     1       8.043  16.468  89.708  1.00  0.00     0.277 C
HETATM   15  O3  UNL     1       8.596  16.842  88.655  1.00  0.00    -0.265 OA
ATOM     16  H6  UNL     1       6.491  15.354  90.611  1.00  0.00     0.190 HD
BRANCH  14  17
HETATM   17  C11 UNL     1       8.601  16.927  90.986  1.00  0.00     0.074 A
HETATM   18  C12 UNL     1       7.955  17.116  92.178  1.00  0.00     0.025 A
HETATM   19  C13 UNL     1       8.684  17.542  93.214  1.00  0.00     0.009 A
HETATM   20  C14 UNL     1      10.020  17.758  93.000  1.00  0.00     0.050 A
HETATM   21  S2  UNL     1      10.210  17.355  91.354  1.00  0.00    -0.097 SA
ENDBRANCH  14  17
ENDBRANCH  11  13
ENDBRANCH   9  11
ENDBRANCH   8   9
ENDBRANCH   5   8
BRANCH   3  22
HETATM   22  C6  UNL     1       7.823  18.956  84.682  1.00  0.00     0.271 C
HETATM   23  O2  UNL     1       8.193  20.050  84.212  1.00  0.00    -0.266 OA
HETATM   24  N2  UNL     1       8.682  17.847  84.650  1.00  0.00    -0.272 N
ATOM     25  H2  UNL     1       8.362  16.960  85.037  1.00  0.00     0.189 HD
BRANCH  24  26
HETATM   26  N3  UNL     1       9.987  17.927  84.093  1.00  0.00    -0.342 N
ATOM     27  H32 UNL     1      10.101  18.415  83.204  1.00  0.00     0.176 HD
ATOM     28  H31 UNL     1      10.796  17.514  84.557  1.00  0.00     0.176 HD
ENDBRANCH  24  26
ENDBRANCH   3  22
BRANCH   1  29
HETATM   29  N1  UNL     1       3.070  20.097  84.713  1.00  0.00    -0.323 N
HETATM   30  C2  UNL     1       2.398  21.216  85.234  1.00  0.00     0.218 C
HETATM   31  C1  UNL     1       1.194  21.740  84.470  1.00  0.00     0.117 C
HETATM   32  O1  UNL     1       2.682  21.842  86.275  1.00  0.00    -0.274 OA
ATOM     33  H1  UNL     1       2.692  19.716  83.845  1.00  0.00     0.169 HD
ENDBRANCH   1  29
TORSDOF 8
ENDMDL