MODEL 1
REMARK VINA RESULT: -7.389885806      0.000      0.000
REMARK  9 active torsions:
REMARK  status: ('A' for Active; 'I' for Inactive)
REMARK    1  A    between atoms: C2_2  and  N1_3
REMARK    2  A    between atoms: C2_2  and  C9_17
REMARK    3  A    between atoms: N1_3  and  S1_5
REMARK    4  A    between atoms: S1_5  and  C3_8
REMARK    5  A    between atoms: C8_13  and  N2_14
REMARK       I    between atoms: C9_17  and  N3_19
REMARK    6  A    between atoms: N3_19  and  C10_21
REMARK    7  A    between atoms: C13_24  and  O6_25
REMARK    8  A    between atoms: C14_27  and  O7_28
REMARK    9  A    between atoms: C16_31  and  O8_32
ROOT
HETATM    1  C9  UNL     1       3.161  16.741  86.349  1.00  0.00     0.241 C
HETATM    2  O5  UNL     1       1.974  16.934  86.662  1.00  0.00    -0.271 OA
HETATM    3  N3  UNL     1       3.721  17.535  85.334  1.00  0.00    -0.347 N
ATOM      4  H3  UNL     1       4.696  17.356  85.095  1.00  0.00     0.163 HD
ENDROOT
BRANCH   1   5
HETATM    5  C2  UNL     1       3.951  15.718  87.017  1.00  0.00     0.180 C
HETATM    6  C1  UNL     1       3.484  14.306  86.749  1.00  0.00     0.043 C
BRANCH   5   7
HETATM    7  N1  UNL     1       5.367  15.764  86.705  1.00  0.00    -0.302 N
ATOM      8  H1  UNL     1       5.755  15.507  85.797  1.00  0.00     0.173 HD
BRANCH   7   9
HETATM    9  S1  UNL     1       6.315  16.297  88.029  1.00  0.00     0.262 S
HETATM   10  O1  UNL     1       6.567  15.182  89.005  1.00  0.00    -0.200 OA
HETATM   11  O2  UNL     1       5.503  17.363  88.786  1.00  0.00    -0.200 OA
BRANCH   9  12
HETATM   12  C3  UNL     1       7.826  17.015  87.602  1.00  0.00     0.112 A
HETATM   13  C4  UNL     1       8.866  16.940  88.543  1.00  0.00     0.028 A
HETATM   14  C5  UNL     1      10.087  17.514  88.297  1.00  0.00     0.002 A
HETATM   15  C6  UNL     1      10.305  18.175  87.111  1.00  0.00     0.003 A
HETATM   16  C7  UNL     1       9.293  18.246  86.197  1.00  0.00     0.038 A
HETATM   17  C8  UNL     1       8.035  17.667  86.425  1.00  0.00     0.126 A
BRANCH  17  18
HETATM   18  N2  UNL     1       7.069  17.798  85.426  1.00  0.00    -0.114 N
HETATM   19  O3  UNL     1       6.727  17.034  84.541  1.00  0.00    -0.532 OA
HETATM   20  O4  UNL     1       6.394  19.038  85.406  1.00  0.00    -0.532 OA
ENDBRANCH  17  18
ENDBRANCH   9  12
ENDBRANCH   7   9
ENDBRANCH   5   7
ENDBRANCH   1   5
BRANCH   3  21
HETATM   21  C10 UNL     1       3.055  18.568  84.605  1.00  0.00     0.065 C
HETATM   22  C11 UNL     1       2.761  19.764  85.486  1.00  0.00     0.036 C
HETATM   23  C12 UNL     1       1.855  20.767  84.863  1.00  0.00     0.037 C
HETATM   24  C13 UNL     1       1.728  20.669  83.376  1.00  0.00     0.155 C
HETATM   25  C14 UNL     1       2.259  19.363  82.860  1.00  0.00     0.114 C
HETATM   26  C15 UNL     1       3.686  19.097  83.361  1.00  0.00     0.077 C
HETATM   27  C16 UNL     1       1.845  18.221  83.805  1.00  0.00     0.183 C
BRANCH  24  28
HETATM   28  O6  UNL     1       0.370  20.713  83.064  1.00  0.00    -0.392 OA
ATOM     29  H6  UNL     1       0.269  21.258  82.292  1.00  0.00     0.210 HD
ENDBRANCH  24  28
BRANCH  25  30
HETATM   30  O7  UNL     1       2.042  19.086  81.541  1.00  0.00    -0.384 OA
ATOM     31  H7  UNL     1       2.290  18.220  81.237  1.00  0.00     0.210 HD
ENDBRANCH  25  30
BRANCH  27  32
HETATM   32  O8  UNL     1       0.629  18.456  84.445  1.00  0.00    -0.390 OA
ATOM     33  H8  UNL     1       0.126  19.182  84.097  1.00  0.00     0.210 HD
ENDBRANCH  27  32
ENDBRANCH   3  21
TORSDOF 9
ENDMDL