MODEL 4
REMARK VINA RESULT: -7.992651538      1.353      1.685
REMARK  11 active torsions:
REMARK  status: ('A' for Active; 'I' for Inactive)
REMARK    1  A    between atoms: C2_2  and  C3_4
REMARK    2  A    between atoms: C3_4  and  O2_5
REMARK    3  A    between atoms: C6_9  and  O3_10
REMARK    4  A    between atoms: C12_18  and  C13_19
REMARK    5  A    between atoms: C13_19  and  C14_20
REMARK    6  A    between atoms: C14_20  and  C16_22
REMARK    7  A    between atoms: C16_22  and  N1_23
REMARK    8  A    between atoms: C16_22  and  C17_27
REMARK    9  A    between atoms: C17_27  and  C18_29
REMARK   10  A    between atoms: C18_29  and  O6_31
REMARK   11  A    between atoms: O6_31  and  C20_32
ROOT
HETATM    1  C3  UNL     1       3.608  16.877  87.192  1.00  0.00     0.141 C
HETATM    2  C4  UNL     1       4.408  16.587  88.461  1.00  0.00     0.056 C
HETATM    3  C5  UNL     1       5.552  15.639  88.288  1.00  0.00     0.075 C
HETATM    4  C6  UNL     1       6.856  16.320  88.545  1.00  0.00     0.189 A
HETATM    5  O4  UNL     1       7.906  15.657  87.730  1.00  0.00    -0.341 OA
HETATM    6  C7  UNL     1       7.520  17.075  87.624  1.00  0.00     0.195 A
HETATM    7  C8  UNL     1       6.966  17.459  86.276  1.00  0.00    -0.012 C
HETATM    8  C9  UNL     1       7.186  16.398  85.235  1.00  0.00     0.018 C
HETATM    9  C10 UNL     1       7.929  18.561  85.744  1.00  0.00     0.018 C
HETATM   10  C11 UNL     1       5.619  18.085  86.295  1.00  0.00     0.049 C
HETATM   11  C12 UNL     1       4.431  17.179  86.020  1.00  0.00    -0.041 C
ENDROOT
BRANCH  11  12
HETATM   12  C13 UNL     1       3.775  17.438  84.733  1.00  0.00    -0.014 C
BRANCH  12  13
HETATM   13  C14 UNL     1       3.543  18.698  84.080  1.00  0.00     0.042 C
HETATM   14  C15 UNL     1       3.964  20.012  84.571  1.00  0.00     0.016 C
BRANCH  13  15
HETATM   15  C16 UNL     1       2.003  18.819  83.898  1.00  0.00     0.262 C
BRANCH  15  16
HETATM   16  N1  UNL     1       1.260  18.142  84.890  1.00  0.00    -0.068 N
ATOM     17  H13 UNL     1       1.663  18.302  85.813  1.00  0.00     0.275 HD
ATOM     18  H12 UNL     1       0.350  18.583  85.021  1.00  0.00     0.275 HD
ATOM     19  H11 UNL     1       1.154  17.143  84.712  1.00  0.00     0.275 HD
ENDBRANCH  15  16
BRANCH  15  20
HETATM   20  C17 UNL     1       1.540  18.483  82.547  1.00  0.00     0.186 C
HETATM   21  O5  UNL     1       2.244  18.871  81.598  1.00  0.00    -0.293 OA
BRANCH  20  22
HETATM   22  C18 UNL     1       0.295  17.711  82.255  1.00  0.00     0.199 C
HETATM   23  C19 UNL     1       0.594  16.737  81.135  1.00  0.00     0.048 C
BRANCH  22  24
HETATM   24  O6  UNL     1      -0.725  18.599  81.908  1.00  0.00    -0.312 OA
BRANCH  24  25
HETATM   25  C20 UNL     1      -1.812  18.916  82.687  1.00  0.00     0.225 C
HETATM   26  N2  UNL     1      -1.709  19.941  83.445  1.00  0.00    -0.368 N
ATOM     27  H22 UNL     1      -0.844  20.481  83.449  1.00  0.00     0.159 HD
ATOM     28  H21 UNL     1      -2.515  20.177  84.023  1.00  0.00     0.159 HD
HETATM   29  N3  UNL     1      -3.015  18.165  82.681  1.00  0.00    -0.057 NA
ENDBRANCH  24  25
ENDBRANCH  22  24
ENDBRANCH  20  22
ENDBRANCH  15  20
ENDBRANCH  13  15
ENDBRANCH  12  13
ENDBRANCH  11  12
BRANCH   1  30
HETATM   30  C2  UNL     1       2.727  15.683  87.026  1.00  0.00     0.161 C
HETATM   31  C1  UNL     1       3.166  14.306  86.804  1.00  0.00     0.094 C
HETATM   32  O1  UNL     1       1.525  15.877  87.079  1.00  0.00    -0.295 OA
ENDBRANCH   1  30
BRANCH   1  33
HETATM   33  O2  UNL     1       2.726  17.875  87.634  1.00  0.00    -0.377 OA
ATOM     34  H2  UNL     1       2.980  18.636  87.124  1.00  0.00     0.211 HD
ENDBRANCH   1  33
BRANCH   4  35
HETATM   35  O3  UNL     1       7.174  16.412  89.906  1.00  0.00    -0.363 OA
ATOM     36  H3  UNL     1       6.867  17.215  90.311  1.00  0.00     0.213 HD
ENDBRANCH   4  35
TORSDOF 11
ENDMDL