MODEL 4
REMARK VINA RESULT: -8.826211085      1.757      2.113
REMARK  8 active torsions:
REMARK  status: ('A' for Active; 'I' for Inactive)
REMARK    1  A    between atoms: N1_1  and  N2_4
REMARK       I    between atoms: N2_4  and  C1_6
REMARK    2  A    between atoms: C1_6  and  C2_8
REMARK    3  A    between atoms: C2_8  and  N3_9
REMARK    4  A    between atoms: C4_11  and  C5_12
REMARK    5  A    between atoms: C9_16  and  N4_17
REMARK       I    between atoms: N4_17  and  C10_19
REMARK    6  A    between atoms: C10_19  and  C11_21
REMARK       I    between atoms: C11_21  and  N5_23
REMARK    7  A    between atoms: N5_23  and  N6_25
REMARK       I    between atoms: N6_25  and  C12_27
REMARK    8  A    between atoms: C12_27  and  C13_29
ROOT
HETATM    1  C5  UNL     1       9.484  17.524  88.342  1.00  0.00    -0.005 A
HETATM    2  C6  UNL     1       8.206  17.111  88.130  1.00  0.00     0.014 A
HETATM    3  C7  UNL     1       7.576  17.169  86.913  1.00  0.00     0.003 A
HETATM    4  C8  UNL     1       8.292  17.677  85.862  1.00  0.00     0.029 A
HETATM    5  C9  UNL     1       9.614  18.119  86.015  1.00  0.00     0.036 A
HETATM    6  C18 UNL     1      10.193  18.039  87.246  1.00  0.00     0.043 A
ENDROOT
BRANCH   5   7
HETATM    7  N4  UNL     1      10.278  18.647  84.899  1.00  0.00    -0.319 N
HETATM    8  C10 UNL     1       9.808  19.680  84.072  1.00  0.00     0.315 C
HETATM    9  O2  UNL     1       8.717  20.241  84.276  1.00  0.00    -0.262 OA
ATOM     10  H4  UNL     1      11.184  18.243  84.666  1.00  0.00     0.169 HD
BRANCH   8  11
HETATM   11  C11 UNL     1      10.607  20.119  82.941  1.00  0.00     0.328 C
HETATM   12  O3  UNL     1      10.125  20.069  81.790  1.00  0.00    -0.261 OA
HETATM   13  N5  UNL     1      11.923  20.601  83.121  1.00  0.00    -0.259 N
ATOM     14  H5  UNL     1      12.303  20.637  84.068  1.00  0.00     0.190 HD
BRANCH  13  15
HETATM   15  N6  UNL     1      12.723  21.029  82.069  1.00  0.00    -0.267 N
HETATM   16  C12 UNL     1      13.365  22.286  82.126  1.00  0.00     0.240 C
HETATM   17  O4  UNL     1      13.252  23.068  83.105  1.00  0.00    -0.271 OA
ATOM     18  H6  UNL     1      12.847  20.432  81.252  1.00  0.00     0.190 HD
BRANCH  16  19
HETATM   19  C13 UNL     1      14.230  22.755  80.989  1.00  0.00     0.079 C
HETATM   20  C14 UNL     1      14.622  24.183  81.146  1.00  0.00     0.014 C
HETATM   21  C15 UNL     1      15.912  24.271  80.348  1.00  0.00     0.001 C
HETATM   22  C16 UNL     1      16.621  22.953  80.668  1.00  0.00     0.001 C
HETATM   23  C17 UNL     1      15.534  22.001  81.099  1.00  0.00     0.014 C
ENDBRANCH  16  19
ENDBRANCH  13  15
ENDBRANCH   8  11
ENDBRANCH   5   7
BRANCH   1  24
HETATM   24  C4  UNL     1      10.118  17.441  89.651  1.00  0.00     0.073 A
HETATM   25  C3  UNL     1       9.453  17.380  90.857  1.00  0.00     0.139 A
HETATM   26  N3  UNL     1      10.397  17.309  91.814  1.00  0.00    -0.276 N
HETATM   27  N8  UNL     1      11.585  17.327  91.216  1.00  0.00    -0.020 NA
HETATM   28  N7  UNL     1      11.432  17.407  89.906  1.00  0.00    -0.282 N
ATOM     29  H7  UNL     1      12.180  17.437  89.214  1.00  0.00     0.184 HD
BRANCH  26  30
HETATM   30  C2  UNL     1      10.121  17.225  93.239  1.00  0.00     0.250 C
BRANCH  30  31
HETATM   31  C1  UNL     1       8.720  17.598  93.510  1.00  0.00     0.255 C
HETATM   32  N2  UNL     1       7.810  16.632  93.961  1.00  0.00    -0.275 N
ATOM     33  H2  UNL     1       8.116  15.669  94.103  1.00  0.00     0.189 HD
HETATM   34  O1  UNL     1       8.357  18.778  93.335  1.00  0.00    -0.270 OA
BRANCH  32  35
HETATM   35  N1  UNL     1       6.473  16.993  94.217  1.00  0.00    -0.343 N
ATOM     36  H12 UNL     1       6.247  17.975  94.374  1.00  0.00     0.176 HD
ATOM     37  H11 UNL     1       5.750  16.275  94.243  1.00  0.00     0.176 HD
ENDBRANCH  32  35
ENDBRANCH  30  31
ENDBRANCH  26  30
ENDBRANCH   1  24
TORSDOF 8
ENDMDL