MODEL 2
REMARK VINA RESULT: -7.480776619      2.784      5.193
REMARK  8 active torsions:
REMARK  status: ('A' for Active; 'I' for Inactive)
REMARK    1  A    between atoms: N1_2  and  C2_5
REMARK    2  A    between atoms: C2_5  and  C3_6
REMARK    3  A    between atoms: C3_6  and  N2_7
REMARK    4  A    between atoms: N2_7  and  C4_10
REMARK    5  A    between atoms: C12_18  and  O1_19
REMARK    6  A    between atoms: C20_28  and  O2_29
REMARK    7  A    between atoms: C23_33  and  O3_34
REMARK    8  A    between atoms: C25_37  and  O4_38
ROOT
HETATM    1  C4  UNL     1      29.233  -7.838 -11.852  1.00  0.00     0.191 C
HETATM    2  C5  UNL     1      28.943  -7.720 -13.327  1.00  0.00     0.068 C
HETATM    3  C6  UNL     1      29.140  -9.161 -13.752  1.00  0.00    -0.066 C
HETATM    4  C7  UNL     1      28.677 -10.215 -12.840  1.00  0.00    -0.068 C
HETATM    5  C8  UNL     1      28.267 -11.438 -13.607  1.00  0.00     0.036 C
HETATM    6  C9  UNL     1      29.443 -11.704 -14.567  1.00  0.00     0.010 C
HETATM    7  C10 UNL     1      29.570 -10.618 -15.581  1.00  0.00     0.001 C
HETATM    8  C11 UNL     1      29.359 -11.046 -16.994  1.00  0.00     0.037 C
HETATM    9  C12 UNL     1      29.996  -9.946 -17.855  1.00  0.00     0.118 C
HETATM   10  C13 UNL     1      29.532  -8.589 -17.483  1.00  0.00     0.033 C
HETATM   11  C14 UNL     1      29.648  -8.254 -16.003  1.00  0.00     0.016 C
HETATM   12  C15 UNL     1      28.859  -9.329 -15.222  1.00  0.00    -0.016 C
HETATM   13  C16 UNL     1      27.480  -9.175 -15.677  1.00  0.00     0.020 C
HETATM   14  C17 UNL     1      27.840  -9.891 -11.616  1.00  0.00    -0.010 C
HETATM   15  C18 UNL     1      28.576 -10.401 -10.357  1.00  0.00     0.017 C
HETATM   16  C19 UNL     1      28.361 -11.818 -10.053  1.00  0.00     0.034 C
HETATM   17  C20 UNL     1      26.957 -12.286 -10.037  1.00  0.00     0.129 C
HETATM   18  C21 UNL     1      25.953 -11.334 -10.597  1.00  0.00     0.013 C
HETATM   19  C22 UNL     1      24.929 -12.274 -11.291  1.00  0.00     0.021 C
HETATM   20  C23 UNL     1      25.126 -10.744  -9.490  1.00  0.00     0.131 C
HETATM   21  C24 UNL     1      24.082  -9.786  -9.923  1.00  0.00     0.064 C
HETATM   22  C25 UNL     1      24.807  -8.691 -10.711  1.00  0.00     0.121 C
HETATM   23  C26 UNL     1      25.363  -9.373 -11.914  1.00  0.00     0.038 C
HETATM   24  C27 UNL     1      26.434 -10.389 -11.642  1.00  0.00     0.014 C
HETATM   25  C28 UNL     1      27.888  -8.371 -11.333  1.00  0.00     0.047 C
ENDROOT
BRANCH   1  26
HETATM   26  N2  UNL     1      29.691  -6.725 -11.145  1.00  0.00    -0.069 N
ATOM     27  H22 UNL     1      30.081  -7.001 -10.243  1.00  0.00     0.277 HD
ATOM     28  H21 UNL     1      28.913  -6.153 -10.820  1.00  0.00     0.277 HD
BRANCH  26  29
HETATM   29  C3  UNL     1      30.630  -5.942 -11.895  1.00  0.00     0.260 C
BRANCH  29  30
HETATM   30  C2  UNL     1      30.431  -4.450 -11.719  1.00  0.00     0.259 C
BRANCH  30  31
HETATM   31  N1  UNL     1      29.019  -4.116 -11.813  1.00  0.00    -0.077 N
HETATM   32  C1  UNL     1      28.699  -3.942 -13.213  1.00  0.00     0.267 C
ATOM     33  H12 UNL     1      28.765  -3.308 -11.246  1.00  0.00     0.276 HD
ATOM     34  H11 UNL     1      28.418  -4.800 -11.352  1.00  0.00     0.276 HD
ENDBRANCH  30  31
ENDBRANCH  29  30
ENDBRANCH  26  29
ENDBRANCH   1  26
BRANCH  17  35
HETATM   35  O2  UNL     1      26.947 -13.547 -10.687  1.00  0.00    -0.395 OA
ATOM     36  H2  UNL     1      27.843 -13.721 -10.951  1.00  0.00     0.210 HD
ENDBRANCH  17  35
BRANCH  20  37
HETATM   37  O3  UNL     1      25.841 -10.188  -8.451  1.00  0.00    -0.395 OA
ATOM     38  H3  UNL     1      25.935 -10.736  -7.682  1.00  0.00     0.210 HD
ENDBRANCH  20  37
BRANCH  22  39
HETATM   39  O4  UNL     1      23.862  -7.775 -11.129  1.00  0.00    -0.395 OA
ATOM     40  H4  UNL     1      23.110  -7.850 -10.553  1.00  0.00     0.210 HD
ENDBRANCH  22  39
BRANCH   9  41
HETATM   41  O1  UNL     1      29.711 -10.164 -19.192  1.00  0.00    -0.396 OA
ATOM     42  H1  UNL     1      30.190  -9.546 -19.732  1.00  0.00     0.210 HD
ENDBRANCH   9  41
TORSDOF 8
ENDMDL