MODEL 4
REMARK VINA RESULT: -8.738791930      1.291      1.664
REMARK  9 active torsions:
REMARK  status: ('A' for Active; 'I' for Inactive)
REMARK    1  A    between atoms: N1_1  and  N2_4
REMARK    2  A    between atoms: C1_6  and  C2_7
REMARK    3  A    between atoms: C1_6  and  N5_24
REMARK    4  A    between atoms: C2_7  and  C3_8
REMARK    5  A    between atoms: C3_8  and  N3_9
REMARK    6  A    between atoms: N3_9  and  C4_12
REMARK    7  A    between atoms: C7_15  and  N4_16
REMARK    8  A    between atoms: C8_20  and  O1_21
REMARK    9  A    between atoms: N5_24  and  C10_26
ROOT
HETATM    1  N2  UNL     1      24.054  -9.719  -7.451  1.00  0.00    -0.296 N
ATOM      2  H2  UNL     1      24.196 -10.126  -6.527  1.00  0.00     0.187 HD
HETATM    3  C1  UNL     1      24.731 -10.188  -8.428  1.00  0.00     0.093 C
ENDROOT
BRANCH   3   4
HETATM    4  C2  UNL     1      25.684 -11.286  -8.202  1.00  0.00     0.105 C
BRANCH   4   5
HETATM    5  C3  UNL     1      25.527 -11.743  -6.745  1.00  0.00     0.240 C
BRANCH   5   6
HETATM    6  N3  UNL     1      25.215 -13.159  -6.810  1.00  0.00    -0.070 N
ATOM      7  H32 UNL     1      24.241 -13.319  -7.066  1.00  0.00     0.277 HD
ATOM      8  H31 UNL     1      25.661 -13.606  -7.611  1.00  0.00     0.277 HD
BRANCH   6   9
HETATM    9  C4  UNL     1      25.562 -13.828  -5.555  1.00  0.00     0.188 C
HETATM   10  C5  UNL     1      25.317 -15.292  -5.759  1.00  0.00     0.035 C
HETATM   11  C6  UNL     1      26.219 -16.183  -4.979  1.00  0.00     0.037 C
HETATM   12  C7  UNL     1      26.829 -15.514  -3.767  1.00  0.00     0.212 C
HETATM   13  C8  UNL     1      27.633 -14.348  -4.230  1.00  0.00     0.150 C
HETATM   14  C9  UNL     1      26.962 -13.471  -5.222  1.00  0.00     0.067 C
BRANCH  12  15
HETATM   15  N4  UNL     1      27.769 -16.493  -3.197  1.00  0.00    -0.073 N
ATOM     16  H43 UNL     1      28.383 -16.919  -3.891  1.00  0.00     0.274 HD
ATOM     17  H42 UNL     1      28.501 -16.070  -2.628  1.00  0.00     0.274 HD
ATOM     18  H41 UNL     1      27.196 -17.168  -2.691  1.00  0.00     0.274 HD
ENDBRANCH  12  15
BRANCH  13  19
HETATM   19  O1  UNL     1      28.066 -13.655  -3.080  1.00  0.00    -0.393 OA
ATOM     20  H1  UNL     1      28.559 -14.270  -2.550  1.00  0.00     0.210 HD
ENDBRANCH  13  19
ENDBRANCH   6   9
ENDBRANCH   5   6
ENDBRANCH   4   5
ENDBRANCH   3   4
BRANCH   3  21
HETATM   21  N5  UNL     1      24.564  -9.654  -9.713  1.00  0.00    -0.365 N
ATOM     22  H5  UNL     1      23.615  -9.598 -10.084  1.00  0.00     0.161 HD
BRANCH  21  23
HETATM   23  C10 UNL     1      25.641  -9.176 -10.548  1.00  0.00     0.175 C
HETATM   24  C11 UNL     1      26.030 -10.122 -11.644  1.00  0.00     0.035 C
HETATM   25  C12 UNL     1      27.034 -11.158 -11.224  1.00  0.00     0.002 C
HETATM   26  C13 UNL     1      28.059 -11.445 -12.292  1.00  0.00     0.000 C
HETATM   27  C14 UNL     1      27.518 -11.236 -13.685  1.00  0.00     0.000 C
HETATM   28  C15 UNL     1      28.304 -12.131 -14.647  1.00  0.00     0.000 C
HETATM   29  C16 UNL     1      29.721 -11.681 -14.792  1.00  0.00     0.000 C
HETATM   30  C17 UNL     1      29.943 -10.838 -16.029  1.00  0.00     0.000 C
HETATM   31  C18 UNL     1      30.655  -9.543 -15.701  1.00  0.00     0.000 C
HETATM   32  C19 UNL     1      30.116  -8.375 -16.463  1.00  0.00     0.000 C
HETATM   33  C20 UNL     1      28.914  -7.747 -15.831  1.00  0.00     0.000 C
HETATM   34  C21 UNL     1      29.230  -7.065 -14.540  1.00  0.00     0.000 C
HETATM   35  C22 UNL     1      27.946  -6.770 -13.772  1.00  0.00     0.002 C
HETATM   36  C23 UNL     1      28.329  -6.227 -12.419  1.00  0.00     0.020 C
HETATM   37  C24 UNL     1      27.611  -7.010 -11.335  1.00  0.00     0.122 C
HETATM   38  N6  UNL     1      26.187  -6.895 -11.572  1.00  0.00    -0.359 N
HETATM   39  C25 UNL     1      25.246  -7.891 -11.184  1.00  0.00     0.240 C
ATOM     40  H6  UNL     1      25.840  -6.058 -12.040  1.00  0.00     0.162 HD
HETATM   41  O2  UNL     1      24.002  -7.713 -11.372  1.00  0.00    -0.271 OA
ENDBRANCH  21  23
ENDBRANCH   3  21
BRANCH   1  42
HETATM   42  N1  UNL     1      23.130  -8.678  -7.580  1.00  0.00    -0.344 N
ATOM     43  H12 UNL     1      22.237  -8.900  -8.019  1.00  0.00     0.176 HD
ATOM     44  H11 UNL     1      23.306  -7.725  -7.260  1.00  0.00     0.176 HD
ENDBRANCH   1  42
TORSDOF 9
ENDMDL