MODEL 5
REMARK VINA RESULT: -7.346447040      1.710      7.578
REMARK  10 active torsions:
REMARK  status: ('A' for Active; 'I' for Inactive)
REMARK    1  A    between atoms: C15_16  and  C17_18
REMARK    2  A    between atoms: C17_18  and  C18_19
REMARK    3  A    between atoms: C18_19  and  O2_20
REMARK    4  A    between atoms: C18_19  and  C19_22
REMARK    5  A    between atoms: C19_22  and  O3_23
REMARK    6  A    between atoms: C19_22  and  C20_25
REMARK    7  A    between atoms: C20_25  and  C21_26
REMARK    8  A    between atoms: C21_26  and  O4_27
REMARK    9  A    between atoms: C26_33  and  O5_34
REMARK   10  A    between atoms: C27_36  and  O6_37
ROOT
HETATM    1  C1  UNL     1      23.509 -10.952 -11.768  1.00  0.00     0.018 C
HETATM    2  C2  UNL     1      24.708 -11.454 -11.025  1.00  0.00    -0.011 C
HETATM    3  C3  UNL     1      25.499 -12.495 -11.705  1.00  0.00     0.012 C
HETATM    4  C4  UNL     1      26.865 -11.987 -12.210  1.00  0.00     0.007 C
HETATM    5  C5  UNL     1      26.674 -10.602 -12.832  1.00  0.00    -0.001 C
HETATM    6  C6  UNL     1      26.395  -9.694 -11.664  1.00  0.00     0.002 C
HETATM    7  C7  UNL     1      27.768  -9.330 -11.077  1.00  0.00     0.084 C
HETATM    8  C8  UNL     1      28.313  -8.424 -12.146  1.00  0.00     0.133 C
HETATM    9  O1  UNL     1      28.442  -7.294 -11.829  1.00  0.00    -0.298 OA
HETATM   10  C9  UNL     1      28.611  -9.087 -13.453  1.00  0.00     0.072 C
HETATM   11  C10 UNL     1      27.678 -10.180 -13.814  1.00  0.00    -0.029 C
HETATM   12  C11 UNL     1      28.481 -11.467 -14.143  1.00  0.00     0.016 C
HETATM   13  C12 UNL     1      26.935  -9.946 -15.137  1.00  0.00     0.010 C
HETATM   14  C13 UNL     1      27.821  -9.514 -16.229  1.00  0.00     0.002 C
HETATM   15  C14 UNL     1      28.867  -8.533 -15.908  1.00  0.00     0.011 C
HETATM   16  C15 UNL     1      28.871  -8.015 -14.463  1.00  0.00    -0.023 C
HETATM   17  C16 UNL     1      27.798  -6.962 -14.422  1.00  0.00     0.017 C
HETATM   18  C24 UNL     1      25.648 -10.359 -10.581  1.00  0.00     0.003 C
HETATM   19  C25 UNL     1      24.733  -9.495  -9.785  1.00  0.00     0.040 C
HETATM   20  C26 UNL     1      23.937 -10.532  -8.983  1.00  0.00     0.148 C
HETATM   21  C27 UNL     1      24.198 -11.874  -9.637  1.00  0.00     0.155 C
ENDROOT
BRANCH  16  22
HETATM   22  C17 UNL     1      30.302  -7.442 -14.378  1.00  0.00    -0.004 A
HETATM   23  C22 UNL     1      30.809  -7.176 -15.771  1.00  0.00     0.014 A
HETATM   24  C23 UNL     1      31.478  -8.135 -14.813  1.00  0.00     0.014 A
BRANCH  22  25
HETATM   25  C18 UNL     1      30.401  -6.294 -13.407  1.00  0.00     0.156 C
BRANCH  25  26
HETATM   26  O2  UNL     1      31.436  -6.511 -12.486  1.00  0.00    -0.392 OA
ATOM     27  H2  UNL     1      31.178  -6.227 -11.617  1.00  0.00     0.210 HD
ENDBRANCH  25  26
BRANCH  25  28
HETATM   28  C19 UNL     1      30.662  -4.939 -13.949  1.00  0.00     0.149 C
BRANCH  28  29
HETATM   29  O3  UNL     1      31.930  -4.443 -13.922  1.00  0.00    -0.393 OA
ATOM     30  H3  UNL     1      32.077  -3.562 -13.598  1.00  0.00     0.210 HD
ENDBRANCH  28  29
BRANCH  28  31
HETATM   31  C20 UNL     1      29.562  -3.922 -13.723  1.00  0.00     0.060 C
BRANCH  31  32
HETATM   32  C21 UNL     1      29.366  -3.846 -12.195  1.00  0.00     0.166 C
BRANCH  32  33
HETATM   33  O4  UNL     1      28.069  -4.119 -11.837  1.00  0.00    -0.401 OA
ATOM     34  H4  UNL     1      27.480  -4.049 -12.578  1.00  0.00     0.209 HD
ENDBRANCH  32  33
ENDBRANCH  31  32
ENDBRANCH  28  31
ENDBRANCH  25  28
ENDBRANCH  22  25
ENDBRANCH  16  22
BRANCH  21  35
HETATM   35  O6  UNL     1      22.999 -12.536  -9.799  1.00  0.00    -0.392 OA
ATOM     36  H6  UNL     1      23.182 -13.407 -10.129  1.00  0.00     0.210 HD
ENDBRANCH  21  35
BRANCH  20  37
HETATM   37  O5  UNL     1      22.592 -10.223  -8.937  1.00  0.00    -0.393 OA
ATOM     38  H5  UNL     1      22.331  -9.907  -8.080  1.00  0.00     0.210 HD
ENDBRANCH  20  37
TORSDOF 10
ENDMDL