MODEL 5
REMARK VINA RESULT: -7.016267642      2.809      5.951
REMARK  10 active torsions:
REMARK  status: ('A' for Active; 'I' for Inactive)
REMARK    1  A    between atoms: C2_2  and  C3_3
REMARK    2  A    between atoms: C3_3  and  C4_4
REMARK    3  A    between atoms: C4_4  and  C5_5
REMARK    4  A    between atoms: C8_8  and  O1_9
REMARK    5  A    between atoms: C9_11  and  O2_12
REMARK    6  A    between atoms: O2_12  and  C10_13
REMARK    7  A    between atoms: C14_20  and  N2_21
REMARK    8  A    between atoms: C21_31  and  O3_32
REMARK    9  A    between atoms: C23_35  and  O4_36
REMARK   10  A    between atoms: C24_38  and  O5_39
ROOT
HETATM    1  C4  UNL     1      28.334  -9.672 -15.954  1.00  0.00     0.002 C
HETATM    2  C8  UNL     1      27.809  -8.312 -15.553  1.00  0.00     0.157 C
HETATM    3  C9  UNL     1      27.591  -8.039 -14.098  1.00  0.00     0.152 C
HETATM    4  C15 UNL     1      28.766  -8.433 -13.262  1.00  0.00     0.041 C
HETATM    5  C16 UNL     1      29.117  -9.832 -13.570  1.00  0.00     0.008 C
HETATM    6  C17 UNL     1      29.306 -10.571 -12.256  1.00  0.00    -0.006 C
HETATM    7  C18 UNL     1      30.359  -9.662 -11.531  1.00  0.00     0.019 C
HETATM    8  C19 UNL     1      28.155 -10.539 -11.325  1.00  0.00     0.015 C
HETATM    9  C20 UNL     1      27.944 -11.763 -10.479  1.00  0.00     0.032 C
HETATM   10  C21 UNL     1      29.115 -12.680 -10.388  1.00  0.00     0.121 C
HETATM   11  C22 UNL     1      29.445 -13.072 -11.825  1.00  0.00     0.073 C
HETATM   12  C23 UNL     1      30.036 -11.829 -12.463  1.00  0.00     0.093 C
HETATM   13  C24 UNL     1      30.408 -11.985 -13.895  1.00  0.00     0.154 C
HETATM   14  C25 UNL     1      29.359 -11.746 -14.915  1.00  0.00     0.045 C
HETATM   15  C26 UNL     1      28.481 -10.518 -14.714  1.00  0.00    -0.026 C
HETATM   16  C27 UNL     1      27.122 -11.161 -14.404  1.00  0.00     0.016 C
ENDROOT
BRANCH   3  17
HETATM   17  O2  UNL     1      27.484  -6.636 -14.016  1.00  0.00    -0.374 OA
BRANCH  17  18
HETATM   18  C10 UNL     1      28.471  -6.008 -13.324  1.00  0.00     0.178 C
HETATM   19  C11 UNL     1      28.127  -5.315 -12.060  1.00  0.00     0.266 C
HETATM   20  N1  UNL     1      29.334  -4.734 -11.505  1.00  0.00    -0.073 N
HETATM   21  C12 UNL     1      30.532  -5.280 -12.048  1.00  0.00     0.234 C
ATOM     22  H12 UNL     1      29.324  -3.719 -11.603  1.00  0.00     0.277 HD
ATOM     23  H11 UNL     1      29.334  -4.806 -10.488  1.00  0.00     0.277 HD
HETATM   24  C13 UNL     1      30.686  -5.002 -13.532  1.00  0.00     0.063 C
HETATM   25  C14 UNL     1      29.306  -5.051 -14.154  1.00  0.00     0.215 C
BRANCH  25  26
HETATM   26  N2  UNL     1      28.794  -3.737 -14.228  1.00  0.00    -0.072 N
ATOM     27  H23 UNL     1      27.775  -3.756 -14.285  1.00  0.00     0.274 HD
ATOM     28  H22 UNL     1      28.910  -3.261 -13.334  1.00  0.00     0.274 HD
ATOM     29  H21 UNL     1      29.182  -3.173 -14.983  1.00  0.00     0.274 HD
ENDBRANCH  25  26
ENDBRANCH  17  18
ENDBRANCH   3  17
BRANCH   2  30
HETATM   30  O1  UNL     1      26.580  -7.955 -16.080  1.00  0.00    -0.392 OA
ATOM     31  H1  UNL     1      26.521  -7.083 -16.452  1.00  0.00     0.210 HD
ENDBRANCH   2  30
BRANCH   1  32
HETATM   32  C3  UNL     1      29.518  -9.449 -16.813  1.00  0.00     0.039 C
BRANCH  32  33
HETATM   33  C2  UNL     1      30.277  -8.181 -16.756  1.00  0.00    -0.036 C
HETATM   34  C1  UNL     1      31.390  -8.131 -16.051  1.00  0.00     0.007 C
ENDBRANCH  32  33
ENDBRANCH   1  32
BRANCH   1  35
HETATM   35  C5  UNL     1      27.300 -10.303 -16.925  1.00  0.00    -0.011 C
HETATM   36  C6  UNL     1      26.013  -9.524 -17.004  1.00  0.00     0.010 C
HETATM   37  C7  UNL     1      27.714 -10.410 -18.348  1.00  0.00     0.010 C
ENDBRANCH   1  35
BRANCH  12  38
HETATM   38  O4  UNL     1      31.338 -11.863 -11.858  1.00  0.00    -0.386 OA
ATOM     39  H4  UNL     1      31.908 -12.542 -12.197  1.00  0.00     0.210 HD
ENDBRANCH  12  38
BRANCH  13  40
HETATM   40  O5  UNL     1      30.821 -13.337 -14.034  1.00  0.00    -0.392 OA
ATOM     41  H5  UNL     1      31.123 -13.600 -13.173  1.00  0.00     0.210 HD
ENDBRANCH  13  40
BRANCH  10  42
HETATM   42  O3  UNL     1      28.650 -13.863  -9.760  1.00  0.00    -0.395 OA
ATOM     43  H3  UNL     1      29.219 -14.013  -9.015  1.00  0.00     0.210 HD
ENDBRANCH  10  42
TORSDOF 10
ENDMDL