MODEL 1
REMARK VINA RESULT: -8.222127259      0.000      0.000
REMARK  11 active torsions:
REMARK  status: ('A' for Active; 'I' for Inactive)
REMARK    1  A    between atoms: C2_2  and  C4_4
REMARK    2  A    between atoms: C4_4  and  C5_5
REMARK    3  A    between atoms: C5_5  and  C6_6
REMARK    4  A    between atoms: C6_6  and  C7_7
REMARK    5  A    between atoms: C7_7  and  C9_9
REMARK    6  A    between atoms: C15_15  and  O1_16
REMARK    7  A    between atoms: C18_20  and  O2_21
REMARK    8  A    between atoms: C19_23  and  O3_24
REMARK    9  A    between atoms: C21_27  and  O4_28
REMARK   10  A    between atoms: C23_31  and  O5_32
REMARK   11  A    between atoms: C24_34  and  O6_35
ROOT
HETATM    1  C9  UNL     1      29.538 -10.782 -14.445  1.00  0.00    -0.002 C
HETATM    2  C10 UNL     1      28.197 -11.266 -15.052  1.00  0.00     0.006 C
HETATM    3  C11 UNL     1      27.562 -12.082 -13.969  1.00  0.00     0.011 C
HETATM    4  C12 UNL     1      28.229 -11.668 -12.668  1.00  0.00    -0.027 C
HETATM    5  C13 UNL     1      29.133 -12.850 -12.312  1.00  0.00     0.016 C
HETATM    6  C14 UNL     1      27.197 -11.532 -11.650  1.00  0.00     0.061 C
HETATM    7  C15 UNL     1      27.626 -11.938 -10.239  1.00  0.00     0.127 C
HETATM    8  C16 UNL     1      27.158 -10.867  -9.308  1.00  0.00     0.048 C
HETATM    9  C17 UNL     1      25.923 -10.377 -10.104  1.00  0.00     0.031 C
HETATM   10  C18 UNL     1      25.353  -9.242  -9.354  1.00  0.00     0.159 C
HETATM   11  C19 UNL     1      23.980  -9.835  -8.912  1.00  0.00     0.154 C
HETATM   12  C20 UNL     1      23.667 -10.486 -10.215  1.00  0.00     0.054 A
HETATM   13  C21 UNL     1      23.742 -11.787 -10.733  1.00  0.00     0.130 A
HETATM   14  C22 UNL     1      24.929 -11.436 -10.050  1.00  0.00     0.038 A
HETATM   15  C23 UNL     1      26.597 -10.144 -11.414  1.00  0.00     0.101 C
HETATM   16  C24 UNL     1      27.788  -9.240 -11.400  1.00  0.00     0.154 C
HETATM   17  C25 UNL     1      28.278  -9.255 -12.866  1.00  0.00     0.045 C
HETATM   18  C26 UNL     1      29.090 -10.493 -13.006  1.00  0.00    -0.030 C
HETATM   19  C27 UNL     1      30.332 -10.350 -12.205  1.00  0.00     0.016 C
ENDROOT
BRANCH  10  20
HETATM   20  O2  UNL     1      24.880  -8.184 -10.172  1.00  0.00    -0.392 OA
ATOM     21  H2  UNL     1      25.089  -7.316  -9.848  1.00  0.00     0.210 HD
ENDBRANCH  10  20
BRANCH  15  22
HETATM   22  O5  UNL     1      25.784  -9.700 -12.414  1.00  0.00    -0.386 OA
ATOM     23  H5  UNL     1      25.542  -8.784 -12.349  1.00  0.00     0.210 HD
ENDBRANCH  15  22
BRANCH   7  24
HETATM   24  O1  UNL     1      27.005 -13.153  -9.867  1.00  0.00    -0.395 OA
ATOM     25  H1  UNL     1      27.572 -13.888 -10.067  1.00  0.00     0.210 HD
ENDBRANCH   7  24
BRANCH  11  26
HETATM   26  O3  UNL     1      23.114  -8.827  -8.560  1.00  0.00    -0.392 OA
ATOM     27  H3  UNL     1      22.819  -8.942  -7.664  1.00  0.00     0.210 HD
ENDBRANCH  11  26
BRANCH  13  28
HETATM   28  O4  UNL     1      22.799 -12.706 -10.206  1.00  0.00    -0.395 OA
ATOM     29  H4  UNL     1      23.169 -13.488  -9.813  1.00  0.00     0.210 HD
ENDBRANCH  13  28
BRANCH  16  30
HETATM   30  O6  UNL     1      27.568  -7.928 -11.099  1.00  0.00    -0.392 OA
ATOM     31  H6  UNL     1      27.023  -7.743 -10.343  1.00  0.00     0.210 HD
ENDBRANCH  16  30
BRANCH   1  32
HETATM   32  C7  UNL     1      29.929  -9.607 -15.228  1.00  0.00    -0.014 C
HETATM   33  C8  UNL     1      31.259  -9.571 -15.889  1.00  0.00     0.010 C
BRANCH  32  34
HETATM   34  C6  UNL     1      28.899  -9.179 -16.210  1.00  0.00     0.005 C
BRANCH  34  35
HETATM   35  C5  UNL     1      29.279  -8.550 -17.470  1.00  0.00     0.001 C
BRANCH  35  36
HETATM   36  C4  UNL     1      28.955  -9.197 -18.762  1.00  0.00     0.004 C
BRANCH  36  37
HETATM   37  C2  UNL     1      28.498 -10.663 -18.530  1.00  0.00    -0.023 C
HETATM   38  C1  UNL     1      27.179 -10.921 -19.189  1.00  0.00     0.009 C
HETATM   39  C3  UNL     1      29.538 -11.543 -19.192  1.00  0.00     0.009 C
ENDBRANCH  36  37
ENDBRANCH  35  36
ENDBRANCH  34  35
ENDBRANCH  32  34
ENDBRANCH   1  32
TORSDOF 11
ENDMDL