MODEL 4
REMARK VINA RESULT: -7.084490642      1.702      7.063
REMARK  11 active torsions:
REMARK  status: ('A' for Active; 'I' for Inactive)
REMARK    1  A    between atoms: C2_2  and  C3_3
REMARK    2  A    between atoms: C2_2  and  C6_10
REMARK    3  A    between atoms: C3_3  and  O1_4
REMARK    4  A    between atoms: C3_3  and  C4_6
REMARK    5  A    between atoms: C4_6  and  C5_7
REMARK    6  A    between atoms: C5_7  and  O2_8
REMARK    7  A    between atoms: C6_10  and  C8_12
REMARK    8  A    between atoms: C13_17  and  O3_18
REMARK    9  A    between atoms: C15_21  and  O4_22
REMARK   10  A    between atoms: C16_24  and  O5_25
REMARK   11  A    between atoms: C25_35  and  O6_36
ROOT
HETATM    1  C8  UNL     1      29.243 -10.164 -11.658  1.00  0.00    -0.005 C
HETATM    2  C9  UNL     1      28.145  -9.766 -10.606  1.00  0.00     0.011 C
HETATM    3  C10 UNL     1      26.861 -10.395 -10.945  1.00  0.00    -0.001 C
HETATM    4  C11 UNL     1      26.327  -9.595 -12.131  1.00  0.00     0.001 C
HETATM    5  C12 UNL     1      25.658  -8.297 -11.645  1.00  0.00     0.038 C
HETATM    6  C13 UNL     1      24.448  -8.696 -10.785  1.00  0.00     0.126 C
HETATM    7  C14 UNL     1      24.993  -9.383  -9.576  1.00  0.00     0.054 C
HETATM    8  C15 UNL     1      23.895  -9.704  -8.622  1.00  0.00     0.154 C
HETATM    9  C16 UNL     1      24.327 -10.368  -7.367  1.00  0.00     0.147 C
HETATM   10  C17 UNL     1      25.522 -11.239  -7.468  1.00  0.00     0.035 C
HETATM   11  C18 UNL     1      26.514 -10.879  -8.525  1.00  0.00     0.012 C
HETATM   12  C19 UNL     1      25.860 -10.571  -9.875  1.00  0.00    -0.032 C
HETATM   13  C20 UNL     1      25.007 -11.800 -10.229  1.00  0.00     0.016 C
HETATM   14  C21 UNL     1      27.324  -9.395 -13.185  1.00  0.00    -0.036 C
HETATM   15  C22 UNL     1      27.158  -7.933 -13.644  1.00  0.00     0.016 C
HETATM   16  C23 UNL     1      26.836 -10.182 -14.414  1.00  0.00     0.012 C
HETATM   17  C24 UNL     1      27.473  -9.679 -15.675  1.00  0.00     0.032 C
HETATM   18  C25 UNL     1      28.942  -9.772 -15.490  1.00  0.00     0.118 C
HETATM   19  C26 UNL     1      29.308 -10.516 -14.174  1.00  0.00     0.037 C
HETATM   20  C27 UNL     1      28.759  -9.771 -12.981  1.00  0.00     0.001 C
ENDROOT
BRANCH   1  21
HETATM   21  C6  UNL     1      29.756 -11.510 -11.334  1.00  0.00    -0.008 C
HETATM   22  C7  UNL     1      30.926 -11.612 -10.388  1.00  0.00     0.011 C
BRANCH  21  23
HETATM   23  C2  UNL     1      28.774 -12.525 -10.844  1.00  0.00     0.014 C
HETATM   24  C1  UNL     1      28.140 -13.143 -12.103  1.00  0.00     0.013 C
BRANCH  23  25
HETATM   25  C3  UNL     1      29.099 -13.559  -9.869  1.00  0.00     0.124 C
BRANCH  25  26
HETATM   26  O1  UNL     1      29.476 -14.808 -10.340  1.00  0.00    -0.395 OA
ATOM     27  H1  UNL     1      30.065 -15.330  -9.807  1.00  0.00     0.210 HD
ENDBRANCH  25  26
BRANCH  25  28
HETATM   28  C4  UNL     1      28.206 -13.700  -8.656  1.00  0.00     0.058 C
BRANCH  28  29
HETATM   29  C5  UNL     1      29.058 -13.592  -7.369  1.00  0.00     0.166 C
BRANCH  29  30
HETATM   30  O2  UNL     1      30.088 -14.526  -7.501  1.00  0.00    -0.401 OA
ATOM     31  H2  UNL     1      29.684 -15.381  -7.416  1.00  0.00     0.209 HD
ENDBRANCH  29  30
ENDBRANCH  28  29
ENDBRANCH  25  28
ENDBRANCH  23  25
ENDBRANCH  21  23
ENDBRANCH   1  21
BRANCH  18  32
HETATM   32  O6  UNL     1      29.428 -10.646 -16.497  1.00  0.00    -0.396 OA
ATOM     33  H6  UNL     1      29.213 -11.530 -16.221  1.00  0.00     0.210 HD
ENDBRANCH  18  32
BRANCH   6  34
HETATM   34  O3  UNL     1      23.501  -9.386 -11.492  1.00  0.00    -0.395 OA
ATOM     35  H3  UNL     1      23.545  -9.217 -12.426  1.00  0.00     0.210 HD
ENDBRANCH   6  34
BRANCH   8  36
HETATM   36  O4  UNL     1      22.820 -10.369  -9.258  1.00  0.00    -0.393 OA
ATOM     37  H4  UNL     1      23.070 -10.714 -10.107  1.00  0.00     0.210 HD
ENDBRANCH   8  36
BRANCH   9  38
HETATM   38  O5  UNL     1      24.474  -9.425  -6.322  1.00  0.00    -0.393 OA
ATOM     39  H5  UNL     1      25.197  -8.835  -6.498  1.00  0.00     0.210 HD
ENDBRANCH   9  38
TORSDOF 11
ENDMDL