MODEL 3
REMARK VINA RESULT: -7.589151336      2.408      7.186
REMARK  10 active torsions:
REMARK  status: ('A' for Active; 'I' for Inactive)
REMARK    1  A    between atoms: C3_3  and  N1_4
REMARK    2  A    between atoms: N1_4  and  C4_7
REMARK    3  A    between atoms: C9_12  and  C10_13
REMARK    4  A    between atoms: C10_13  and  C11_14
REMARK    5  A    between atoms: C11_14  and  O1_15
REMARK    6  A    between atoms: C11_14  and  C12_17
REMARK    7  A    between atoms: C12_17  and  O2_18
REMARK    8  A    between atoms: C17_24  and  O3_25
REMARK    9  A    between atoms: C19_28  and  O4_29
REMARK   10  A    between atoms: C21_32  and  O5_33
ROOT
HETATM    1  C1  UNL     1      29.694 -10.149 -14.582  1.00  0.00     0.012 C
HETATM    2  C2  UNL     1      28.222 -10.044 -14.578  1.00  0.00     0.017 C
HETATM    3  C3  UNL     1      27.962  -8.737 -15.415  1.00  0.00     0.195 C
HETATM    4  C9  UNL     1      28.586  -7.744 -14.402  1.00  0.00     0.023 C
HETATM    5  C13 UNL     1      28.025  -8.258 -13.126  1.00  0.00    -0.004 C
HETATM    6  C14 UNL     1      26.825  -7.567 -12.564  1.00  0.00     0.006 C
HETATM    7  C15 UNL     1      26.744  -8.071 -11.126  1.00  0.00     0.008 C
HETATM    8  C16 UNL     1      27.311  -9.451 -10.933  1.00  0.00     0.020 C
HETATM    9  C17 UNL     1      26.482 -10.032  -9.813  1.00  0.00     0.125 C
HETATM   10  C18 UNL     1      26.627 -11.467  -9.580  1.00  0.00     0.071 C
HETATM   11  C19 UNL     1      26.951 -12.325 -10.735  1.00  0.00     0.070 C
HETATM   12  C20 UNL     1      27.503 -13.617 -10.250  1.00  0.00     0.070 C
HETATM   13  C21 UNL     1      28.945 -13.594  -9.850  1.00  0.00     0.121 C
HETATM   14  C22 UNL     1      29.628 -12.294 -10.172  1.00  0.00     0.032 C
HETATM   15  C23 UNL     1      29.226 -11.690 -11.475  1.00  0.00     0.015 C
HETATM   16  C24 UNL     1      27.805 -11.678 -11.830  1.00  0.00    -0.008 C
HETATM   17  C25 UNL     1      27.552 -12.595 -13.042  1.00  0.00     0.019 C
HETATM   18  C26 UNL     1      27.206 -10.347 -12.184  1.00  0.00     0.008 C
HETATM   19  C27 UNL     1      27.466  -9.678 -13.424  1.00  0.00     0.001 C
ENDROOT
BRANCH   3  20
HETATM   20  N1  UNL     1      28.640  -8.743 -16.649  1.00  0.00    -0.066 N
ATOM     21  H12 UNL     1      29.027  -7.822 -16.855  1.00  0.00     0.278 HD
ATOM     22  H11 UNL     1      29.506  -9.278 -16.584  1.00  0.00     0.278 HD
BRANCH  20  23
HETATM   23  C4  UNL     1      27.839  -9.207 -17.728  1.00  0.00     0.186 C
HETATM   24  C5  UNL     1      28.398 -10.427 -18.429  1.00  0.00     0.033 C
HETATM   25  C6  UNL     1      27.180 -10.944 -19.192  1.00  0.00     0.002 C
HETATM   26  C7  UNL     1      25.968 -10.416 -18.453  1.00  0.00     0.002 C
HETATM   27  C8  UNL     1      26.518  -9.770 -17.184  1.00  0.00     0.033 C
ENDBRANCH  20  23
ENDBRANCH   3  20
BRANCH   4  28
HETATM   28  C10 UNL     1      28.245  -6.375 -14.817  1.00  0.00     0.041 C
BRANCH  28  29
HETATM   29  C11 UNL     1      29.241  -5.304 -14.571  1.00  0.00     0.142 C
BRANCH  29  30
HETATM   30  O1  UNL     1      30.561  -5.770 -14.794  1.00  0.00    -0.393 OA
ATOM     31  H1  UNL     1      30.995  -5.265 -15.472  1.00  0.00     0.210 HD
ENDBRANCH  29  30
BRANCH  29  32
HETATM   32  C12 UNL     1      29.255  -4.861 -13.106  1.00  0.00     0.195 C
BRANCH  32  33
HETATM   33  O2  UNL     1      28.304  -3.821 -13.023  1.00  0.00    -0.398 OA
ATOM     34  H2  UNL     1      28.595  -3.166 -13.646  1.00  0.00     0.209 HD
ENDBRANCH  32  33
ENDBRANCH  29  32
ENDBRANCH  28  29
ENDBRANCH   4  28
BRANCH   9  35
HETATM   35  O3  UNL     1      25.134  -9.762 -10.145  1.00  0.00    -0.395 OA
ATOM     36  H3  UNL     1      25.114  -9.660 -11.090  1.00  0.00     0.210 HD
ENDBRANCH   9  35
BRANCH  11  37
HETATM   37  O4  UNL     1      25.724 -12.631 -11.378  1.00  0.00    -0.389 OA
ATOM     38  H4  UNL     1      25.392 -13.425 -10.977  1.00  0.00     0.210 HD
ENDBRANCH  11  37
BRANCH  13  39
HETATM   39  O5  UNL     1      29.648 -14.636 -10.501  1.00  0.00    -0.395 OA
ATOM     40  H5  UNL     1      30.326 -14.274 -11.058  1.00  0.00     0.210 HD
ENDBRANCH  13  39
TORSDOF 10
ENDMDL