MODEL 1
REMARK VINA RESULT: -7.559343559      0.000      0.000
REMARK  10 active torsions:
REMARK  status: ('A' for Active; 'I' for Inactive)
REMARK    1  A    between atoms: C2_2  and  O1_3
REMARK    2  A    between atoms: C2_2  and  C3_5
REMARK    3  A    between atoms: C7_9  and  O2_10
REMARK    4  A    between atoms: C18_22  and  O3_23
REMARK    5  A    between atoms: C18_22  and  C19_25
REMARK    6  A    between atoms: C19_25  and  O4_26
REMARK    7  A    between atoms: C19_25  and  C20_28
REMARK    8  A    between atoms: C20_28  and  O5_29
REMARK    9  A    between atoms: C20_28  and  C21_31
REMARK   10  A    between atoms: C21_31  and  O6_32
ROOT
HETATM    1  C3  UNL     1      30.419 -11.011 -16.121  1.00  0.00     0.023 C
HETATM    2  C4  UNL     1      30.622 -12.197 -15.144  1.00  0.00     0.014 C
HETATM    3  C5  UNL     1      29.258 -11.947 -14.768  1.00  0.00     0.002 C
HETATM    4  C6  UNL     1      28.527 -12.307 -13.571  1.00  0.00     0.028 C
HETATM    5  C7  UNL     1      29.167 -12.338 -12.247  1.00  0.00     0.123 C
HETATM    6  C8  UNL     1      28.552 -11.438 -11.213  1.00  0.00     0.037 C
HETATM    7  C9  UNL     1      27.050 -11.627 -11.074  1.00  0.00    -0.003 C
HETATM    8  C10 UNL     1      26.406 -11.618 -12.389  1.00  0.00    -0.001 C
HETATM    9  C11 UNL     1      25.399 -10.456 -12.391  1.00  0.00     0.007 C
HETATM   10  C12 UNL     1      24.484 -10.802 -11.225  1.00  0.00     0.013 C
HETATM   11  C13 UNL     1      25.195 -10.227  -9.983  1.00  0.00    -0.006 C
HETATM   12  C14 UNL     1      25.142  -8.754 -10.185  1.00  0.00     0.019 C
HETATM   13  C15 UNL     1      26.611 -10.683 -10.022  1.00  0.00     0.001 C
HETATM   14  C16 UNL     1      26.864 -11.380  -8.672  1.00  0.00     0.009 C
HETATM   15  C17 UNL     1      25.488 -11.826  -8.207  1.00  0.00     0.042 C
HETATM   16  C18 UNL     1      24.559 -10.734  -8.724  1.00  0.00     0.094 C
HETATM   17  C22 UNL     1      27.202 -11.525 -13.618  1.00  0.00    -0.034 C
HETATM   18  C23 UNL     1      26.337 -12.188 -14.716  1.00  0.00     0.016 C
HETATM   19  C24 UNL     1      27.356 -10.119 -14.066  1.00  0.00     0.011 C
HETATM   20  C25 UNL     1      28.172  -9.938 -15.352  1.00  0.00     0.011 C
HETATM   21  C26 UNL     1      29.495 -10.499 -15.067  1.00  0.00    -0.034 C
HETATM   22  C27 UNL     1      30.268  -9.626 -14.139  1.00  0.00     0.016 C
ENDROOT
BRANCH  16  23
HETATM   23  O3  UNL     1      23.383 -11.364  -9.148  1.00  0.00    -0.386 OA
ATOM     24  H3  UNL     1      22.682 -10.829  -8.793  1.00  0.00     0.210 HD
ENDBRANCH  16  23
BRANCH  16  25
HETATM   25  C19 UNL     1      24.155  -9.789  -7.674  1.00  0.00     0.184 C
BRANCH  25  26
HETATM   26  O4  UNL     1      22.715  -9.949  -7.587  1.00  0.00    -0.390 OA
ATOM     27  H4  UNL     1      22.394  -9.641  -8.426  1.00  0.00     0.210 HD
ENDBRANCH  25  26
BRANCH  25  28
HETATM   28  C20 UNL     1      24.527 -10.072  -6.256  1.00  0.00     0.173 C
BRANCH  28  29
HETATM   29  O5  UNL     1      25.478  -9.363  -5.636  1.00  0.00    -0.391 OA
ATOM     30  H5  UNL     1      25.639  -9.466  -4.706  1.00  0.00     0.210 HD
ENDBRANCH  28  29
BRANCH  28  31
HETATM   31  C21 UNL     1      23.231  -9.915  -5.441  1.00  0.00     0.198 C
BRANCH  31  32
HETATM   32  O6  UNL     1      22.913 -11.089  -4.775  1.00  0.00    -0.398 OA
ATOM     33  H6  UNL     1      22.158 -11.511  -5.167  1.00  0.00     0.209 HD
ENDBRANCH  31  32
ENDBRANCH  28  31
ENDBRANCH  25  28
ENDBRANCH  16  25
BRANCH   5  34
HETATM   34  O2  UNL     1      30.540 -12.042 -12.233  1.00  0.00    -0.395 OA
ATOM     35  H2  UNL     1      30.760 -11.126 -12.350  1.00  0.00     0.210 HD
ENDBRANCH   5  34
BRANCH   1  36
HETATM   36  C2  UNL     1      29.915 -11.338 -17.465  1.00  0.00     0.118 C
HETATM   37  C1  UNL     1      30.135 -10.100 -18.351  1.00  0.00     0.040 C
BRANCH  36  38
HETATM   38  O1  UNL     1      30.698 -12.393 -17.973  1.00  0.00    -0.396 OA
ATOM     39  H1  UNL     1      30.686 -13.105 -17.343  1.00  0.00     0.210 HD
ENDBRANCH  36  38
ENDBRANCH   1  36
TORSDOF 10
ENDMDL