MODEL 2
REMARK VINA RESULT: -6.473799958      2.714      5.344
REMARK  9 active torsions:
REMARK  status: ('A' for Active; 'I' for Inactive)
REMARK    1  A    between atoms: C2_2  and  C3_3
REMARK    2  A    between atoms: C3_3  and  N1_4
REMARK    3  A    between atoms: N1_4  and  C4_7
REMARK    4  A    between atoms: C7_10  and  O1_12
REMARK    5  A    between atoms: C12_17  and  O2_18
REMARK    6  A    between atoms: C23_30  and  O3_31
REMARK    7  A    between atoms: C25_34  and  O4_35
REMARK    8  A    between atoms: C26_37  and  C27_38
REMARK    9  A    between atoms: C27_38  and  O5_39
ROOT
HETATM    1  C4  UNL     1      27.090  -8.970 -12.188  1.00  0.00     0.222 C
HETATM    2  C5  UNL     1      27.347  -7.587 -12.672  1.00  0.00     0.051 C
HETATM    3  C6  UNL     1      27.073  -6.479 -11.684  1.00  0.00     0.015 C
HETATM    4  C7  UNL     1      28.579  -7.367 -13.566  1.00  0.00     0.065 C
HETATM    5  C8  UNL     1      28.381  -6.022 -14.116  1.00  0.00     0.047 C
HETATM    6  C9  UNL     1      29.225  -8.546 -14.117  1.00  0.00     0.049 C
HETATM    7  C10 UNL     1      29.359  -9.405 -12.886  1.00  0.00     0.015 C
HETATM    8  C11 UNL     1      29.732  -8.917 -11.583  1.00  0.00     0.023 C
HETATM    9  C12 UNL     1      30.352 -10.532 -12.922  1.00  0.00     0.131 C
HETATM   10  C13 UNL     1      31.654 -10.243 -13.488  1.00  0.00     0.034 C
HETATM   11  C14 UNL     1      31.631 -11.053 -14.692  1.00  0.00     0.012 C
HETATM   12  C15 UNL     1      30.425 -11.494 -15.399  1.00  0.00    -0.035 C
HETATM   13  C16 UNL     1      30.055 -12.976 -15.131  1.00  0.00     0.016 C
HETATM   14  C17 UNL     1      31.265 -11.970 -16.659  1.00  0.00     0.016 C
HETATM   15  C18 UNL     1      29.217 -10.669 -15.677  1.00  0.00     0.002 C
HETATM   16  C19 UNL     1      27.958 -11.334 -15.045  1.00  0.00     0.042 C
HETATM   17  C20 UNL     1      27.500 -10.992 -13.710  1.00  0.00    -0.020 C
HETATM   18  C21 UNL     1      27.988 -10.060 -12.732  1.00  0.00    -0.042 C
HETATM   19  C22 UNL     1      29.063 -10.889 -17.173  1.00  0.00     0.017 C
HETATM   20  C23 UNL     1      28.605 -10.103 -18.260  1.00  0.00     0.043 C
HETATM   21  C24 UNL     1      28.967  -8.699 -17.928  1.00  0.00     0.096 C
HETATM   22  C25 UNL     1      29.624  -8.504 -16.598  1.00  0.00     0.136 C
HETATM   23  C26 UNL     1      28.941  -9.256 -15.392  1.00  0.00     0.027 C
ENDROOT
BRANCH   1  24
HETATM   24  N1  UNL     1      26.883  -9.057 -10.733  1.00  0.00    -0.064 N
ATOM     25  H12 UNL     1      26.467  -8.208 -10.350  1.00  0.00     0.278 HD
ATOM     26  H11 UNL     1      27.762  -9.033 -10.215  1.00  0.00     0.278 HD
BRANCH  24  27
HETATM   27  C3  UNL     1      26.091 -10.251 -10.427  1.00  0.00     0.259 C
BRANCH  27  28
HETATM   28  C2  UNL     1      24.795 -10.176 -11.129  1.00  0.00    -0.010 C
HETATM   29  C1  UNL     1      24.217 -11.199 -11.691  1.00  0.00     0.008 C
ENDBRANCH  27  28
ENDBRANCH  24  27
ENDBRANCH   1  24
BRANCH   4  30
HETATM   30  O1  UNL     1      29.589  -6.878 -12.628  1.00  0.00    -0.389 OA
ATOM     31  H1  UNL     1      29.188  -7.026 -11.780  1.00  0.00     0.210 HD
ENDBRANCH   4  30
BRANCH   9  32
HETATM   32  O2  UNL     1      30.703 -11.048 -11.627  1.00  0.00    -0.394 OA
ATOM     33  H2  UNL     1      31.306 -11.782 -11.651  1.00  0.00     0.210 HD
ENDBRANCH   9  32
BRANCH  23  34
HETATM   34  C27 UNL     1      27.550  -8.920 -15.834  1.00  0.00     0.177 C
BRANCH  34  35
HETATM   35  O5  UNL     1      27.253  -7.605 -16.192  1.00  0.00    -0.400 OA
ATOM     36  H5  UNL     1      26.541  -7.442 -16.799  1.00  0.00     0.209 HD
ENDBRANCH  34  35
ENDBRANCH  23  34
BRANCH  22  37
HETATM   37  O4  UNL     1      30.973  -8.495 -16.550  1.00  0.00    -0.394 OA
ATOM     38  H4  UNL     1      31.392  -8.011 -15.849  1.00  0.00     0.210 HD
ENDBRANCH  22  37
BRANCH  20  39
HETATM   39  O3  UNL     1      27.475 -10.388 -18.992  1.00  0.00    -0.365 OA
ATOM     40  H3  UNL     1      27.328 -10.087 -19.881  1.00  0.00     0.217 HD
ENDBRANCH  20  39
TORSDOF 9
ENDMDL