MODEL 1
REMARK VINA RESULT: -8.821081877      0.000      0.000
REMARK  10 active torsions:
REMARK  status: ('A' for Active; 'I' for Inactive)
REMARK    1  A    between atoms: C4_4  and  C5_5
REMARK    2  A    between atoms: C5_5  and  C6_6
REMARK    3  A    between atoms: C6_6  and  C7_7
REMARK    4  A    between atoms: C9_9  and  C10_10
REMARK    5  A    between atoms: C14_14  and  O1_15
REMARK    6  A    between atoms: C15_17  and  O2_18
REMARK    7  A    between atoms: C22_26  and  O3_27
REMARK    8  A    between atoms: C23_29  and  O4_30
REMARK    9  A    between atoms: C24_32  and  O5_34
REMARK   10  A    between atoms: C27_37  and  O6_38
ROOT
HETATM    1  C10 UNL     1      25.397 -10.944  -8.779  1.00  0.00    -0.000 C
HETATM    2  C11 UNL     1      26.272 -10.052  -9.555  1.00  0.00     0.018 C
HETATM    3  C12 UNL     1      25.552  -9.631 -10.852  1.00  0.00    -0.005 C
HETATM    4  C13 UNL     1      26.179  -8.381 -11.384  1.00  0.00     0.046 C
HETATM    5  C14 UNL     1      26.566  -8.429 -12.815  1.00  0.00     0.148 C
HETATM    6  C15 UNL     1      27.357  -9.690 -13.058  1.00  0.00     0.155 C
HETATM    7  C16 UNL     1      26.517 -10.907 -12.808  1.00  0.00    -0.015 C
HETATM    8  C17 UNL     1      27.489 -12.042 -12.457  1.00  0.00     0.018 C
HETATM    9  C18 UNL     1      25.941 -11.322 -14.173  1.00  0.00     0.018 C
HETATM   10  C19 UNL     1      25.426 -10.740 -11.834  1.00  0.00     0.007 C
HETATM   11  C20 UNL     1      25.203 -12.013 -11.004  1.00  0.00     0.014 C
HETATM   12  C21 UNL     1      24.456 -11.619  -9.754  1.00  0.00     0.022 C
HETATM   13  C22 UNL     1      23.388 -10.560 -10.098  1.00  0.00     0.152 C
HETATM   14  C23 UNL     1      24.131  -9.283 -10.437  1.00  0.00     0.156 C
ENDROOT
BRANCH   1  15
HETATM   15  C9  UNL     1      25.918 -11.809  -7.727  1.00  0.00     0.025 C
HETATM   16  C8  UNL     1      27.257 -12.398  -7.759  1.00  0.00     0.015 C
HETATM   17  C7  UNL     1      27.227 -13.621  -6.806  1.00  0.00     0.015 C
HETATM   18  C27 UNL     1      26.405 -13.358  -5.599  1.00  0.00     0.125 C
HETATM   19  C26 UNL     1      26.411 -11.886  -5.248  1.00  0.00     0.070 C
HETATM   20  C24 UNL     1      25.772 -11.121  -6.352  1.00  0.00     0.060 C
HETATM   21  C25 UNL     1      24.310 -10.905  -6.034  1.00  0.00     0.046 C
BRANCH  17  22
HETATM   22  C6  UNL     1      28.570 -14.190  -6.602  1.00  0.00     0.011 C
BRANCH  22  23
HETATM   23  C5  UNL     1      29.331 -14.600  -7.800  1.00  0.00     0.028 C
BRANCH  23  24
HETATM   24  C4  UNL     1      29.963 -13.397  -8.419  1.00  0.00    -0.025 C
HETATM   25  C2  UNL     1      29.873 -13.113  -9.712  1.00  0.00    -0.091 C
HETATM   26  C1  UNL     1      29.094 -14.065 -10.558  1.00  0.00     0.042 C
HETATM   27  C3  UNL     1      30.502 -11.926 -10.302  1.00  0.00     0.042 C
ENDBRANCH  23  24
ENDBRANCH  22  23
ENDBRANCH  17  22
BRANCH  18  28
HETATM   28  O6  UNL     1      26.759 -14.149  -4.506  1.00  0.00    -0.395 OA
ATOM     29  H6  UNL     1      26.254 -13.959  -3.724  1.00  0.00     0.210 HD
ENDBRANCH  18  28
BRANCH  20  30
HETATM   30  O5  UNL     1      26.422  -9.893  -6.444  1.00  0.00    -0.390 OA
ATOM     31  H5  UNL     1      25.775  -9.224  -6.255  1.00  0.00     0.210 HD
ENDBRANCH  20  30
ENDBRANCH   1  15
BRANCH  13  32
HETATM   32  O3  UNL     1      22.605 -10.418  -8.958  1.00  0.00    -0.393 OA
ATOM     33  H3  UNL     1      22.807 -11.163  -8.405  1.00  0.00     0.210 HD
ENDBRANCH  13  32
BRANCH  14  34
HETATM   34  O4  UNL     1      24.034  -8.292  -9.505  1.00  0.00    -0.392 OA
ATOM     35  H4  UNL     1      23.150  -8.110  -9.207  1.00  0.00     0.210 HD
ENDBRANCH  14  34
BRANCH   5  36
HETATM   36  O1  UNL     1      27.430  -7.353 -13.068  1.00  0.00    -0.393 OA
ATOM     37  H1  UNL     1      27.235  -7.015 -13.934  1.00  0.00     0.210 HD
ENDBRANCH   5  36
BRANCH   6  38
HETATM   38  O2  UNL     1      28.542  -9.684 -12.324  1.00  0.00    -0.392 OA
ATOM     39  H2  UNL     1      28.407 -10.051 -11.458  1.00  0.00     0.210 HD
ENDBRANCH   6  38
TORSDOF 10
ENDMDL