MODEL 2
REMARK VINA RESULT: -6.722890807      1.928      3.258
REMARK  3 active torsions:
REMARK  status: ('A' for Active; 'I' for Inactive)
REMARK    1  A    between atoms: C6_7  and  S1_8
REMARK    2  A    between atoms: S1_8  and  C7_9
REMARK    3  A    between atoms: C9_16  and  N6_17
ROOT
HETATM    1  C1  UNL     1      19.199  32.654  40.983  1.00  0.00     0.014 C
HETATM    2  C2  UNL     1      19.295  31.545  41.430  1.00  0.00    -0.080 C
HETATM    3  C3  UNL     1      19.388  30.185  41.966  1.00  0.00     0.328 C
HETATM    4  C4  UNL     1      20.412  30.218  43.099  1.00  0.00     0.194 C
HETATM    5  C5  UNL     1      20.482  28.915  43.763  1.00  0.00     0.074 C
HETATM    6  N1  UNL     1      20.558  27.881  44.297  1.00  0.00    -0.196 NA
HETATM    7  C6  UNL     1      19.916  31.211  44.083  1.00  0.00     0.068 C
HETATM    8  N5  UNL     1      18.642  31.222  44.268  1.00  0.00    -0.335 N
ATOM      9  H5  UNL     1      18.290  31.900  44.943  1.00  0.00     0.163 HD
HETATM   10  C9  UNL     1      17.687  30.409  43.651  1.00  0.00     0.522 C
HETATM   11  N7  UNL     1      18.082  29.793  42.426  1.00  0.00     0.151 N
HETATM   12  C10 UNL     1      17.803  28.398  42.328  1.00  0.00     0.316 C
ENDROOT
BRANCH   7  13
HETATM   13  S1  UNL     1      20.876  32.351  45.008  1.00  0.00    -0.091 SA
BRANCH  13  14
HETATM   14  C7  UNL     1      22.491  31.958  45.478  1.00  0.00     0.180 C
HETATM   15  C8  UNL     1      23.366  33.044  46.054  1.00  0.00     0.165 C
HETATM   16  N2  UNL     1      24.529  32.231  46.452  1.00  0.00    -0.128 NA
HETATM   17  N3  UNL     1      24.147  30.903  46.422  1.00  0.00    -0.039 NA
HETATM   18  N4  UNL     1      22.719  30.876  46.397  1.00  0.00    -0.113 NA
ENDBRANCH  13  14
ENDBRANCH   7  13
BRANCH  10  19
HETATM   19  N6  UNL     1      17.210  29.445  44.641  1.00  0.00    -0.030 N
ATOM     20  H63 UNL     1      17.713  28.558  44.605  1.00  0.00     0.279 HD
ATOM     21  H62 UNL     1      17.459  29.703  45.597  1.00  0.00     0.279 HD
ATOM     22  H61 UNL     1      16.205  29.334  44.511  1.00  0.00     0.279 HD
ENDBRANCH  10  19
TORSDOF 3
ENDMDL