MODEL 3
REMARK VINA RESULT: -6.769917574      1.725      5.354
REMARK  6 active torsions:
REMARK  status: ('A' for Active; 'I' for Inactive)
REMARK    1  A    between atoms: O1_2  and  C2_3
REMARK    2  A    between atoms: C3_6  and  O2_7
REMARK    3  A    between atoms: C5_10  and  O3_12
REMARK    4  A    between atoms: O3_12  and  C7_13
REMARK    5  A    between atoms: C10_17  and  O5_18
REMARK    6  A    between atoms: C11_20  and  O6_21
ROOT
HETATM    1  C2  UNL     1      21.459  30.585  43.648  1.00  0.00     0.249 C
HETATM    2  N1  UNL     1      22.722  30.049  44.002  1.00  0.00    -0.363 N
ATOM      3  H1  UNL     1      23.083  29.208  43.549  1.00  0.00     0.158 HD
HETATM    4  C3  UNL     1      23.458  30.709  44.991  1.00  0.00     0.141 C
HETATM    5  C4  UNL     1      24.198  31.971  44.612  1.00  0.00     0.100 C
HETATM    6  C5  UNL     1      23.879  32.457  46.034  1.00  0.00     0.082 C
HETATM    7  C6  UNL     1      23.552  33.905  46.061  1.00  0.00     0.047 C
HETATM    8  C9  UNL     1      22.712  31.497  45.999  1.00  0.00     0.107 C
HETATM    9  C10 UNL     1      21.405  32.033  45.585  1.00  0.00     0.163 C
HETATM   10  C11 UNL     1      20.633  30.938  44.870  1.00  0.00     0.195 C
ENDROOT
BRANCH   6  11
HETATM   11  O3  UNL     1      24.837  32.026  46.985  1.00  0.00    -0.310 OA
BRANCH  11  12
HETATM   12  C7  UNL     1      26.089  32.592  46.926  1.00  0.00     0.255 C
HETATM   13  C8  UNL     1      26.497  33.602  47.940  1.00  0.00     0.126 C
HETATM   14  O4  UNL     1      26.924  32.293  46.039  1.00  0.00    -0.266 OA
ENDBRANCH  11  12
ENDBRANCH   6  11
BRANCH   4  15
HETATM   15  O2  UNL     1      24.376  29.829  45.612  1.00  0.00    -0.370 OA
ATOM     16  H2  UNL     1      24.837  30.263  46.320  1.00  0.00     0.212 HD
ENDBRANCH   4  15
BRANCH   9  17
HETATM   17  O5  UNL     1      21.441  33.136  44.761  1.00  0.00    -0.392 OA
ATOM     18  H5  UNL     1      20.839  33.837  44.980  1.00  0.00     0.210 HD
ENDBRANCH   9  17
BRANCH  10  19
HETATM   19  O6  UNL     1      19.366  31.370  44.495  1.00  0.00    -0.389 OA
ATOM     20  H6  UNL     1      19.428  32.120  43.915  1.00  0.00     0.210 HD
ENDBRANCH  10  19
BRANCH   1  21
HETATM   21  O1  UNL     1      20.778  29.671  42.851  1.00  0.00    -0.369 OA
HETATM   22  C1  UNL     1      20.685  28.422  43.463  1.00  0.00     0.204 C
ENDBRANCH   1  21
TORSDOF 6
ENDMDL