MODEL 5
REMARK VINA RESULT: -5.987416580      1.165      1.165
REMARK  6 active torsions:
REMARK  status: ('A' for Active; 'I' for Inactive)
REMARK    1  A    between atoms: C2_3  and  C3_4
REMARK    2  A    between atoms: C3_4  and  O1_5
REMARK    3  A    between atoms: C4_7  and  S1_8
REMARK    4  A    between atoms: C8_14  and  O2_15
REMARK    5  A    between atoms: C9_17  and  O3_18
REMARK    6  A    between atoms: C10_20  and  O4_21
ROOT
HETATM    1  N1  UNL     1      18.177  33.889  46.787  1.00  0.00    -0.197 NA
HETATM    2  C1  UNL     1      18.037  33.426  45.737  1.00  0.00     0.062 C
HETATM    3  C2  UNL     1      17.828  32.843  44.423  1.00  0.00     0.170 C
ENDROOT
BRANCH   3   4
HETATM    4  C3  UNL     1      19.071  32.490  43.680  1.00  0.00     0.133 C
HETATM    5  C4  UNL     1      19.726  31.245  44.070  1.00  0.00     0.050 C
HETATM    6  C6  UNL     1      19.283  30.112  43.555  1.00  0.00     0.070 C
HETATM    7  C7  UNL     1      19.926  28.881  43.940  1.00  0.00     0.099 C
HETATM    8  C8  UNL     1      18.172  29.981  42.582  1.00  0.00     0.194 C
HETATM    9  N3  UNL     1      20.438  27.864  44.242  1.00  0.00    -0.192 NA
HETATM   10  C9  UNL     1      17.823  31.239  41.874  1.00  0.00     0.184 C
HETATM   11  C10 UNL     1      18.725  32.399  42.200  1.00  0.00     0.190 C
BRANCH   4  12
HETATM   12  O1  UNL     1      19.966  33.570  43.758  1.00  0.00    -0.381 OA
ATOM     13  H1  UNL     1      20.822  33.278  43.469  1.00  0.00     0.211 HD
ENDBRANCH   4  12
BRANCH   5  14
HETATM   14  S1  UNL     1      21.113  31.152  45.183  1.00  0.00    -0.011 SA
HETATM   15  C5  UNL     1      22.563  30.739  44.285  1.00  0.00     0.138 C
HETATM   16  N2  UNL     1      23.548  30.467  43.703  1.00  0.00    -0.184 NA
ENDBRANCH   5  14
BRANCH   8  17
HETATM   17  O2  UNL     1      17.093  29.378  43.226  1.00  0.00    -0.387 OA
ATOM     18  H2  UNL     1      16.445  29.146  42.571  1.00  0.00     0.210 HD
ENDBRANCH   8  17
BRANCH  10  19
HETATM   19  O3  UNL     1      16.482  31.514  42.017  1.00  0.00    -0.390 OA
ATOM     20  H3  UNL     1      16.064  31.580  41.167  1.00  0.00     0.210 HD
ENDBRANCH  10  19
BRANCH  11  21
HETATM   21  O4  UNL     1      19.925  32.245  41.508  1.00  0.00    -0.389 OA
ATOM     22  H4  UNL     1      19.713  32.223  40.582  1.00  0.00     0.210 HD
ENDBRANCH  11  21
ENDBRANCH   3   4
TORSDOF 6
ENDMDL