MODEL 4
REMARK VINA RESULT: -5.320360553      1.092      1.401
REMARK  7 active torsions:
REMARK  status: ('A' for Active; 'I' for Inactive)
REMARK    1  A    between atoms: O1_2  and  C2_3
REMARK    2  A    between atoms: C3_4  and  O2_6
REMARK    3  A    between atoms: N1_11  and  C7_13
REMARK    4  A    between atoms: N2_15  and  O4_17
REMARK    5  A    between atoms: C9_19  and  O5_20
REMARK    6  A    between atoms: C9_19  and  C10_22
REMARK    7  A    between atoms: C10_22  and  O6_23
ROOT
HETATM    1  C2  UNL     1      17.636  31.177  42.112  1.00  0.00     0.201 C
HETATM    2  C3  UNL     1      17.862  31.647  40.728  1.00  0.00     0.105 C
HETATM    3  C4  UNL     1      16.681  32.482  40.211  1.00  0.00     0.051 C
HETATM    4  C5  UNL     1      19.095  32.427  40.460  1.00  0.00     0.217 C
HETATM    5  O3  UNL     1      20.210  32.047  41.242  1.00  0.00    -0.333 OA
HETATM    6  C6  UNL     1      20.065  31.462  42.501  1.00  0.00     0.159 C
HETATM    7  N1  UNL     1      21.056  30.937  43.049  1.00  0.00    -0.326 N
ATOM      8  H1  UNL     1      21.907  30.995  42.489  1.00  0.00     0.169 HD
HETATM    9  C9  UNL     1      18.722  31.513  43.102  1.00  0.00     0.172 C
ENDROOT
BRANCH   7  10
HETATM   10  C7  UNL     1      21.238  30.292  44.260  1.00  0.00     0.099 C
HETATM   11  C8  UNL     1      21.107  28.804  44.311  1.00  0.00     0.091 C
HETATM   12  N2  UNL     1      21.512  30.863  45.385  1.00  0.00    -0.257 N
ATOM     13  H2  UNL     1      21.620  30.263  46.202  1.00  0.00     0.195 HD
BRANCH  12  14
HETATM   14  O4  UNL     1      21.668  32.194  45.566  1.00  0.00    -0.288 OA
ATOM     15  H4  UNL     1      22.396  32.604  46.018  1.00  0.00     0.244 HD
ENDBRANCH  12  14
ENDBRANCH   7  10
BRANCH   9  16
HETATM   16  O5  UNL     1      18.601  30.620  44.164  1.00  0.00    -0.377 OA
ATOM     17  H5  UNL     1      18.321  31.122  44.920  1.00  0.00     0.211 HD
ENDBRANCH   9  16
BRANCH   9  18
HETATM   18  C10 UNL     1      18.542  32.901  43.688  1.00  0.00     0.213 C
BRANCH  18  19
HETATM   19  O6  UNL     1      19.718  33.579  43.893  1.00  0.00    -0.397 OA
ATOM     20  H6  UNL     1      19.805  33.949  44.763  1.00  0.00     0.209 HD
ENDBRANCH  18  19
ENDBRANCH   9  18
BRANCH   1  21
HETATM   21  O1  UNL     1      16.440  31.700  42.601  1.00  0.00    -0.384 OA
HETATM   22  C1  UNL     1      15.519  30.716  42.923  1.00  0.00     0.202 C
ENDBRANCH   1  21
BRANCH   2  23
HETATM   23  O2  UNL     1      17.894  30.518  39.876  1.00  0.00    -0.385 OA
ATOM     24  H2  UNL     1      17.806  30.819  38.979  1.00  0.00     0.210 HD
ENDBRANCH   2  23
TORSDOF 7
ENDMDL