MODEL 4
REMARK VINA RESULT: -6.360434115      2.802      6.837
REMARK  8 active torsions:
REMARK  status: ('A' for Active; 'I' for Inactive)
REMARK    1  A    between atoms: C2_2  and  O1_3
REMARK    2  A    between atoms: O1_3  and  C3_4
REMARK    3  A    between atoms: C3_4  and  O3_6
REMARK    4  A    between atoms: O3_6  and  C4_7
REMARK    5  A    between atoms: C6_10  and  O5_12
REMARK    6  A    between atoms: C8_14  and  O6_15
REMARK    7  A    between atoms: C9_17  and  O7_18
REMARK    8  A    between atoms: C10_20  and  O8_21
ROOT
HETATM    1  C4  UNL     1      19.272  32.683  44.883  1.00  0.00     0.302 C
HETATM    2  O4  UNL     1      18.839  33.684  45.638  1.00  0.00    -0.355 OA
HETATM    3  C5  UNL     1      17.913  33.509  46.663  1.00  0.00     0.211 C
HETATM    4  C6  UNL     1      16.484  33.577  46.005  1.00  0.00     0.104 C
HETATM    5  C7  UNL     1      16.018  35.039  46.163  1.00  0.00     0.051 C
HETATM    6  C8  UNL     1      16.587  33.069  44.679  1.00  0.00     0.185 C
HETATM    7  C9  UNL     1      17.113  32.550  43.470  1.00  0.00     0.183 C
HETATM    8  C10 UNL     1      18.643  32.340  43.562  1.00  0.00     0.205 C
ENDROOT
BRANCH   1   9
HETATM    9  O3  UNL     1      20.625  32.991  44.563  1.00  0.00    -0.264 OA
BRANCH   9  10
HETATM   10  C3  UNL     1      21.650  32.784  45.434  1.00  0.00     0.408 C
HETATM   11  O2  UNL     1      21.754  31.643  45.993  1.00  0.00    -0.229 OA
BRANCH  10  12
HETATM   12  O1  UNL     1      22.607  33.733  45.765  1.00  0.00    -0.298 OA
BRANCH  12  13
HETATM   13  C2  UNL     1      23.878  33.308  46.190  1.00  0.00     0.176 C
HETATM   14  C1  UNL     1      24.830  34.443  46.413  1.00  0.00     0.034 C
ENDBRANCH  12  13
ENDBRANCH  10  12
ENDBRANCH   9  10
ENDBRANCH   1   9
BRANCH   8  15
HETATM   15  O8  UNL     1      19.265  33.063  42.547  1.00  0.00    -0.388 OA
ATOM     16  H8  UNL     1      19.617  32.464  41.898  1.00  0.00     0.210 HD
ENDBRANCH   8  15
BRANCH   7  17
HETATM   17  O7  UNL     1      16.550  31.328  43.008  1.00  0.00    -0.390 OA
ATOM     18  H7  UNL     1      15.614  31.221  43.130  1.00  0.00     0.210 HD
ENDBRANCH   7  17
BRANCH   4  19
HETATM   19  O5  UNL     1      15.645  32.910  46.903  1.00  0.00    -0.385 OA
ATOM     20  H5  UNL     1      15.932  33.198  47.762  1.00  0.00     0.210 HD
ENDBRANCH   4  19
BRANCH   6  21
HETATM   21  O6  UNL     1      16.965  31.824  45.270  1.00  0.00    -0.390 OA
ATOM     22  H6  UNL     1      17.066  31.495  44.384  1.00  0.00     0.210 HD
ENDBRANCH   6  21
TORSDOF 8
ENDMDL