MODEL 3
REMARK VINA RESULT: -5.816003432      2.847      3.902
REMARK  4 active torsions:
REMARK  status: ('A' for Active; 'I' for Inactive)
REMARK    1  A    between atoms: C3_4  and  C4_5
REMARK       I    between atoms: C4_5  and  N1_7
REMARK    2  A    between atoms: C6_10  and  S1_11
REMARK    3  A    between atoms: C8_14  and  O3_15
REMARK    4  A    between atoms: C9_17  and  O4_18
ROOT
HETATM    1  C4  UNL     1      18.727  33.346  44.791  1.00  0.00     0.332 C
HETATM    2  O2  UNL     1      17.929  34.155  45.376  1.00  0.00    -0.253 OA
HETATM    3  N1  UNL     1      19.886  32.866  45.195  1.00  0.00    -0.289 NA
HETATM    4  C5  UNL     1      21.075  32.373  45.610  1.00  0.00     0.271 C
HETATM    5  N2  UNL     1      22.096  31.928  45.933  1.00  0.00    -0.156 NA
ENDROOT
BRANCH   1   6
HETATM    6  C3  UNL     1      18.210  32.894  43.416  1.00  0.00     0.246 C
HETATM    7  O1  UNL     1      19.282  32.909  42.567  1.00  0.00    -0.366 OA
HETATM    8  C2  UNL     1      19.161  32.185  41.423  1.00  0.00     0.150 C
HETATM    9  C1  UNL     1      20.082  30.986  41.492  1.00  0.00     0.042 C
HETATM   10  C9  UNL     1      17.749  31.809  41.081  1.00  0.00     0.176 C
HETATM   11  C8  UNL     1      17.027  31.147  42.212  1.00  0.00     0.167 C
HETATM   12  C6  UNL     1      17.696  31.495  43.526  1.00  0.00     0.133 C
BRANCH  10  13
HETATM   13  O4  UNL     1      17.793  31.079  39.905  1.00  0.00    -0.390 OA
ATOM     14  H4  UNL     1      17.416  30.226  40.089  1.00  0.00     0.210 HD
ENDBRANCH  10  13
BRANCH  11  15
HETATM   15  O3  UNL     1      15.699  31.589  42.162  1.00  0.00    -0.392 OA
ATOM     16  H3  UNL     1      15.543  32.173  41.429  1.00  0.00     0.210 HD
ENDBRANCH  11  15
BRANCH  12  17
HETATM   17  S1  UNL     1      16.584  31.351  44.922  1.00  0.00    -0.040 SA
HETATM   18  C7  UNL     1      16.236  29.679  45.350  1.00  0.00     0.134 C
HETATM   19  N3  UNL     1      16.030  28.556  45.635  1.00  0.00    -0.184 NA
ENDBRANCH  12  17
ENDBRANCH   1   6
TORSDOF 4
ENDMDL