MODEL 1
REMARK VINA RESULT: -6.428372602      0.000      0.000
REMARK  6 active torsions:
REMARK  status: ('A' for Active; 'I' for Inactive)
REMARK    1  A    between atoms: O1_2  and  C2_3
REMARK       I    between atoms: C2_3  and  N1_5
REMARK    2  A    between atoms: N1_5  and  C3_7
REMARK    3  A    between atoms: C6_11  and  O4_12
REMARK    4  A    between atoms: O4_12  and  C7_13
REMARK    5  A    between atoms: C8_16  and  O6_17
REMARK    6  A    between atoms: C9_19  and  O7_20
ROOT
HETATM    1  C3  UNL     1      22.677  30.706  44.603  1.00  0.00     0.146 C
HETATM    2  C4  UNL     1      21.911  31.478  45.648  1.00  0.00     0.146 C
HETATM    3  C5  UNL     1      21.058  32.558  45.007  1.00  0.00     0.042 C
HETATM    4  O3  UNL     1      22.666  31.921  46.692  1.00  0.00    -0.351 OA
HETATM    5  C6  UNL     1      23.880  32.459  46.388  1.00  0.00     0.302 C
HETATM    6  C8  UNL     1      24.768  31.612  45.540  1.00  0.00     0.204 C
HETATM    7  C9  UNL     1      24.066  30.336  45.095  1.00  0.00     0.177 C
ENDROOT
BRANCH   1   8
HETATM    8  N1  UNL     1      22.021  29.458  44.254  1.00  0.00    -0.327 N
HETATM    9  C2  UNL     1      21.176  29.315  43.140  1.00  0.00     0.360 C
HETATM   10  O2  UNL     1      20.949  30.286  42.381  1.00  0.00    -0.239 OA
ATOM     11  H1  UNL     1      22.182  28.645  44.847  1.00  0.00     0.165 HD
BRANCH   9  12
HETATM   12  O1  UNL     1      20.569  28.107  42.841  1.00  0.00    -0.309 OA
HETATM   13  C1  UNL     1      19.932  27.373  43.873  1.00  0.00     0.215 C
ENDBRANCH   9  12
ENDBRANCH   1   8
BRANCH   7  14
HETATM   14  O7  UNL     1      24.032  29.414  46.118  1.00  0.00    -0.391 OA
ATOM     15  H7  UNL     1      24.296  28.548  45.833  1.00  0.00     0.210 HD
ENDBRANCH   7  14
BRANCH   6  16
HETATM   16  O6  UNL     1      25.210  32.251  44.386  1.00  0.00    -0.388 OA
ATOM     17  H6  UNL     1      25.628  31.666  43.764  1.00  0.00     0.210 HD
ENDBRANCH   6  16
BRANCH   5  18
HETATM   18  O4  UNL     1      23.691  33.760  45.867  1.00  0.00    -0.272 OA
BRANCH  18  19
HETATM   19  C7  UNL     1      24.260  34.897  46.397  1.00  0.00     0.375 C
HETATM   20  N2  UNL     1      23.584  36.128  46.303  1.00  0.00    -0.032 NA
HETATM   21  O5  UNL     1      25.389  34.774  46.952  1.00  0.00    -0.242 OA
ENDBRANCH  18  19
ENDBRANCH   5  18
TORSDOF 6
ENDMDL