MODEL 3
REMARK VINA RESULT: -6.894327150      3.438      5.460
REMARK  6 active torsions:
REMARK  status: ('A' for Active; 'I' for Inactive)
REMARK    1  A    between atoms: C2_2  and  O1_3
REMARK    2  A    between atoms: O1_3  and  C3_4
REMARK    3  A    between atoms: C3_4  and  N3_10
REMARK    4  A    between atoms: N1_5  and  N2_7
REMARK    5  A    between atoms: N3_10  and  N4_12
REMARK    6  A    between atoms: C7_19  and  C8_20
ROOT
HETATM    1  C1  UNL     1      19.271  32.690  41.021  1.00  0.00     0.082 C
HETATM    2  C2  UNL     1      19.473  31.556  41.971  1.00  0.00     0.191 C
HETATM    3  C4  UNL     1      18.697  30.362  41.393  1.00  0.00     0.236 C
HETATM    4  O2  UNL     1      18.283  29.596  42.490  1.00  0.00    -0.386 OA
HETATM    5  C5  UNL     1      16.952  29.923  42.706  1.00  0.00     0.170 C
HETATM    6  C6  UNL     1      16.712  31.167  43.442  1.00  0.00     0.066 C
HETATM    7  C7  UNL     1      17.759  32.224  43.379  1.00  0.00     0.197 C
HETATM    8  O3  UNL     1      19.042  31.793  43.252  1.00  0.00    -0.340 OA
ENDROOT
BRANCH   2   9
HETATM    9  O1  UNL     1      20.813  31.111  42.034  1.00  0.00    -0.280 OA
BRANCH   9  10
HETATM   10  C3  UNL     1      21.402  30.548  43.119  1.00  0.00     0.255 C
HETATM   11  N1  UNL     1      21.608  31.252  44.166  1.00  0.00    -0.271 N
ATOM     12  H1  UNL     1      21.328  32.233  44.176  1.00  0.00     0.190 HD
BRANCH  11  13
HETATM   13  N2  UNL     1      22.210  30.698  45.295  1.00  0.00    -0.342 N
ATOM     14  H22 UNL     1      21.680  30.026  45.850  1.00  0.00     0.176 HD
ATOM     15  H21 UNL     1      23.160  30.957  45.563  1.00  0.00     0.176 HD
ENDBRANCH  11  13
BRANCH  10  16
HETATM   16  N3  UNL     1      21.784  29.198  43.097  1.00  0.00    -0.271 N
ATOM     17  H3  UNL     1      22.744  28.941  42.867  1.00  0.00     0.190 HD
BRANCH  16  18
HETATM   18  N4  UNL     1      20.848  28.213  43.391  1.00  0.00    -0.342 N
ATOM     19  H42 UNL     1      20.733  27.908  44.357  1.00  0.00     0.176 HD
ATOM     20  H41 UNL     1      20.289  27.808  42.639  1.00  0.00     0.176 HD
ENDBRANCH  16  18
ENDBRANCH  10  16
ENDBRANCH   9  10
ENDBRANCH   2   9
BRANCH   7  21
HETATM   21  C8  UNL     1      17.671  33.048  44.628  1.00  0.00     0.139 A
HETATM   22  N5  UNL     1      16.700  33.921  44.958  1.00  0.00    -0.273 N
HETATM   23  N6  UNL     1      16.974  34.446  46.129  1.00  0.00    -0.225 N
ATOM     24  H5  UNL     1      15.882  34.138  44.389  1.00  0.00     0.189 HD
HETATM   25  N7  UNL     1      18.108  33.940  46.583  1.00  0.00    -0.005 NA
ATOM     26  H6  UNL     1      16.401  35.138  46.614  1.00  0.00     0.205 HD
HETATM   27  N8  UNL     1      18.534  33.085  45.664  1.00  0.00    -0.268 N
ATOM     28  H8  UNL     1      19.390  32.535  45.731  1.00  0.00     0.185 HD
ENDBRANCH   7  21
TORSDOF 6
ENDMDL