MODEL 1
REMARK VINA RESULT: -8.617085183      0.000      0.000
REMARK  3 active torsions:
REMARK  status: ('A' for Active; 'I' for Inactive)
REMARK    1  A    between atoms: N1_4  and  N2_6
REMARK       I    between atoms: N2_6  and  C4_8
REMARK       I    between atoms: C4_8  and  N4_12
REMARK       I    between atoms: N4_12  and  C5_14
REMARK    2  A    between atoms: C5_14  and  C6_16
REMARK    3  A    between atoms: C8_21  and  N6_22
ROOT
HETATM    1  N2  UNL     1      18.956  31.816  44.074  1.00  0.00    -0.133 N
ATOM      2  H2  UNL     1      18.991  30.800  44.153  1.00  0.00     0.205 HD
HETATM    3  C4  UNL     1      19.077  32.651  45.215  1.00  0.00     0.693 C
HETATM    4  N3  UNL     1      17.977  33.131  45.715  1.00  0.00    -0.233 N
ATOM      5  H31 UNL     1      18.064  33.732  46.535  1.00  0.00     0.174 HD
ATOM      6  H32 UNL     1      17.067  32.916  45.307  1.00  0.00     0.174 HD
HETATM    7  N4  UNL     1      20.342  32.950  45.782  1.00  0.00    -0.152 N
ATOM      8  H4  UNL     1      20.397  33.554  46.602  1.00  0.00     0.188 HD
HETATM    9  C5  UNL     1      21.526  32.419  45.223  1.00  0.00     0.305 C
HETATM   10  O1  UNL     1      21.432  31.679  44.215  1.00  0.00    -0.263 OA
ENDROOT
BRANCH   9  11
HETATM   11  C6  UNL     1      22.834  32.716  45.793  1.00  0.00     0.195 A
HETATM   12  N5  UNL     1      23.746  31.849  46.263  1.00  0.00    -0.299 N
HETATM   13  C7  UNL     1      24.827  32.529  46.705  1.00  0.00     0.270 A
ATOM     14  H5  UNL     1      23.640  30.835  46.283  1.00  0.00     0.171 HD
HETATM   15  O2  UNL     1      26.007  32.400  47.247  1.00  0.00    -0.243 OA
HETATM   16  N8  UNL     1      24.579  33.830  46.507  1.00  0.00    -0.150 N
HETATM   17  C8  UNL     1      26.543  33.584  47.410  1.00  0.00     0.241 A
HETATM   18  N7  UNL     1      25.649  34.470  46.948  1.00  0.00    -0.240 N
ATOM     19  H7  UNL     1      25.776  35.482  46.937  1.00  0.00     0.193 HD
HETATM   20  N9  UNL     1      23.383  33.931  45.960  1.00  0.00    -0.256 N
ATOM     21  H9  UNL     1      22.936  34.811  45.700  1.00  0.00     0.191 HD
BRANCH  17  22
HETATM   22  N6  UNL     1      27.723  33.836  47.926  1.00  0.00    -0.364 N
ATOM     23  H62 UNL     1      27.960  33.933  48.913  1.00  0.00     0.159 HD
ATOM     24  H61 UNL     1      28.590  33.975  47.407  1.00  0.00     0.159 HD
ENDBRANCH  17  22
ENDBRANCH   9  11
BRANCH   1  25
HETATM   25  N1  UNL     1      18.787  32.445  42.838  1.00  0.00    -0.295 N
HETATM   26  C2  UNL     1      18.927  31.783  41.741  1.00  0.00    -0.004 C
HETATM   27  C1  UNL     1      19.270  30.342  41.797  1.00  0.00     0.064 C
HETATM   28  C3  UNL     1      18.731  32.521  40.472  1.00  0.00     0.064 C
ATOM     29  H1  UNL     1      18.551  33.437  42.805  1.00  0.00     0.186 HD
ENDBRANCH   1  25
TORSDOF 3
ENDMDL