MODEL 4
REMARK VINA RESULT: -6.062469353      1.975      3.348
REMARK  6 active torsions:
REMARK  status: ('A' for Active; 'I' for Inactive)
REMARK    1  A    between atoms: C4_6  and  O3_7
REMARK    2  A    between atoms: C5_9  and  O4_10
REMARK    3  A    between atoms: C6_12  and  O5_13
REMARK    4  A    between atoms: O5_13  and  C7_14
REMARK    5  A    between atoms: C10_17  and  O6_18
REMARK    6  A    between atoms: C11_20  and  O7_21
ROOT
HETATM    1  C1  UNL     1      18.051  32.206  44.725  1.00  0.00     0.052 C
HETATM    2  C2  UNL     1      18.560  31.853  43.359  1.00  0.00     0.117 C
HETATM    3  C3  UNL     1      19.155  33.093  42.735  1.00  0.00     0.052 C
HETATM    4  O1  UNL     1      17.534  31.366  42.561  1.00  0.00    -0.225 OA
HETATM    5  O2  UNL     1      17.925  31.388  41.324  1.00  0.00    -0.205 OA
HETATM    6  C4  UNL     1      18.910  30.482  41.024  1.00  0.00     0.325 C
HETATM    7  C5  UNL     1      19.607  29.897  42.206  1.00  0.00     0.208 C
HETATM    8  C6  UNL     1      19.631  30.769  43.415  1.00  0.00     0.192 C
ENDROOT
BRANCH   8   9
HETATM    9  O5  UNL     1      20.837  31.418  43.616  1.00  0.00    -0.372 OA
BRANCH   9  10
HETATM   10  C7  UNL     1      21.475  31.099  44.774  1.00  0.00     0.153 C
HETATM   11  C8  UNL     1      22.194  32.246  45.436  1.00  0.00     0.037 C
HETATM   12  C9  UNL     1      23.176  31.476  46.330  1.00  0.00     0.037 C
HETATM   13  C10 UNL     1      23.768  30.526  45.318  1.00  0.00     0.149 C
HETATM   14  C11 UNL     1      22.598  30.131  44.460  1.00  0.00     0.175 C
BRANCH  13  15
HETATM   15  O6  UNL     1      24.355  29.417  45.917  1.00  0.00    -0.393 OA
ATOM     16  H6  UNL     1      24.210  28.621  45.420  1.00  0.00     0.210 HD
ENDBRANCH  13  15
BRANCH  14  17
HETATM   17  O7  UNL     1      22.938  30.181  43.098  1.00  0.00    -0.390 OA
ATOM     18  H7  UNL     1      22.702  31.020  42.720  1.00  0.00     0.210 HD
ENDBRANCH  14  17
ENDBRANCH   9  10
ENDBRANCH   8   9
BRANCH   7  19
HETATM   19  O4  UNL     1      18.928  28.710  42.564  1.00  0.00    -0.388 OA
ATOM     20  H4  UNL     1      19.505  28.203  43.124  1.00  0.00     0.210 HD
ENDBRANCH   7  19
BRANCH   6  21
HETATM   21  O3  UNL     1      18.305  29.430  40.313  1.00  0.00    -0.366 OA
ATOM     22  H3  UNL     1      18.295  28.673  40.886  1.00  0.00     0.212 HD
ENDBRANCH   6  21
TORSDOF 6
ENDMDL