MODEL 5
REMARK VINA RESULT: -6.584996808      3.112      6.767
REMARK  7 active torsions:
REMARK  status: ('A' for Active; 'I' for Inactive)
REMARK    1  A    between atoms: C1_2  and  C2_4
REMARK    2  A    between atoms: C4_6  and  C5_7
REMARK    3  A    between atoms: C8_15  and  C9_16
REMARK    4  A    between atoms: C9_16  and  C10_17
REMARK    5  A    between atoms: C10_17  and  O4_18
REMARK    6  A    between atoms: N4_20  and  O5_22
REMARK    7  A    between atoms: C13_26  and  C14_27
ROOT
HETATM    1  C2  UNL     1       4.998  22.056  82.852  1.00  0.00     0.034 C
HETATM    2  C3  UNL     1       5.094  21.498  84.020  1.00  0.00     0.057 C
HETATM    3  C4  UNL     1       4.341  21.276  85.271  1.00  0.00     0.237 C
HETATM    4  N2  UNL     1       4.123  19.845  85.315  1.00  0.00    -0.361 N
HETATM    5  C6  UNL     1       2.798  19.357  85.334  1.00  0.00     0.143 C
HETATM    6  C7  UNL     1       2.709  17.901  84.918  1.00  0.00     0.134 C
HETATM    7  N3  UNL     1       3.139  16.983  85.899  1.00  0.00    -0.415 N
ATOM      8  H3  UNL     1       2.701  16.068  86.001  1.00  0.00     0.153 HD
HETATM    9  C8  UNL     1       4.203  17.392  86.734  1.00  0.00     0.089 C
HETATM   10  C11 UNL     1       5.488  17.714  85.971  1.00  0.00     0.084 C
HETATM   11  C12 UNL     1       5.351  19.060  85.325  1.00  0.00     0.044 C
HETATM   12  C13 UNL     1       6.442  19.500  84.709  1.00  0.00     0.135 C
HETATM   13  N5  UNL     1       6.376  20.755  84.010  1.00  0.00    -0.340 N
HETATM   14  C15 UNL     1       7.276  21.494  83.182  1.00  0.00     0.134 C
HETATM   15  C16 UNL     1       6.302  21.908  82.071  1.00  0.00     0.066 C
ENDROOT
BRANCH   9  16
HETATM   16  C9  UNL     1       4.535  16.497  87.872  1.00  0.00     0.110 C
BRANCH  16  17
HETATM   17  C10 UNL     1       5.167  15.219  87.486  1.00  0.00     0.137 C
HETATM   18  N4  UNL     1       6.211  14.742  88.068  1.00  0.00    -0.251 N
ATOM     19  H4  UNL     1       6.589  13.851  87.744  1.00  0.00     0.196 HD
BRANCH  17  20
HETATM   20  O4  UNL     1       4.610  14.496  86.448  1.00  0.00    -0.348 OA
ATOM     21  H4  UNL     1       4.679  14.843  85.566  1.00  0.00     0.219 HD
ENDBRANCH  17  20
BRANCH  18  22
HETATM   22  O5  UNL     1       6.839  15.387  89.112  1.00  0.00    -0.288 OA
ATOM     23  H5  UNL     1       7.780  15.515  89.142  1.00  0.00     0.244 HD
ENDBRANCH  18  22
ENDBRANCH  16  17
ENDBRANCH   9  16
BRANCH  12  24
HETATM   24  C14 UNL     1       7.681  18.761  84.695  1.00  0.00     0.229 C
HETATM   25  O6  UNL     1       8.570  18.922  85.558  1.00  0.00    -0.643 OA
HETATM   26  O7  UNL     1       7.942  17.811  83.684  1.00  0.00    -0.643 OA
ENDBRANCH  12  24
BRANCH   3  27
HETATM   27  C5  UNL     1       3.268  22.140  85.645  1.00  0.00     0.203 C
HETATM   28  O2  UNL     1       2.279  22.548  84.989  1.00  0.00    -0.646 OA
HETATM   29  O3  UNL     1       3.272  22.643  86.975  1.00  0.00    -0.646 OA
ENDBRANCH   3  27
BRANCH   1  30
HETATM   30  C1  UNL     1       3.897  22.781  82.276  1.00  0.00     0.263 C
HETATM   31  N1  UNL     1       2.879  22.036  81.570  1.00  0.00    -0.057 NA
HETATM   32  O1  UNL     1       3.716  23.995  82.317  1.00  0.00    -0.271 OA
ENDBRANCH   1  30
TORSDOF 7
ENDMDL