MODEL 4
REMARK VINA RESULT: -6.943984216      1.306      1.713
REMARK  10 active torsions:
REMARK  status: ('A' for Active; 'I' for Inactive)
REMARK    1  A    between atoms: C2_2  and  O1_3
REMARK    2  A    between atoms: C5_7  and  O2_8
REMARK    3  A    between atoms: O2_8  and  C6_9
REMARK    4  A    between atoms: C8_11  and  O3_12
REMARK    5  A    between atoms: C9_14  and  C10_15
REMARK    6  A    between atoms: C11_18  and  O6_19
REMARK    7  A    between atoms: O6_19  and  C12_20
REMARK    8  A    between atoms: C14_22  and  O7_23
REMARK    9  A    between atoms: C16_26  and  O8_27
REMARK   10  A    between atoms: C17_29  and  O9_30
ROOT
HETATM    1  C6  UNL     1       9.354  19.375  82.763  1.00  0.00     0.155 C
HETATM    2  C7  UNL     1       8.031  20.094  82.682  1.00  0.00     0.067 C
HETATM    3  C8  UNL     1       6.950  19.031  82.698  1.00  0.00     0.137 C
HETATM    4  C9  UNL     1       7.153  17.991  83.744  1.00  0.00     0.147 C
HETATM    5  C11 UNL     1       8.208  18.368  84.739  1.00  0.00     0.170 C
HETATM    6  C17 UNL     1       9.510  18.792  84.144  1.00  0.00     0.177 C
ENDROOT
BRANCH   5   7
HETATM    7  O6  UNL     1       8.438  17.335  85.637  1.00  0.00    -0.374 OA
BRANCH   7   8
HETATM    8  C12 UNL     1       8.086  17.659  86.942  1.00  0.00     0.153 C
HETATM    9  C13 UNL     1       8.964  17.004  87.964  1.00  0.00     0.066 C
HETATM   10  C14 UNL     1       8.078  15.971  88.673  1.00  0.00     0.123 C
HETATM   11  C15 UNL     1       6.713  16.617  88.592  1.00  0.00     0.066 C
HETATM   12  C16 UNL     1       6.697  17.143  87.181  1.00  0.00     0.149 C
BRANCH  10  13
HETATM   13  O7  UNL     1       8.049  14.811  87.891  1.00  0.00    -0.395 OA
ATOM     14  H7  UNL     1       8.822  14.298  88.095  1.00  0.00     0.210 HD
ENDBRANCH  10  13
BRANCH  12  15
HETATM   15  O8  UNL     1       5.795  18.194  87.029  1.00  0.00    -0.393 OA
ATOM     16  H8  UNL     1       5.238  18.234  87.797  1.00  0.00     0.210 HD
ENDBRANCH  12  15
ENDBRANCH   7   8
ENDBRANCH   5   7
BRANCH   4  17
HETATM   17  C10 UNL     1       7.349  16.678  83.120  1.00  0.00     0.182 C
HETATM   18  O4  UNL     1       8.148  16.390  82.222  1.00  0.00    -0.648 OA
HETATM   19  O5  UNL     1       6.537  15.634  83.599  1.00  0.00    -0.648 OA
ENDBRANCH   4  17
BRANCH   6  20
HETATM   20  O9  UNL     1      10.417  17.732  84.121  1.00  0.00    -0.390 OA
ATOM     21  H9  UNL     1      10.245  17.168  83.376  1.00  0.00     0.210 HD
ENDBRANCH   6  20
BRANCH   3  22
HETATM   22  O3  UNL     1       5.732  19.725  82.865  1.00  0.00    -0.394 OA
ATOM     23  H3  UNL     1       5.942  20.496  83.379  1.00  0.00     0.210 HD
ENDBRANCH   3  22
BRANCH   1  24
HETATM   24  O2  UNL     1      10.417  20.073  82.305  1.00  0.00    -0.378 OA
BRANCH  24  25
HETATM   25  C5  UNL     1      10.917  19.774  81.086  1.00  0.00     0.125 C
HETATM   26  C4  UNL     1      10.408  20.640  79.959  1.00  0.00     0.035 C
HETATM   27  C3  UNL     1      10.570  19.802  78.706  1.00  0.00     0.040 C
HETATM   28  C2  UNL     1      10.290  18.420  79.181  1.00  0.00     0.057 C
HETATM   29  C1  UNL     1      11.309  17.430  78.608  1.00  0.00     0.045 C
HETATM   30  C18 UNL     1      10.327  18.414  80.683  1.00  0.00     0.069 C
BRANCH  28  31
HETATM   31  O1  UNL     1       9.041  18.028  78.675  1.00  0.00    -0.390 OA
ATOM     32  H1  UNL     1       8.657  18.807  78.289  1.00  0.00     0.210 HD
ENDBRANCH  28  31
ENDBRANCH  24  25
ENDBRANCH   1  24
TORSDOF 10
ENDMDL