MODEL 1
REMARK VINA RESULT: -6.694164139      0.000      0.000
REMARK  10 active torsions:
REMARK  status: ('A' for Active; 'I' for Inactive)
REMARK    1  A    between atoms: C2_2  and  O1_3
REMARK    2  A    between atoms: C3_5  and  C4_6
REMARK    3  A    between atoms: C4_6  and  O2_7
REMARK    4  A    between atoms: C4_6  and  C5_9
REMARK    5  A    between atoms: C5_9  and  O3_10
REMARK    6  A    between atoms: C5_9  and  C6_12
REMARK    7  A    between atoms: C6_12  and  O4_13
REMARK    8  A    between atoms: C6_12  and  C7_15
REMARK    9  A    between atoms: C7_15  and  O5_16
REMARK   10  A    between atoms: C10_20  and  O6_21
ROOT
HETATM    1  C1  UNL     1       5.068  15.104  84.890  1.00  0.00     0.049 C
HETATM    2  C2  UNL     1       5.119  16.357  85.800  1.00  0.00     0.089 C
HETATM    3  C3  UNL     1       6.596  16.547  86.095  1.00  0.00     0.054 C
HETATM    4  C8  UNL     1       7.023  17.970  86.182  1.00  0.00     0.013 C
HETATM    5  C9  UNL     1       6.382  18.883  85.120  1.00  0.00     0.042 C
HETATM    6  C10 UNL     1       4.957  18.846  85.391  1.00  0.00     0.100 C
HETATM    7  C11 UNL     1       4.479  17.425  85.035  1.00  0.00     0.192 C
HETATM    8  O7  UNL     1       3.104  17.639  85.307  1.00  0.00    -0.370 OA
HETATM    9  C12 UNL     1       2.908  18.624  84.384  1.00  0.00     0.161 C
HETATM   10  C13 UNL     1       1.657  19.312  84.268  1.00  0.00     0.030 C
HETATM   11  C14 UNL     1       1.717  20.508  83.687  1.00  0.00     0.134 C
HETATM   12  O8  UNL     1       2.917  21.042  83.228  1.00  0.00    -0.352 OA
HETATM   13  C15 UNL     1       4.195  20.425  83.521  1.00  0.00     0.072 C
HETATM   14  C16 UNL     1       5.163  21.603  83.678  1.00  0.00     0.047 C
HETATM   15  C17 UNL     1       4.544  19.686  82.286  1.00  0.00     0.047 C
HETATM   16  C18 UNL     1       3.966  19.685  84.762  1.00  0.00     0.050 C
HETATM   17  C19 UNL     1       3.428  20.664  85.792  1.00  0.00     0.025 C
ENDROOT
BRANCH   3  18
HETATM   18  C4  UNL     1       6.832  15.914  87.440  1.00  0.00     0.156 C
BRANCH  18  19
HETATM   19  O2  UNL     1       7.851  14.959  87.359  1.00  0.00    -0.392 OA
ATOM     20  H2  UNL     1       8.400  14.992  88.134  1.00  0.00     0.210 HD
ENDBRANCH  18  19
BRANCH  18  21
HETATM   21  C5  UNL     1       7.111  16.858  88.565  1.00  0.00     0.178 C
BRANCH  21  22
HETATM   22  O3  UNL     1       5.877  17.165  89.226  1.00  0.00    -0.390 OA
ATOM     23  H3  UNL     1       6.066  17.437  90.115  1.00  0.00     0.210 HD
ENDBRANCH  21  22
BRANCH  21  24
HETATM   24  C6  UNL     1       8.035  16.396  89.629  1.00  0.00     0.172 C
BRANCH  24  25
HETATM   25  O4  UNL     1       7.562  16.456  90.917  1.00  0.00    -0.391 OA
ATOM     26  H4  UNL     1       8.207  16.618  91.597  1.00  0.00     0.210 HD
ENDBRANCH  24  25
BRANCH  24  27
HETATM   27  C7  UNL     1       9.416  17.018  89.551  1.00  0.00     0.198 C
BRANCH  27  28
HETATM   28  O5  UNL     1       9.968  16.663  88.298  1.00  0.00    -0.398 OA
ATOM     29  H5  UNL     1      10.191  17.470  87.848  1.00  0.00     0.209 HD
ENDBRANCH  27  28
ENDBRANCH  24  27
ENDBRANCH  21  24
ENDBRANCH  18  21
ENDBRANCH   3  18
BRANCH   2  30
HETATM   30  O1  UNL     1       4.404  15.924  86.927  1.00  0.00    -0.387 OA
ATOM     31  H1  UNL     1       3.555  16.327  86.786  1.00  0.00     0.210 HD
ENDBRANCH   2  30
BRANCH   6  32
HETATM   32  O6  UNL     1       4.789  18.872  86.802  1.00  0.00    -0.386 OA
ATOM     33  H6  UNL     1       3.928  19.231  86.982  1.00  0.00     0.210 HD
ENDBRANCH   6  32
TORSDOF 10
ENDMDL