MODEL 4
REMARK VINA RESULT: -8.137072140      1.820      2.290
REMARK  10 active torsions:
REMARK  status: ('A' for Active; 'I' for Inactive)
REMARK    1  A    between atoms: C2_2  and  O1_4
REMARK    2  A    between atoms: C2_2  and  C18_32
REMARK    3  A    between atoms: O1_4  and  N1_5
REMARK       I    between atoms: N1_5  and  C4_7
REMARK    4  A    between atoms: C4_7  and  C5_9
REMARK    5  A    between atoms: C5_9  and  O3_10
REMARK    6  A    between atoms: C5_9  and  C6_12
REMARK    7  A    between atoms: C5_9  and  C12_18
REMARK    8  A    between atoms: C12_18  and  O4_19
REMARK    9  A    between atoms: N2_22  and  O5_24
REMARK   10  A    between atoms: C16_28  and  O6_30
ROOT
HETATM    1  C5  UNL     1       6.835  16.811  85.809  1.00  0.00     0.207 C
ENDROOT
BRANCH   1   2
HETATM    2  C4  UNL     1       7.193  16.585  84.388  1.00  0.00     0.284 C
HETATM    3  N1  UNL     1       8.103  17.364  83.647  1.00  0.00    -0.231 N
ATOM      4  H1  UNL     1       8.578  18.137  84.113  1.00  0.00     0.197 HD
HETATM    5  O2  UNL     1       6.659  15.621  83.742  1.00  0.00    -0.267 OA
BRANCH   3   6
HETATM    6  O1  UNL     1       8.366  17.133  82.365  1.00  0.00    -0.258 OA
BRANCH   6   7
HETATM    7  C2  UNL     1       9.014  18.079  81.646  1.00  0.00     0.159 C
HETATM    8  C1  UNL     1       9.068  17.751  80.166  1.00  0.00     0.058 C
HETATM    9  C3  UNL     1      10.507  17.964  82.150  1.00  0.00     0.058 C
BRANCH   7  10
HETATM   10  C18 UNL     1       8.626  19.437  81.972  1.00  0.00     0.267 C
HETATM   11  N3  UNL     1       9.464  20.291  82.714  1.00  0.00    -0.059 NA
HETATM   12  O7  UNL     1       7.500  19.873  81.578  1.00  0.00    -0.273 OA
ENDBRANCH   7  10
ENDBRANCH   6   7
ENDBRANCH   3   6
ENDBRANCH   1   2
BRANCH   1  13
HETATM   13  O3  UNL     1       6.504  15.464  86.265  1.00  0.00    -0.372 OA
ATOM     14  H3  UNL     1       5.561  15.511  86.366  1.00  0.00     0.211 HD
ENDBRANCH   1  13
BRANCH   1  15
HETATM   15  C6  UNL     1       8.045  17.056  86.592  1.00  0.00    -0.011 A
HETATM   16  C7  UNL     1       9.120  17.838  86.246  1.00  0.00     0.011 A
HETATM   17  C8  UNL     1      10.237  18.032  87.039  1.00  0.00     0.001 A
HETATM   18  C9  UNL     1      10.276  17.398  88.260  1.00  0.00     0.000 A
HETATM   19  C10 UNL     1       9.238  16.599  88.676  1.00  0.00     0.001 A
HETATM   20  C11 UNL     1       8.154  16.442  87.850  1.00  0.00     0.011 A
ENDBRANCH   1  15
BRANCH   1  21
HETATM   21  C12 UNL     1       5.610  17.526  86.078  1.00  0.00     0.172 C
HETATM   22  C13 UNL     1       4.668  16.504  86.757  1.00  0.00     0.051 C
HETATM   23  N2  UNL     1       4.789  16.068  87.959  1.00  0.00    -0.274 N
HETATM   24  C14 UNL     1       3.620  16.098  85.828  1.00  0.00     0.061 C
ATOM     25  H2  UNL     1       5.549  16.392  88.557  1.00  0.00     0.193 HD
HETATM   26  C15 UNL     1       3.638  17.126  84.760  1.00  0.00     0.047 C
HETATM   27  C16 UNL     1       4.695  18.171  85.193  1.00  0.00     0.095 C
HETATM   28  C17 UNL     1       5.046  18.912  83.977  1.00  0.00     0.049 C
BRANCH  21  29
HETATM   29  O4  UNL     1       5.869  18.399  87.177  1.00  0.00    -0.377 OA
ATOM     30  H4  UNL     1       6.033  17.852  87.936  1.00  0.00     0.211 HD
ENDBRANCH  21  29
BRANCH  23  31
HETATM   31  O5  UNL     1       3.877  15.162  88.420  1.00  0.00    -0.290 OA
ATOM     32  H5  UNL     1       3.259  15.439  89.085  1.00  0.00     0.244 HD
ENDBRANCH  23  31
BRANCH  27  33
HETATM   33  O6  UNL     1       3.873  19.086  85.943  1.00  0.00    -0.387 OA
ATOM     34  H6  UNL     1       3.694  19.853  85.413  1.00  0.00     0.210 HD
ENDBRANCH  27  33
ENDBRANCH   1  21
TORSDOF 10
ENDMDL