MODEL 5
REMARK VINA RESULT: -8.583612772      2.071      2.919
REMARK  4 active torsions:
REMARK  status: ('A' for Active; 'I' for Inactive)
REMARK       I    between atoms: C1_4  and  N3_6
REMARK    1  A    between atoms: C6_13  and  C7_14
REMARK    2  A    between atoms: C7_14  and  N5_15
REMARK    3  A    between atoms: N6_19  and  N7_21
REMARK    4  A    between atoms: C17_33  and  N11_34
ROOT
HETATM    1  N1  UNL     1       7.361  16.312  93.227  1.00  0.00    -0.372 N
ATOM      2  H11 UNL     1       7.014  15.493  92.727  1.00  0.00     0.158 HD
ATOM      3  H12 UNL     1       7.152  16.424  94.219  1.00  0.00     0.158 HD
HETATM    4  C1  UNL     1       8.053  17.188  92.614  1.00  0.00     0.209 C
HETATM    5  N2  UNL     1       8.533  18.317  93.304  1.00  0.00    -0.062 NA
HETATM    6  N3  UNL     1       8.342  17.032  91.240  1.00  0.00    -0.209 N
HETATM    7  N4  UNL     1       7.448  16.972  90.296  1.00  0.00    -0.274 N
ATOM      8  H4  UNL     1       6.473  17.043  90.587  1.00  0.00     0.189 HD
HETATM    9  C2  UNL     1       7.672  16.825  88.983  1.00  0.00     0.130 A
HETATM   10  C3  UNL     1       6.626  16.764  87.988  1.00  0.00     0.009 A
HETATM   11  C4  UNL     1       6.927  16.613  86.664  1.00  0.00     0.016 A
HETATM   12  C5  UNL     1       5.934  16.551  85.683  1.00  0.00     0.014 A
HETATM   13  C6  UNL     1       4.625  16.646  86.076  1.00  0.00    -0.020 A
HETATM   14  C14 UNL     1       4.290  16.799  87.399  1.00  0.00     0.014 A
HETATM   15  C15 UNL     1       5.303  16.855  88.331  1.00  0.00     0.016 A
HETATM   16  N10 UNL     1       8.981  16.731  88.600  1.00  0.00    -0.347 N
ATOM     17  H10 UNL     1       9.216  16.618  87.614  1.00  0.00     0.167 HD
HETATM   18  C16 UNL     1       9.958  16.787  89.518  1.00  0.00     0.139 A
HETATM   19  C17 UNL     1       9.651  16.939  90.852  1.00  0.00     0.139 A
ENDROOT
BRANCH  13  20
HETATM   20  C7  UNL     1       3.543  16.579  85.045  1.00  0.00     0.106 C
BRANCH  20  21
HETATM   21  N5  UNL     1       3.478  17.613  84.136  1.00  0.00    -0.349 N
HETATM   22  C8  UNL     1       2.449  17.701  83.198  1.00  0.00     0.074 C
HETATM   23  C9  UNL     1       1.583  18.908  83.526  1.00  0.00     0.099 C
HETATM   24  C10 UNL     1       2.372  19.907  84.290  1.00  0.00     0.013 C
HETATM   25  N6  UNL     1       1.720  20.779  84.971  1.00  0.00    -0.306 N
HETATM   26  C12 UNL     1       3.843  19.959  84.314  1.00  0.00     0.099 C
ATOM     27  H6  UNL     1       0.701  20.744  84.955  1.00  0.00     0.186 HD
HETATM   28  C13 UNL     1       4.481  18.602  84.109  1.00  0.00     0.074 C
BRANCH  25  29
HETATM   29  N7  UNL     1       2.329  21.761  85.722  1.00  0.00    -0.276 N
HETATM   30  C11 UNL     1       1.651  22.663  86.337  1.00  0.00     0.215 C
HETATM   31  N8  UNL     1       2.320  23.656  87.101  1.00  0.00    -0.065 NA
HETATM   32  N9  UNL     1       0.237  22.644  86.236  1.00  0.00    -0.065 NA
ATOM     33  H7  UNL     1       3.347  21.772  85.793  1.00  0.00     0.189 HD
ENDBRANCH  25  29
ENDBRANCH  20  21
ENDBRANCH  13  20
BRANCH  19  34
HETATM   34  N11 UNL     1      10.553  16.997  91.763  1.00  0.00    -0.383 N
ATOM     35 2H11 UNL     1      11.486  17.369  91.586  1.00  0.00     0.157 HD
ATOM     36 1H11 UNL     1      10.315  16.653  92.694  1.00  0.00     0.157 HD
ENDBRANCH  19  34
TORSDOF 4
ENDMDL