MODEL 3
REMARK VINA RESULT: -7.506876265      1.505      1.833
REMARK  8 active torsions:
REMARK  status: ('A' for Active; 'I' for Inactive)
REMARK    1  A    between atoms: N1_1  and  N2_4
REMARK    2  A    between atoms: C1_6  and  C2_8
REMARK    3  A    between atoms: C5_11  and  S1_12
REMARK    4  A    between atoms: S1_12  and  N4_15
REMARK    5  A    between atoms: N4_15  and  C6_17
REMARK    6  A    between atoms: C9_20  and  S2_21
REMARK    7  A    between atoms: S2_21  and  N5_22
REMARK    8  A    between atoms: C13_30  and  O5_31
ROOT
HETATM    1  S1  UNL     1       4.802  16.998  87.496  1.00  0.00     0.263 S
HETATM    2  O1  UNL     1       4.442  17.741  88.756  1.00  0.00    -0.200 OA
HETATM    3  O2  UNL     1       3.575  16.307  86.935  1.00  0.00    -0.200 OA
ENDROOT
BRANCH   1   4
HETATM    4  C5  UNL     1       5.265  18.213  86.297  1.00  0.00     0.082 A
HETATM    5  C4  UNL     1       4.414  19.208  85.905  1.00  0.00     0.026 A
HETATM    6  C3  UNL     1       4.820  20.156  84.964  1.00  0.00     0.019 A
HETATM    7  C2  UNL     1       6.063  20.118  84.415  1.00  0.00     0.040 A
HETATM    8  C13 UNL     1       6.909  19.111  84.819  1.00  0.00     0.080 A
HETATM    9  C12 UNL     1       6.549  18.164  85.739  1.00  0.00     0.062 A
BRANCH   7  10
HETATM   10  C1  UNL     1       6.559  21.097  83.408  1.00  0.00     0.143 C
HETATM   11  N2  UNL     1       7.130  22.059  83.795  1.00  0.00    -0.294 N
ATOM     12  H2  UNL     1       7.178  21.999  84.812  1.00  0.00     0.187 HD
HETATM   13  N3  UNL     1       6.272  20.780  82.046  1.00  0.00    -0.080 NA
BRANCH  11  14
HETATM   14  N1  UNL     1       7.754  23.222  83.420  1.00  0.00    -0.344 N
ATOM     15  H12 UNL     1       7.298  23.514  82.555  1.00  0.00     0.176 HD
ATOM     16  H11 UNL     1       8.480  23.897  83.663  1.00  0.00     0.176 HD
ENDBRANCH  11  14
ENDBRANCH   7  10
BRANCH   8  17
HETATM   17  O5  UNL     1       8.198  19.076  84.244  1.00  0.00    -0.360 OA
ATOM     18  H5  UNL     1       8.293  18.622  83.415  1.00  0.00     0.217 HD
ENDBRANCH   8  17
ENDBRANCH   1   4
BRANCH   1  19
HETATM   19  N4  UNL     1       6.094  15.910  87.696  1.00  0.00    -0.281 N
ATOM     20  H4  UNL     1       5.994  14.952  87.360  1.00  0.00     0.179 HD
BRANCH  19  21
HETATM   21  C6  UNL     1       7.310  16.305  88.321  1.00  0.00     0.042 A
HETATM   22  C7  UNL     1       8.438  16.649  87.614  1.00  0.00     0.031 A
HETATM   23  C8  UNL     1       9.601  17.017  88.257  1.00  0.00     0.027 A
HETATM   24  C9  UNL     1       9.663  17.049  89.652  1.00  0.00     0.079 A
HETATM   25  C10 UNL     1       8.542  16.708  90.390  1.00  0.00     0.027 A
HETATM   26  C11 UNL     1       7.403  16.347  89.713  1.00  0.00     0.031 A
BRANCH  24  27
HETATM   27  S2  UNL     1      11.146  17.492  90.460  1.00  0.00     0.256 S
HETATM   28  O3  UNL     1      10.962  17.453  91.946  1.00  0.00    -0.201 OA
HETATM   29  O4  UNL     1      11.615  18.864  90.007  1.00  0.00    -0.201 OA
BRANCH  27  30
HETATM   30  N5  UNL     1      12.397  16.384  90.043  1.00  0.00    -0.324 N
ATOM     31  H52 UNL     1      13.238  16.234  90.601  1.00  0.00     0.169 HD
ATOM     32  H51 UNL     1      12.169  15.911  89.169  1.00  0.00     0.169 HD
ENDBRANCH  27  30
ENDBRANCH  24  27
ENDBRANCH  19  21
ENDBRANCH   1  19
TORSDOF 8
ENDMDL