MODEL 2
REMARK VINA RESULT: -8.080490178      2.615      4.165
REMARK  11 active torsions:
REMARK  status: ('A' for Active; 'I' for Inactive)
REMARK    1  A    between atoms: C2_2  and  C3_3
REMARK    2  A    between atoms: C2_2  and  C19_27
REMARK    3  A    between atoms: C3_3  and  C4_4
REMARK    4  A    between atoms: C4_4  and  C5_5
REMARK    5  A    between atoms: C5_5  and  O1_6
REMARK    6  A    between atoms: C8_10  and  O2_11
REMARK    7  A    between atoms: C16_20  and  O3_21
REMARK    8  A    between atoms: C19_27  and  O6_28
REMARK    9  A    between atoms: C19_27  and  C20_30
REMARK   10  A    between atoms: C20_30  and  O7_31
REMARK   11  A    between atoms: C20_30  and  O8_33
ROOT
HETATM    1  C4  UNL     1       5.857  18.232  85.383  1.00  0.00     0.028 C
HETATM    2  C6  UNL     1       6.711  19.375  84.873  1.00  0.00     0.021 C
HETATM    3  C7  UNL     1       6.478  19.983  83.566  1.00  0.00     0.042 C
HETATM    4  C8  UNL     1       5.208  20.724  83.254  1.00  0.00     0.092 C
HETATM    5  C9  UNL     1       4.727  21.540  84.497  1.00  0.00     0.081 C
HETATM    6  C10 UNL     1       3.291  21.311  84.689  1.00  0.00     0.093 A
HETATM    7  C11 UNL     1       3.021  21.156  83.287  1.00  0.00     0.082 C
HETATM    8  C12 UNL     1       3.981  19.942  83.211  1.00  0.00     0.095 C
HETATM    9  C13 UNL     1       3.242  19.030  82.474  1.00  0.00     0.042 C
HETATM   10  C14 UNL     1       2.085  18.626  83.406  1.00  0.00     0.013 C
HETATM   11  C15 UNL     1       2.180  19.023  84.852  1.00  0.00     0.049 C
HETATM   12  C16 UNL     1       3.241  18.138  85.598  1.00  0.00     0.154 C
HETATM   13  C17 UNL     1       4.465  18.952  85.374  1.00  0.00     0.166 C
HETATM   14  O4  UNL     1       4.358  19.258  84.219  1.00  0.00    -0.368 OA
HETATM   15  C18 UNL     1       2.262  20.446  85.181  1.00  0.00     0.164 A
HETATM   16  O5  UNL     1       2.921  21.264  85.911  1.00  0.00    -0.368 OA
ENDROOT
BRANCH   1  17
HETATM   17  C3  UNL     1       6.161  17.986  86.796  1.00  0.00    -0.003 C
BRANCH  17  18
HETATM   18  C2  UNL     1       7.157  17.097  87.337  1.00  0.00    -0.037 C
HETATM   19  C1  UNL     1       8.455  17.095  87.323  1.00  0.00     0.021 C
BRANCH  18  20
HETATM   20  C19 UNL     1       6.522  15.934  88.081  1.00  0.00     0.205 C
BRANCH  20  21
HETATM   21  O6  UNL     1       7.392  14.839  88.069  1.00  0.00    -0.386 OA
ATOM     22  H6  UNL     1       7.069  14.168  88.659  1.00  0.00     0.210 HD
ENDBRANCH  20  21
BRANCH  20  23
HETATM   23  C20 UNL     1       5.147  15.565  87.713  1.00  0.00     0.287 C
BRANCH  23  24
HETATM   24  O7  UNL     1       4.148  15.839  88.622  1.00  0.00    -0.369 OA
ATOM     25  H7  UNL     1       4.407  16.034  89.514  1.00  0.00     0.212 HD
ENDBRANCH  23  24
BRANCH  23  26
HETATM   26  O8  UNL     1       4.961  14.300  87.180  1.00  0.00    -0.369 OA
ATOM     27  H8  UNL     1       4.068  14.049  86.976  1.00  0.00     0.212 HD
ENDBRANCH  23  26
ENDBRANCH  20  23
ENDBRANCH  18  20
ENDBRANCH  17  18
ENDBRANCH   1  17
BRANCH   1  28
HETATM   28  C5  UNL     1       5.829  17.035  84.534  1.00  0.00     0.180 C
BRANCH  28  29
HETATM   29  O1  UNL     1       6.975  16.574  83.954  1.00  0.00    -0.400 OA
ATOM     30  H1  UNL     1       7.046  15.664  83.691  1.00  0.00     0.209 HD
ENDBRANCH  28  29
ENDBRANCH   1  28
BRANCH  12  31
HETATM   31  O3  UNL     1       2.874  18.013  86.920  1.00  0.00    -0.392 OA
ATOM     32  H3  UNL     1       3.387  17.322  87.321  1.00  0.00     0.210 HD
ENDBRANCH  12  31
BRANCH   4  33
HETATM   33  O2  UNL     1       5.382  21.505  82.150  1.00  0.00    -0.387 OA
ATOM     34  H2  UNL     1       4.919  22.328  82.257  1.00  0.00     0.210 HD
ENDBRANCH   4  33
TORSDOF 11
ENDMDL