MODEL 5
REMARK VINA RESULT: -7.829529345      4.064      7.352
REMARK  10 active torsions:
REMARK  status: ('A' for Active; 'I' for Inactive)
REMARK    1  A    between atoms: C2_2  and  O1_4
REMARK    2  A    between atoms: C2_2  and  C4_6
REMARK    3  A    between atoms: C4_6  and  C5_8
REMARK    4  A    between atoms: C5_8  and  O3_9
REMARK    5  A    between atoms: C5_8  and  N1_11
REMARK    6  A    between atoms: C8_15  and  O4_16
REMARK    7  A    between atoms: N2_19  and  C10_20
REMARK    8  A    between atoms: C10_20  and  C11_25
REMARK    9  A    between atoms: N3_21  and  O5_23
REMARK   10  A    between atoms: C17_31  and  C18_32
ROOT
HETATM    1  N1  UNL     1       4.782  16.889  84.246  1.00  0.00    -0.362 N
ATOM      2  H1  UNL     1       4.137  16.104  84.343  1.00  0.00     0.162 HD
HETATM    3  C6  UNL     1       4.244  18.019  84.249  1.00  0.00     0.020 C
HETATM    4  C7  UNL     1       4.927  19.332  84.124  1.00  0.00     0.088 C
HETATM    5  C8  UNL     1       4.345  20.034  82.926  1.00  0.00     0.141 C
HETATM    6  C9  UNL     1       2.839  20.257  83.113  1.00  0.00     0.158 C
HETATM    7  N2  UNL     1       2.184  18.980  83.392  1.00  0.00    -0.343 N
HETATM    8  C17 UNL     1       2.746  18.080  84.394  1.00  0.00     0.232 C
ENDROOT
BRANCH   1   9
HETATM    9  C5  UNL     1       6.141  16.535  84.129  1.00  0.00     0.291 C
BRANCH   9  10
HETATM   10  C4  UNL     1       6.920  16.787  85.373  1.00  0.00     0.208 C
HETATM   11  O2  UNL     1       7.975  17.376  85.222  1.00  0.00    -0.290 OA
BRANCH  10  12
HETATM   12  C2  UNL     1       6.517  16.389  86.715  1.00  0.00     0.115 C
HETATM   13  C1  UNL     1       7.745  15.859  87.440  1.00  0.00     0.054 C
HETATM   14  C3  UNL     1       5.971  17.515  87.554  1.00  0.00     0.054 C
BRANCH  12  15
HETATM   15  O1  UNL     1       5.530  15.411  86.638  1.00  0.00    -0.383 OA
ATOM     16  H1  UNL     1       4.704  15.788  86.358  1.00  0.00     0.211 HD
ENDBRANCH  12  15
ENDBRANCH  10  12
ENDBRANCH   9  10
BRANCH   9  17
HETATM   17  O3  UNL     1       6.272  15.165  83.817  1.00  0.00    -0.370 OA
ATOM     18  H3  UNL     1       6.326  15.091  82.872  1.00  0.00     0.212 HD
ENDBRANCH   9  17
ENDBRANCH   1   9
BRANCH   8  19
HETATM   19  C18 UNL     1       2.489  18.647  85.744  1.00  0.00     0.202 C
HETATM   20  O6  UNL     1       2.129  19.831  85.961  1.00  0.00    -0.646 OA
HETATM   21  O7  UNL     1       2.639  17.860  86.900  1.00  0.00    -0.646 OA
ENDBRANCH   8  19
BRANCH   5  22
HETATM   22  O4  UNL     1       4.489  19.190  81.827  1.00  0.00    -0.394 OA
ATOM     23  H4  UNL     1       5.335  19.367  81.433  1.00  0.00     0.210 HD
ENDBRANCH   5  22
BRANCH   7  24
HETATM   24  C10 UNL     1       1.017  18.667  82.651  1.00  0.00     0.134 C
HETATM   25  N3  UNL     1      -0.098  19.091  83.115  1.00  0.00    -0.252 N
ATOM     26  H3  UNL     1      -0.055  19.623  83.985  1.00  0.00     0.196 HD
BRANCH  25  27
HETATM   27  O5  UNL     1      -1.329  18.912  82.578  1.00  0.00    -0.288 OA
ATOM     28  H5  UNL     1      -2.166  19.066  82.999  1.00  0.00     0.244 HD
ENDBRANCH  25  27
BRANCH  24  29
HETATM   29  C11 UNL     1       1.073  17.890  81.428  1.00  0.00     0.009 A
HETATM   30  C12 UNL     1       0.633  16.578  81.326  1.00  0.00     0.015 A
HETATM   31  C13 UNL     1       0.687  15.866  80.146  1.00  0.00     0.001 A
HETATM   32  C14 UNL     1       1.189  16.432  78.997  1.00  0.00     0.000 A
HETATM   33  C15 UNL     1       1.633  17.732  79.066  1.00  0.00     0.001 A
HETATM   34  C16 UNL     1       1.580  18.446  80.245  1.00  0.00     0.015 A
ENDBRANCH  24  29
ENDBRANCH   7  24
TORSDOF 10
ENDMDL