MODEL 1
REMARK VINA RESULT: -8.899672730      0.000      0.000
REMARK  9 active torsions:
REMARK  status: ('A' for Active; 'I' for Inactive)
REMARK       I    between atoms: C1_4  and  N3_6
REMARK    1  A    between atoms: N3_6  and  N4_8
REMARK       I    between atoms: N4_8  and  C2_10
REMARK    2  A    between atoms: C2_10  and  C3_12
REMARK    3  A    between atoms: N5_14  and  C5_15
REMARK    4  A    between atoms: C5_15  and  N6_16
REMARK    5  A    between atoms: N6_16  and  N7_17
REMARK    6  A    between atoms: N6_16  and  C6_20
REMARK    7  A    between atoms: C9_23  and  C10_24
REMARK    8  A    between atoms: C17_31  and  N8_32
REMARK    9  A    between atoms: N8_32  and  O2_34
ROOT
HETATM    1  N6  UNL     1       5.618  15.999  85.752  1.00  0.00    -0.277 N
ENDROOT
BRANCH   1   2
HETATM    2  C5  UNL     1       5.604  16.891  84.613  1.00  0.00     0.298 C
BRANCH   2   3
HETATM    3  N5  UNL     1       6.921  16.955  84.009  1.00  0.00    -0.267 N
HETATM    4  C4  UNL     1       7.688  18.060  83.797  1.00  0.00     0.150 A
HETATM    5  C3  UNL     1       8.866  17.667  83.198  1.00  0.00     0.136 A
HETATM    6  N10 UNL     1       8.789  16.344  83.059  1.00  0.00    -0.280 N
HETATM    7  N9  UNL     1       7.614  15.938  83.553  1.00  0.00    -0.239 N
ATOM      8  H10 UNL     1       9.503  15.744  82.648  1.00  0.00     0.189 HD
ATOM      9  H9  UNL     1       7.299  14.969  83.573  1.00  0.00     0.208 HD
BRANCH   5  10
HETATM   10  C2  UNL     1       9.946  18.571  82.816  1.00  0.00     0.289 C
HETATM   11  N4  UNL     1      11.291  18.274  83.119  1.00  0.00    -0.262 N
ATOM     12  H4  UNL     1      11.528  17.414  83.615  1.00  0.00     0.190 HD
HETATM   13  O1  UNL     1       9.632  19.628  82.205  1.00  0.00    -0.264 OA
BRANCH  11  14
HETATM   14  N3  UNL     1      12.289  19.160  82.739  1.00  0.00    -0.271 N
HETATM   15  C1  UNL     1      13.395  18.705  82.005  1.00  0.00     0.200 C
HETATM   16  N1  UNL     1      13.331  17.599  81.345  1.00  0.00    -0.372 N
HETATM   17  N2  UNL     1      14.583  19.482  82.003  1.00  0.00    -0.062 NA
ATOM     18  H12 UNL     1      14.134  17.268  80.811  1.00  0.00     0.158 HD
ATOM     19  H11 UNL     1      12.477  17.042  81.347  1.00  0.00     0.158 HD
ATOM     20  H3  UNL     1      12.218  20.145  82.993  1.00  0.00     0.189 HD
ENDBRANCH  11  14
ENDBRANCH   5  10
ENDBRANCH   2   3
ENDBRANCH   1   2
BRANCH   1  21
HETATM   21  N7  UNL     1       4.836  14.838  85.681  1.00  0.00    -0.341 N
ATOM     22  H72 UNL     1       3.822  14.939  85.689  1.00  0.00     0.177 HD
ATOM     23  H71 UNL     1       5.321  13.943  85.625  1.00  0.00     0.177 HD
ENDBRANCH   1  21
BRANCH   1  24
HETATM   24  C6  UNL     1       6.366  16.227  86.918  1.00  0.00     0.080 A
HETATM   25  C7  UNL     1       7.706  15.922  87.009  1.00  0.00     0.034 A
HETATM   26  C8  UNL     1       8.442  16.146  88.151  1.00  0.00     0.014 A
HETATM   27  C9  UNL     1       7.851  16.693  89.267  1.00  0.00    -0.024 A
HETATM   28  C16 UNL     1       6.503  17.009  89.200  1.00  0.00     0.046 A
HETATM   29  C17 UNL     1       5.768  16.780  88.045  1.00  0.00     0.083 A
BRANCH  27  30
HETATM   30  C10 UNL     1       8.660  16.916  90.457  1.00  0.00    -0.026 A
HETATM   31  C11 UNL     1      10.037  17.051  90.411  1.00  0.00     0.012 A
HETATM   32  C12 UNL     1      10.732  17.257  91.567  1.00  0.00     0.001 A
HETATM   33  C13 UNL     1      10.107  17.337  92.790  1.00  0.00     0.000 A
HETATM   34  C14 UNL     1       8.751  17.206  92.854  1.00  0.00     0.001 A
HETATM   35  C15 UNL     1       8.046  16.996  91.681  1.00  0.00     0.012 A
ENDBRANCH  27  30
BRANCH  29  36
HETATM   36  N8  UNL     1       4.385  17.092  87.945  1.00  0.00    -0.267 N
ATOM     37  H8  UNL     1       3.785  16.913  87.140  1.00  0.00     0.194 HD
BRANCH  36  38
HETATM   38  O2  UNL     1       4.005  17.671  89.113  1.00  0.00    -0.289 OA
ATOM     39  H2  UNL     1       3.071  17.836  89.064  1.00  0.00     0.244 HD
ENDBRANCH  36  38
ENDBRANCH  29  36
ENDBRANCH   1  24
TORSDOF 9
ENDMDL