MODEL 1
REMARK VINA RESULT: -7.259659950      0.000      0.000
REMARK  9 active torsions:
REMARK  status: ('A' for Active; 'I' for Inactive)
REMARK    1  A    between atoms: S1_2  and  C2_5
REMARK    2  A    between atoms: C2_5  and  C3_6
REMARK    3  A    between atoms: C2_5  and  C9_26
REMARK    4  A    between atoms: C3_6  and  O3_7
REMARK    5  A    between atoms: C3_6  and  N1_9
REMARK    6  A    between atoms: N1_9  and  N2_10
REMARK       I    between atoms: N2_10  and  C4_12
REMARK       I    between atoms: C4_12  and  N3_14
REMARK    7  A    between atoms: N3_14  and  N4_16
REMARK    8  A    between atoms: C5_18  and  C6_19
REMARK    9  A    between atoms: C11_29  and  N7_30
ROOT
HETATM    1  C3  UNL     1       5.972  16.079  84.641  1.00  0.00     0.239 C
ENDROOT
BRANCH   1   2
HETATM    2  C2  UNL     1       5.520  16.990  85.846  1.00  0.00     0.249 C
BRANCH   2   3
HETATM    3  S1  UNL     1       3.781  16.979  85.930  1.00  0.00     0.159 S
HETATM    4  C1  UNL     1       3.056  17.676  84.448  1.00  0.00     0.162 C
HETATM    5  O1  UNL     1       3.281  17.880  87.066  1.00  0.00    -0.227 OA
HETATM    6  O2  UNL     1       3.206  15.633  86.227  1.00  0.00    -0.227 OA
ENDBRANCH   2   3
BRANCH   2   7
HETATM    7  C9  UNL     1       6.229  16.466  87.079  1.00  0.00     0.045 A
HETATM    8  C10 UNL     1       7.167  17.164  87.703  1.00  0.00     0.080 A
HETATM    9  S2  UNL     1       7.682  16.115  88.964  1.00  0.00    -0.064 SA
HETATM   10  C11 UNL     1       6.616  14.809  88.591  1.00  0.00     0.142 A
HETATM   11  N8  UNL     1       5.928  15.237  87.535  1.00  0.00    -0.338 N
ATOM     12  H8  UNL     1       5.210  14.663  87.093  1.00  0.00     0.168 HD
BRANCH  10  13
HETATM   13  N7  UNL     1       6.546  13.644  89.244  1.00  0.00    -0.380 N
ATOM     14  H72 UNL     1       7.167  12.835  89.207  1.00  0.00     0.158 HD
ATOM     15  H71 UNL     1       5.829  13.380  89.919  1.00  0.00     0.158 HD
ENDBRANCH  10  13
ENDBRANCH   2   7
ENDBRANCH   1   2
BRANCH   1  16
HETATM   16  O3  UNL     1       5.189  15.044  84.497  1.00  0.00    -0.336 OA
ATOM     17  H3  UNL     1       5.532  14.427  83.860  1.00  0.00     0.220 HD
ENDBRANCH   1  16
BRANCH   1  18
HETATM   18  N1  UNL     1       6.979  16.365  83.924  1.00  0.00    -0.299 NA
BRANCH  18  19
HETATM   19  N2  UNL     1       8.077  16.678  83.144  1.00  0.00    -0.181 N
HETATM   20  C4  UNL     1       9.202  17.396  83.592  1.00  0.00     0.363 C
HETATM   21  O4  UNL     1       9.289  17.838  84.752  1.00  0.00    -0.243 OA
HETATM   22  N3  UNL     1      10.272  17.606  82.674  1.00  0.00    -0.250 N
ATOM     23  H3  UNL     1      10.142  17.232  81.734  1.00  0.00     0.192 HD
ATOM     24  H2  UNL     1       8.072  16.365  82.173  1.00  0.00     0.207 HD
BRANCH  22  25
HETATM   25  N4  UNL     1      11.455  18.254  82.914  1.00  0.00    -0.306 N
HETATM   26  C5  UNL     1      12.421  18.283  82.102  1.00  0.00     0.138 C
ATOM     27  H4  UNL     1      11.562  18.743  83.802  1.00  0.00     0.186 HD
BRANCH  26  28
HETATM   28  C6  UNL     1      12.402  17.653  80.812  1.00  0.00     0.065 A
HETATM   29  C7  UNL     1      13.196  16.541  80.405  1.00  0.00     0.119 A
HETATM   30  N5  UNL     1      12.937  16.297  79.104  1.00  0.00    -0.360 N
HETATM   31  C8  UNL     1      12.039  17.183  78.684  1.00  0.00     0.180 A
ATOM     32  H5  UNL     1      13.358  15.558  78.540  1.00  0.00     0.166 HD
HETATM   33  N6  UNL     1      11.721  17.981  79.688  1.00  0.00    -0.350 N
ATOM     34  H6  UNL     1      11.050  18.746  79.624  1.00  0.00     0.166 HD
ENDBRANCH  26  28
ENDBRANCH  22  25
ENDBRANCH  18  19
ENDBRANCH   1  18
TORSDOF 9
ENDMDL