MODEL 5
REMARK VINA RESULT: -7.399786107      2.955      7.536
REMARK  4 active torsions:
REMARK  status: ('A' for Active; 'I' for Inactive)
REMARK    1  A    between atoms: C4_7  and  N3_8
REMARK    2  A    between atoms: C8_12  and  C9_13
REMARK    3  A    between atoms: C9_13  and  N4_14
REMARK    4  A    between atoms: C9_13  and  C10_18
ROOT
HETATM    1  N1  UNL     1      31.235 -15.177  -1.340  1.00  0.00    -0.191 NA
HETATM    2  C1  UNL     1      32.129 -14.457  -1.197  1.00  0.00     0.102 C
HETATM    3  C2  UNL     1      33.254 -13.564  -0.998  1.00  0.00     0.076 A
HETATM    4  C3  UNL     1      33.150 -12.212  -1.251  1.00  0.00     0.130 A
HETATM    5  N2  UNL     1      34.199 -11.394  -1.063  1.00  0.00    -0.200 N
ATOM      6  H2  UNL     1      34.089 -10.399  -1.260  1.00  0.00     0.183 HD
HETATM    7  C4  UNL     1      35.390 -11.841  -0.625  1.00  0.00     0.679 A
HETATM    8  N6  UNL     1      35.492 -13.170  -0.376  1.00  0.00    -0.200 N
ATOM      9  H6  UNL     1      36.385 -13.535  -0.043  1.00  0.00     0.183 HD
HETATM   10  C12 UNL     1      34.473 -14.029  -0.548  1.00  0.00     0.130 A
ENDROOT
BRANCH   7  11
HETATM   11  N3  UNL     1      36.499 -10.965  -0.428  1.00  0.00    -0.217 N
HETATM   12  C5  UNL     1      36.887  -9.999  -1.432  1.00  0.00     0.141 C
HETATM   13  C6  UNL     1      38.378 -10.157  -1.643  1.00  0.00     0.021 C
HETATM   14  C7  UNL     1      39.065  -9.729  -0.370  1.00  0.00     0.010 C
HETATM   15  C8  UNL     1      38.162  -9.772   0.835  1.00  0.00     0.043 C
HETATM   16  C11 UNL     1      37.271 -11.021   0.793  1.00  0.00     0.148 C
BRANCH  15  17
HETATM   17  C9  UNL     1      39.031  -9.938   2.077  1.00  0.00     0.277 C
BRANCH  17  18
HETATM   18  N4  UNL     1      40.010 -10.951   1.784  1.00  0.00    -0.066 N
ATOM     19  H43 UNL     1      39.782 -11.856   2.196  1.00  0.00     0.275 HD
ATOM     20  H42 UNL     1      40.001 -11.243   0.807  1.00  0.00     0.275 HD
ATOM     21  H41 UNL     1      40.917 -10.594   2.085  1.00  0.00     0.275 HD
ENDBRANCH  17  18
BRANCH  17  22
HETATM   22  C10 UNL     1      39.714  -8.669   2.429  1.00  0.00     0.262 C
HETATM   23  N5  UNL     1      41.043  -8.387   2.020  1.00  0.00    -0.060 NA
HETATM   24  O1  UNL     1      39.116  -7.798   3.112  1.00  0.00    -0.275 OA
ENDBRANCH  17  22
ENDBRANCH  15  17
ENDBRANCH   7  11
TORSDOF 4
ENDMDL