MODEL 3
REMARK VINA RESULT: -6.631509161      3.055      4.138
REMARK  3 active torsions:
REMARK  status: ('A' for Active; 'I' for Inactive)
REMARK       I    between atoms: C2_4  and  N2_5
REMARK       I    between atoms: C2_4  and  N5_16
REMARK    1  A    between atoms: N2_5  and  N3_7
REMARK    2  A    between atoms: C3_9  and  C5_12
REMARK    3  A    between atoms: C5_12  and  C7_14
ROOT
HETATM    1  N3  UNL     1      36.524  -9.892   0.122  1.00  0.00    -0.280 N
ATOM      2  H3  UNL     1      36.137  -9.792   1.061  1.00  0.00     0.188 HD
HETATM    3  C3  UNL     1      37.804  -9.858  -0.029  1.00  0.00     0.110 C
HETATM    4  C4  UNL     1      38.342  -9.999  -1.349  1.00  0.00     0.115 C
HETATM    5  N4  UNL     1      38.771 -10.114  -2.425  1.00  0.00    -0.190 NA
ENDROOT
BRANCH   3   6
HETATM    6  C5  UNL     1      38.732  -9.681   1.112  1.00  0.00     0.054 C
HETATM    7  C6  UNL     1      38.463  -8.357   1.837  1.00  0.00     0.018 C
BRANCH   6   8
HETATM    8  C7  UNL     1      38.520 -10.770   2.157  1.00  0.00     0.097 C
HETATM    9  S1  UNL     1      37.716  -9.960   3.581  1.00  0.00    -0.097 SA
ENDBRANCH   6   8
ENDBRANCH   3   6
BRANCH   1  10
HETATM   10  N2  UNL     1      35.650 -10.059  -0.954  1.00  0.00    -0.132 N
HETATM   11  C2  UNL     1      34.882 -11.266  -1.041  1.00  0.00     0.690 C
HETATM   12  N1  UNL     1      35.380 -12.325  -0.535  1.00  0.00    -0.229 N
HETATM   13  N5  UNL     1      33.625 -11.253  -1.669  1.00  0.00    -0.213 N
HETATM   14  C1  UNL     1      34.628 -13.562  -0.608  1.00  0.00     0.165 C
ATOM     15  H1  UNL     1      36.296 -12.301  -0.087  1.00  0.00     0.177 HD
HETATM   16  C8  UNL     1      32.520 -10.465  -1.127  1.00  0.00     0.167 C
HETATM   17  C11 UNL     1      33.332 -12.006  -2.881  1.00  0.00     0.167 C
HETATM   18  C9  UNL     1      31.695  -9.982  -2.289  1.00  0.00     0.188 C
HETATM   19  O1  UNL     1      32.465  -9.828  -3.447  1.00  0.00    -0.388 OA
HETATM   20  C10 UNL     1      32.741 -11.101  -3.961  1.00  0.00     0.188 C
ATOM     21  H2  UNL     1      35.559  -9.334  -1.666  1.00  0.00     0.205 HD
ENDBRANCH   1  10
TORSDOF 3
ENDMDL