MODEL 4
REMARK VINA RESULT: -7.047658445      1.185      1.384
REMARK  3 active torsions:
REMARK  status: ('A' for Active; 'I' for Inactive)
REMARK    1  A    between atoms: C3_5  and  N2_6
REMARK    2  A    between atoms: C9_13  and  N3_14
REMARK    3  A    between atoms: N3_14  and  N4_16
ROOT
HETATM    1  C1  UNL     1      37.223 -10.034  -0.896  1.00  0.00     0.118 A
HETATM    2  N1  UNL     1      36.097  -9.950  -1.637  1.00  0.00    -0.371 N
ATOM      3  H1  UNL     1      35.962  -9.142  -2.243  1.00  0.00     0.164 HD
HETATM    4  C2  UNL     1      35.136 -10.917  -1.596  1.00  0.00     0.117 A
HETATM    5  C3  UNL     1      35.294 -12.016  -0.787  1.00  0.00     0.048 A
HETATM    6  C8  UNL     1      36.450 -12.080  -0.039  1.00  0.00     0.063 A
HETATM    7  C9  UNL     1      37.434 -11.114  -0.065  1.00  0.00     0.066 A
ENDROOT
BRANCH   7   8
HETATM    8  N3  UNL     1      38.608 -11.234   0.729  1.00  0.00    -0.294 N
ATOM      9  H3  UNL     1      39.162 -12.084   0.632  1.00  0.00     0.187 HD
BRANCH   8  10
HETATM   10  N4  UNL     1      39.044 -10.288   1.613  1.00  0.00    -0.283 N
HETATM   11  C10 UNL     1      40.022  -9.394   1.159  1.00  0.00     0.115 C
HETATM   12  C11 UNL     1      40.162  -8.135   1.924  1.00  0.00     0.279 C
HETATM   13  N5  UNL     1      38.947  -7.694   2.583  1.00  0.00    -0.066 N
HETATM   14  C12 UNL     1      38.585  -8.797   3.487  1.00  0.00     0.279 C
ATOM     15  H52 UNL     1      39.033  -6.789   3.047  1.00  0.00     0.277 HD
ATOM     16  H51 UNL     1      38.202  -7.424   1.939  1.00  0.00     0.277 HD
HETATM   17  C13 UNL     1      38.161  -9.938   2.644  1.00  0.00     0.115 C
ENDBRANCH   8  10
ENDBRANCH   7   8
BRANCH   5  18
HETATM   18  N2  UNL     1      34.302 -13.043  -0.730  1.00  0.00    -0.376 N
HETATM   19  C4  UNL     1      34.461 -14.285  -0.038  1.00  0.00     0.149 C
HETATM   20  C5  UNL     1      33.083 -14.633   0.545  1.00  0.00     0.187 C
HETATM   21  O1  UNL     1      32.153 -14.850  -0.450  1.00  0.00    -0.388 OA
HETATM   22  C6  UNL     1      32.398 -14.178  -1.621  1.00  0.00     0.187 C
HETATM   23  C7  UNL     1      33.049 -12.817  -1.423  1.00  0.00     0.149 C
ENDBRANCH   5  18
TORSDOF 3
ENDMDL