MODEL 3
REMARK VINA RESULT: -6.931292485      2.482      3.090
REMARK  6 active torsions:
REMARK  status: ('A' for Active; 'I' for Inactive)
REMARK    1  A    between atoms: N2_3  and  C2_5
REMARK    2  A    between atoms: C2_5  and  N3_7
REMARK    3  A    between atoms: N3_7  and  N4_9
REMARK    4  A    between atoms: C3_11  and  C4_12
REMARK    5  A    between atoms: C7_15  and  O1_16
REMARK    6  A    between atoms: C8_18  and  N5_19
ROOT
HETATM    1  N1  UNL     1      38.563 -11.831   2.415  1.00  0.00    -0.172 NA
HETATM    2  C1  UNL     1      37.910 -11.126   1.756  1.00  0.00     0.184 C
HETATM    3  N2  UNL     1      37.109 -10.290   0.979  1.00  0.00    -0.269 N
ATOM      4  H2  UNL     1      36.912  -9.346   1.312  1.00  0.00     0.180 HD
ENDROOT
BRANCH   3   5
HETATM    5  C2  UNL     1      36.559 -10.709  -0.263  1.00  0.00     0.199 C
HETATM    6  S1  UNL     1      37.312 -11.935  -1.062  1.00  0.00    -0.038 SA
BRANCH   5   7
HETATM    7  N3  UNL     1      35.399 -10.094  -0.801  1.00  0.00    -0.276 N
ATOM      8  H3  UNL     1      35.300  -9.080  -0.788  1.00  0.00     0.189 HD
BRANCH   7   9
HETATM    9  N4  UNL     1      34.407 -10.887  -1.341  1.00  0.00    -0.309 N
HETATM   10  C3  UNL     1      33.642 -10.555  -2.305  1.00  0.00     0.118 C
ATOM     11  H4  UNL     1      34.275 -11.814  -0.937  1.00  0.00     0.186 HD
BRANCH  10  12
HETATM   12  C4  UNL     1      32.629 -11.496  -2.780  1.00  0.00    -0.017 A
HETATM   13  C5  UNL     1      31.708 -11.106  -3.730  1.00  0.00     0.016 A
HETATM   14  C6  UNL     1      30.743 -11.974  -4.193  1.00  0.00     0.040 A
HETATM   15  C7  UNL     1      30.672 -13.265  -3.718  1.00  0.00     0.098 A
HETATM   16  C8  UNL     1      31.594 -13.637  -2.775  1.00  0.00     0.136 A
HETATM   17  C9  UNL     1      32.553 -12.788  -2.308  1.00  0.00     0.052 A
BRANCH  15  18
HETATM   18  O1  UNL     1      29.682 -14.142  -4.199  1.00  0.00    -0.358 OA
ATOM     19  H1  UNL     1      28.780 -14.046  -3.916  1.00  0.00     0.217 HD
ENDBRANCH  15  18
BRANCH  16  20
HETATM   20  N5  UNL     1      31.498 -14.988  -2.295  1.00  0.00    -0.113 N
HETATM   21  O2  UNL     1      31.171 -15.220  -1.100  1.00  0.00    -0.532 OA
HETATM   22  O3  UNL     1      31.757 -16.043  -3.117  1.00  0.00    -0.532 OA
ENDBRANCH  16  20
ENDBRANCH  10  12
ENDBRANCH   7   9
ENDBRANCH   5   7
ENDBRANCH   3   5
TORSDOF 6
ENDMDL