MODEL 4
REMARK VINA RESULT: -6.456494953      4.007      5.574
REMARK  6 active torsions:
REMARK  status: ('A' for Active; 'I' for Inactive)
REMARK    1  A    between atoms: O1_2  and  C2_3
REMARK    2  A    between atoms: C6_7  and  C7_8
REMARK    3  A    between atoms: C7_8  and  O2_9
REMARK    4  A    between atoms: C7_8  and  O3_11
REMARK    5  A    between atoms: C11_18  and  O4_19
REMARK    6  A    between atoms: O4_19  and  C12_20
ROOT
HETATM    1  C2  UNL     1      32.730 -13.780  -1.048  1.00  0.00     0.104 A
HETATM    2  C3  UNL     1      32.859 -12.403  -0.842  1.00  0.00     0.040 A
HETATM    3  C4  UNL     1      32.336 -11.501  -1.742  1.00  0.00     0.017 A
HETATM    4  C5  UNL     1      31.673 -11.949  -2.864  1.00  0.00     0.005 A
HETATM    5  C6  UNL     1      31.140 -11.074  -3.769  1.00  0.00     0.010 A
HETATM    6  C8  UNL     1      30.481 -11.628  -4.872  1.00  0.00     0.030 A
HETATM    7  C9  UNL     1      30.384 -12.989  -5.024  1.00  0.00     0.089 A
HETATM    8  N1  UNL     1      30.906 -13.849  -4.138  1.00  0.00    -0.363 N
ATOM      9  H1  UNL     1      30.824 -14.858  -4.266  1.00  0.00     0.165 HD
HETATM   10  C10 UNL     1      31.537 -13.331  -3.079  1.00  0.00     0.080 A
HETATM   11  C11 UNL     1      32.073 -14.239  -2.159  1.00  0.00     0.140 A
ENDROOT
BRANCH   5  12
HETATM   12  C7  UNL     1      31.261  -9.614  -3.617  1.00  0.00     0.289 C
BRANCH  12  13
HETATM   13  O2  UNL     1      31.072  -9.081  -4.929  1.00  0.00    -0.367 OA
ATOM     14  H2  UNL     1      30.170  -9.280  -5.154  1.00  0.00     0.213 HD
ENDBRANCH  12  13
BRANCH  12  15
HETATM   15  O3  UNL     1      30.261  -9.080  -2.825  1.00  0.00    -0.367 OA
ATOM     16  H3  UNL     1      30.605  -8.582  -2.092  1.00  0.00     0.213 HD
ENDBRANCH  12  15
ENDBRANCH   5  12
BRANCH  11  17
HETATM   17  O4  UNL     1      31.963 -15.607  -2.332  1.00  0.00    -0.274 OA
BRANCH  17  18
HETATM   18  C12 UNL     1      32.879 -16.400  -2.966  1.00  0.00     0.260 C
HETATM   19  C13 UNL     1      34.138 -15.786  -3.486  1.00  0.00     0.126 C
HETATM   20  O5  UNL     1      32.623 -17.621  -3.086  1.00  0.00    -0.265 OA
ENDBRANCH  17  18
ENDBRANCH  11  17
BRANCH   1  21
HETATM   21  O1  UNL     1      33.240 -14.716  -0.172  1.00  0.00    -0.353 OA
HETATM   22  C1  UNL     1      34.596 -14.859   0.150  1.00  0.00     0.210 C
ENDBRANCH   1  21
TORSDOF 6
ENDMDL