MODEL 1
REMARK VINA RESULT: -7.952721442      0.000      0.000
REMARK  4 active torsions:
REMARK  status: ('A' for Active; 'I' for Inactive)
REMARK    1  A    between atoms: C1_2  and  C2_4
REMARK    2  A    between atoms: C2_4  and  N2_5
REMARK    3  A    between atoms: C2_4  and  C3_9
REMARK    4  A    between atoms: C6_12  and  C7_13
ROOT
HETATM    1  C3  UNL     1      37.917 -10.906  -0.629  1.00  0.00    -0.019 A
HETATM    2  C4  UNL     1      36.729 -10.425  -0.159  1.00  0.00     0.011 A
HETATM    3  C5  UNL     1      35.505 -10.671  -0.793  1.00  0.00     0.016 A
HETATM    4  C6  UNL     1      35.439 -11.414  -1.931  1.00  0.00     0.011 A
HETATM    5  C12 UNL     1      36.655 -11.912  -2.423  1.00  0.00     0.016 A
HETATM    6  C13 UNL     1      37.850 -11.671  -1.800  1.00  0.00     0.011 A
ENDROOT
BRANCH   4   7
HETATM    7  C7  UNL     1      34.199 -11.712  -2.650  1.00  0.00     0.154 A
HETATM    8  N3  UNL     1      33.916 -12.940  -3.187  1.00  0.00    -0.282 N
HETATM    9  N4  UNL     1      32.740 -12.900  -3.765  1.00  0.00    -0.282 N
ATOM     10  H3  UNL     1      34.524 -13.757  -3.144  1.00  0.00     0.188 HD
HETATM   11  C8  UNL     1      32.210 -11.674  -3.638  1.00  0.00     0.143 A
ATOM     12  H4  UNL     1      32.294 -13.684  -4.241  1.00  0.00     0.188 HD
HETATM   13  C9  UNL     1      31.009 -11.116  -4.063  1.00  0.00     0.053 A
HETATM   14  N6  UNL     1      33.138 -10.954  -2.941  1.00  0.00    -0.221 N
HETATM   15  C10 UNL     1      30.789  -9.797  -3.751  1.00  0.00     0.022 A
HETATM   16  C11 UNL     1      31.758  -9.118  -3.046  1.00  0.00     0.108 A
HETATM   17  N5  UNL     1      32.899  -9.682  -2.652  1.00  0.00    -0.302 N
ATOM     18  H5  UNL     1      33.587  -9.137  -2.132  1.00  0.00     0.186 HD
ENDBRANCH   4   7
BRANCH   1  19
HETATM   19  C2  UNL     1      39.232 -10.665   0.022  1.00  0.00     0.304 C
BRANCH  19  20
HETATM   20  C1  UNL     1      39.304 -11.117   1.422  1.00  0.00     0.266 C
HETATM   21  N1  UNL     1      40.192 -10.400   2.306  1.00  0.00    -0.060 NA
HETATM   22  O1  UNL     1      38.640 -12.087   1.889  1.00  0.00    -0.274 OA
ENDBRANCH  19  20
BRANCH  19  23
HETATM   23  N2  UNL     1      39.444  -9.220  -0.032  1.00  0.00    -0.063 N
ATOM     24  H23 UNL     1      39.062  -8.743   0.784  1.00  0.00     0.275 HD
ATOM     25  H22 UNL     1      40.424  -8.969   0.099  1.00  0.00     0.275 HD
ATOM     26  H21 UNL     1      39.065  -8.855  -0.905  1.00  0.00     0.275 HD
ENDBRANCH  19  23
ENDBRANCH   1  19
TORSDOF 4
ENDMDL