MODEL 2
REMARK VINA RESULT: -6.650050571      4.984      7.593
REMARK  5 active torsions:
REMARK  status: ('A' for Active; 'I' for Inactive)
REMARK    1  A    between atoms: N1_2  and  S1_4
REMARK    2  A    between atoms: S1_4  and  N2_7
REMARK    3  A    between atoms: N2_7  and  C2_9
REMARK    4  A    between atoms: C2_9  and  C5_16
REMARK       I    between atoms: N3_10  and  C3_12
REMARK    5  A    between atoms: C3_12  and  O4_14
ROOT
HETATM    1  C2  UNL     1      33.852 -13.579  -1.841  1.00  0.00     0.132 C
HETATM    2  N3  UNL     1      34.051 -14.724  -1.335  1.00  0.00    -0.287 N
ATOM      3  H3  UNL     1      33.328 -15.418  -1.524  1.00  0.00     0.172 HD
HETATM    4  C3  UNL     1      35.118 -15.171  -0.555  1.00  0.00     0.365 C
HETATM    5  O3  UNL     1      35.805 -16.209  -0.840  1.00  0.00    -0.238 OA
ENDROOT
BRANCH   1   6
HETATM    6  N2  UNL     1      32.641 -13.415  -2.609  1.00  0.00    -0.252 N
ATOM      7  H2  UNL     1      32.511 -12.576  -3.174  1.00  0.00     0.182 HD
BRANCH   6   8
HETATM    8  S1  UNL     1      31.409 -14.625  -2.582  1.00  0.00     0.320 S
HETATM    9  O1  UNL     1      31.203 -15.053  -1.174  1.00  0.00    -0.182 OA
HETATM   10  O2  UNL     1      31.863 -15.834  -3.360  1.00  0.00    -0.182 OA
BRANCH   8  11
HETATM   11  N1  UNL     1      30.000 -13.960  -3.307  1.00  0.00    -0.307 N
HETATM   12  C1  UNL     1      30.274 -13.180  -4.476  1.00  0.00     0.161 C
ATOM     13  H1  UNL     1      29.060 -14.107  -2.940  1.00  0.00     0.173 HD
ENDBRANCH   8  11
ENDBRANCH   6   8
ENDBRANCH   1   6
BRANCH   1  14
HETATM   14  C5  UNL     1      34.704 -12.412  -1.746  1.00  0.00     0.024 A
HETATM   15  C6  UNL     1      35.821 -12.296  -2.587  1.00  0.00     0.018 A
HETATM   16  C7  UNL     1      36.656 -11.203  -2.516  1.00  0.00     0.018 A
HETATM   17  C8  UNL     1      36.426 -10.183  -1.618  1.00  0.00     0.087 A
HETATM   18  N4  UNL     1      35.356 -10.295  -0.814  1.00  0.00    -0.374 N
HETATM   19  C9  UNL     1      34.516 -11.371  -0.868  1.00  0.00     0.102 A
ATOM     20  H4  UNL     1      35.163  -9.553  -0.142  1.00  0.00     0.164 HD
ENDBRANCH   1  14
BRANCH   4  21
HETATM   21  O4  UNL     1      35.491 -14.487   0.597  1.00  0.00    -0.309 OA
HETATM   22  C4  UNL     1      36.776 -13.970   0.823  1.00  0.00     0.215 C
ENDBRANCH   4  21
TORSDOF 5
ENDMDL