MODEL 4
REMARK VINA RESULT: -6.172414416      1.782      2.913
REMARK  6 active torsions:
REMARK  status: ('A' for Active; 'I' for Inactive)
REMARK    1  A    between atoms: C5_7  and  S1_8
REMARK    2  A    between atoms: S1_8  and  C6_10
REMARK    3  A    between atoms: C6_10  and  O2_11
REMARK    4  A    between atoms: C6_10  and  C7_13
REMARK    5  A    between atoms: C7_13  and  N2_15
REMARK    6  A    between atoms: C7_13  and  O3_19
ROOT
HETATM    1  C1  UNL     1      35.345 -14.403  -0.787  1.00  0.00     0.089 C
HETATM    2  C2  UNL     1      36.352 -13.387  -0.334  1.00  0.00     0.078 A
HETATM    3  N1  UNL     1      36.603 -13.223   0.955  1.00  0.00    -0.349 N
ATOM      4  H1  UNL     1      36.096 -13.801   1.625  1.00  0.00     0.167 HD
HETATM    5  C3  UNL     1      37.500 -12.323   1.429  1.00  0.00     0.029 A
HETATM    6  C4  UNL     1      37.718 -12.207   2.895  1.00  0.00     0.070 C
HETATM    7  C5  UNL     1      38.195 -11.530   0.525  1.00  0.00     0.093 A
HETATM    8  C9  UNL     1      37.911 -11.724  -0.805  1.00  0.00     0.136 A
HETATM    9  C10 UNL     1      38.572 -10.951  -1.813  1.00  0.00     0.119 C
HETATM   10  N3  UNL     1      39.083 -10.321  -2.618  1.00  0.00    -0.190 NA
HETATM   11  N4  UNL     1      37.001 -12.641  -1.228  1.00  0.00    -0.336 N
ATOM     12  H4  UNL     1      36.815 -12.758  -2.224  1.00  0.00     0.168 HD
ENDROOT
BRANCH   7  13
HETATM   13  S1  UNL     1      39.321 -10.393   1.093  1.00  0.00     0.089 S
HETATM   14  O1  UNL     1      40.367 -10.845   2.258  1.00  0.00    -0.250 OA
BRANCH  13  15
HETATM   15  C6  UNL     1      38.901  -8.722   1.090  1.00  0.00     0.278 C
BRANCH  15  16
HETATM   16  O2  UNL     1      37.676  -8.588   1.791  1.00  0.00    -0.378 OA
ATOM     17  H2  UNL     1      37.600  -7.681   2.064  1.00  0.00     0.211 HD
ENDBRANCH  15  16
BRANCH  15  18
HETATM   18  C7  UNL     1      39.938  -7.825   1.730  1.00  0.00     0.256 C
HETATM   19  C8  UNL     1      40.128  -6.643   0.769  1.00  0.00     0.082 C
BRANCH  18  20
HETATM   20  N2  UNL     1      39.536  -7.295   2.994  1.00  0.00    -0.044 N
ATOM     21  H23 UNL     1      38.977  -6.450   2.869  1.00  0.00     0.278 HD
ATOM     22  H22 UNL     1      38.839  -7.897   3.432  1.00  0.00     0.278 HD
ATOM     23  H21 UNL     1      40.313  -7.121   3.632  1.00  0.00     0.278 HD
ENDBRANCH  18  20
BRANCH  18  24
HETATM   24  O3  UNL     1      41.157  -8.483   1.782  1.00  0.00    -0.363 OA
ATOM     25  H3  UNL     1      41.415  -8.750   0.908  1.00  0.00     0.212 HD
ENDBRANCH  18  24
ENDBRANCH  15  18
ENDBRANCH  13  15
ENDBRANCH   7  13
TORSDOF 6
ENDMDL