MODEL 5
REMARK VINA RESULT: -5.770051256      1.755      3.783
REMARK  4 active torsions:
REMARK  status: ('A' for Active; 'I' for Inactive)
REMARK    1  A    between atoms: C2_2  and  O2_4
REMARK    2  A    between atoms: O2_4  and  C3_5
REMARK    3  A    between atoms: C3_5  and  C4_6
REMARK    4  A    between atoms: C7_15  and  C9_18
ROOT
HETATM    1  C3  UNL     1      32.816 -12.583  -1.755  1.00  0.00     0.252 C
HETATM    2  N1  UNL     1      33.357 -13.439  -0.718  1.00  0.00    -0.326 N
ATOM      3  H1  UNL     1      32.845 -14.043  -0.076  1.00  0.00     0.165 HD
HETATM    4  C6  UNL     1      34.765 -13.246  -0.801  1.00  0.00     0.172 C
HETATM    5  S1  UNL     1      35.843 -13.966   0.167  1.00  0.00    -0.041 SA
HETATM    6  N2  UNL     1      35.045 -12.319  -1.872  1.00  0.00    -0.335 N
ATOM      7  H2  UNL     1      35.833 -11.678  -1.972  1.00  0.00     0.164 HD
HETATM    8  C7  UNL     1      33.882 -12.536  -2.801  1.00  0.00     0.240 C
HETATM    9  C8  UNL     1      34.117 -13.675  -3.604  1.00  0.00     0.105 C
HETATM   10  N3  UNL     1      34.355 -14.589  -4.278  1.00  0.00    -0.194 NA
ENDROOT
BRANCH   8  11
HETATM   11  C9  UNL     1      33.821 -11.336  -3.693  1.00  0.00     0.171 C
HETATM   12  C10 UNL     1      32.804 -11.287  -4.760  1.00  0.00     0.095 C
HETATM   13  O4  UNL     1      34.583 -10.396  -3.573  1.00  0.00    -0.294 OA
ENDBRANCH   8  11
BRANCH   1  14
HETATM   14  O2  UNL     1      31.539 -12.893  -2.061  1.00  0.00    -0.278 OA
BRANCH  14  15
HETATM   15  C2  UNL     1      30.980 -14.082  -2.405  1.00  0.00     0.257 C
HETATM   16  C1  UNL     1      30.009 -14.169  -3.564  1.00  0.00     0.126 C
HETATM   17  O1  UNL     1      31.204 -15.162  -1.821  1.00  0.00    -0.266 OA
ENDBRANCH  14  15
ENDBRANCH   1  14
BRANCH   1  18
HETATM   18  C4  UNL     1      32.863 -11.161  -1.172  1.00  0.00     0.182 C
HETATM   19  C5  UNL     1      31.871 -10.126  -1.525  1.00  0.00     0.096 C
HETATM   20  O3  UNL     1      33.749 -10.918  -0.404  1.00  0.00    -0.293 OA
ENDBRANCH   1  18
TORSDOF 4
ENDMDL