MODEL 3
REMARK VINA RESULT: -6.654243720      1.183      1.315
REMARK  6 active torsions:
REMARK  status: ('A' for Active; 'I' for Inactive)
REMARK    1  A    between atoms: O1_2  and  C2_3
REMARK    2  A    between atoms: C2_3  and  C3_5
REMARK    3  A    between atoms: N1_6  and  N2_8
REMARK    4  A    between atoms: N2_8  and  C4_10
REMARK    5  A    between atoms: C4_10  and  N3_12
REMARK       I    between atoms: N3_12  and  C5_14
REMARK    6  A    between atoms: C5_14  and  C6_16
ROOT
HETATM    1  C4  UNL     1      37.198  -9.984  -0.241  1.00  0.00     0.193 C
HETATM    2  S1  UNL     1      38.463  -9.614  -1.196  1.00  0.00    -0.039 SA
ENDROOT
BRANCH   1   3
HETATM    3  N2  UNL     1      37.425 -10.206   1.130  1.00  0.00    -0.276 N
ATOM      4  H2  UNL     1      37.587 -11.152   1.474  1.00  0.00     0.189 HD
BRANCH   3   5
HETATM    5  N1  UNL     1      37.429  -9.134   2.015  1.00  0.00    -0.304 N
HETATM    6  C3  UNL     1      38.520  -8.766   2.565  1.00  0.00     0.189 C
ATOM      7  H1  UNL     1      36.559  -8.643   2.225  1.00  0.00     0.186 HD
BRANCH   6   8
HETATM    8  C2  UNL     1      39.776  -9.444   2.287  1.00  0.00     0.299 C
HETATM    9  O2  UNL     1      39.957 -10.654   2.562  1.00  0.00    -0.259 OA
BRANCH   8  10
HETATM   10  O1  UNL     1      40.845  -8.774   1.700  1.00  0.00    -0.322 OA
HETATM   11  C1  UNL     1      40.822  -7.364   1.606  1.00  0.00     0.213 C
ENDBRANCH   8  10
ENDBRANCH   6   8
ENDBRANCH   3   5
ENDBRANCH   1   3
BRANCH   1  12
HETATM   12  N3  UNL     1      35.868 -10.089  -0.745  1.00  0.00    -0.298 N
HETATM   13  C5  UNL     1      35.178 -11.312  -0.839  1.00  0.00     0.258 C
HETATM   14  O3  UNL     1      35.806 -12.341  -0.447  1.00  0.00    -0.267 OA
ATOM     15  H3  UNL     1      35.395  -9.239  -1.051  1.00  0.00     0.171 HD
BRANCH  13  16
HETATM   16  C6  UNL     1      33.823 -11.429  -1.350  1.00  0.00     0.035 A
HETATM   17  C7  UNL     1      32.994 -10.359  -1.531  1.00  0.00     0.034 A
HETATM   18  C8  UNL     1      31.690 -10.516  -2.029  1.00  0.00     0.088 A
HETATM   19  N4  UNL     1      31.247 -11.738  -2.333  1.00  0.00    -0.375 N
HETATM   20  C9  UNL     1      32.017 -12.835  -2.177  1.00  0.00     0.088 A
ATOM     21  H4  UNL     1      30.299 -11.846  -2.694  1.00  0.00     0.164 HD
HETATM   22  C10 UNL     1      33.287 -12.678  -1.692  1.00  0.00     0.034 A
ENDBRANCH  13  16
ENDBRANCH   1  12
TORSDOF 6
ENDMDL