MODEL 1
REMARK VINA RESULT: -6.851867806      0.000      0.000
REMARK  11 active torsions:
REMARK  status: ('A' for Active; 'I' for Inactive)
REMARK    1  A    between atoms: O1_2  and  C2_3
REMARK    2  A    between atoms: C2_3  and  O2_4
REMARK    3  A    between atoms: C2_3  and  C3_6
REMARK    4  A    between atoms: C3_6  and  O3_7
REMARK    5  A    between atoms: C3_6  and  C4_9
REMARK    6  A    between atoms: C4_9  and  O4_10
REMARK    7  A    between atoms: C4_9  and  C5_12
REMARK    8  A    between atoms: C6_13  and  O5_14
REMARK    9  A    between atoms: C7_16  and  C8_17
REMARK   10  A    between atoms: C10_21  and  N2_22
REMARK   11  A    between atoms: C13_34  and  N7_35
REMARK       I    between atoms: N7_35  and  C14_37
ROOT
HETATM    1  C5  UNL     1      -1.481  42.732  29.136  1.00  0.00     0.075 A
HETATM    2  C6  UNL     1      -2.292  41.645  29.460  1.00  0.00     0.098 A
HETATM    3  C7  UNL     1      -2.870  40.920  28.443  1.00  0.00     0.088 A
HETATM    4  C13 UNL     1      -2.654  41.256  27.093  1.00  0.00     0.130 A
HETATM    5  N8  UNL     1      -1.879  42.294  26.845  1.00  0.00    -0.308 N
ATOM      6  H8  UNL     1      -1.707  42.558  25.875  1.00  0.00     0.170 HD
HETATM    7  C15 UNL     1      -1.303  43.022  27.830  1.00  0.00     0.258 A
HETATM    8  O9  UNL     1      -0.577  44.004  27.431  1.00  0.00    -0.267 OA
ENDROOT
BRANCH   3   9
HETATM    9  C8  UNL     1      -3.715  39.778  28.791  1.00  0.00     0.140 A
HETATM   10  N1  UNL     1      -3.267  38.531  29.051  1.00  0.00    -0.321 N
HETATM   11  C9  UNL     1      -4.325  37.722  29.330  1.00  0.00     0.191 A
ATOM     12  H1  UNL     1      -2.289  38.240  29.040  1.00  0.00     0.169 HD
HETATM   13  C10 UNL     1      -4.465  36.401  29.654  1.00  0.00     0.153 A
HETATM   14  N5  UNL     1      -5.408  38.479  29.239  1.00  0.00    -0.170 N
HETATM   15  N3  UNL     1      -5.700  35.897  29.874  1.00  0.00    -0.286 N
HETATM   16  C11 UNL     1      -5.837  34.491  30.219  1.00  0.00     0.163 C
HETATM   17  C12 UNL     1      -6.768  36.701  29.771  1.00  0.00     0.344 A
HETATM   18  O6  UNL     1      -7.909  36.199  29.984  1.00  0.00    -0.245 OA
HETATM   19  N4  UNL     1      -6.629  37.982  29.456  1.00  0.00    -0.228 N
ATOM     20  H4  UNL     1      -7.449  38.584  29.381  1.00  0.00     0.194 HD
HETATM   21  N6  UNL     1      -5.038  39.729  28.912  1.00  0.00    -0.261 N
ATOM     22  H6  UNL     1      -5.673  40.516  28.777  1.00  0.00     0.191 HD
BRANCH  13  23
HETATM   23  N2  UNL     1      -3.415  35.661  29.743  1.00  0.00    -0.382 N
ATOM     24  H22 UNL     1      -3.360  34.761  29.266  1.00  0.00     0.157 HD
ATOM     25  H21 UNL     1      -2.624  35.985  30.299  1.00  0.00     0.157 HD
ENDBRANCH  13  23
ENDBRANCH   3   9
BRANCH   2  26
HETATM   26  O5  UNL     1      -2.542  41.263  30.786  1.00  0.00    -0.359 OA
ATOM     27  H5  UNL     1      -2.295  40.411  31.126  1.00  0.00     0.217 HD
ENDBRANCH   2  26
BRANCH   4  28
HETATM   28  N7  UNL     1      -3.300  40.426  26.157  1.00  0.00    -0.286 N
HETATM   29  C14 UNL     1      -4.122  40.880  25.120  1.00  0.00     0.289 C
HETATM   30  O7  UNL     1      -4.441  42.048  24.825  1.00  0.00    -0.629 OA
HETATM   31  O8  UNL     1      -4.692  39.898  24.258  1.00  0.00    -0.629 OA
ATOM     32  H7  UNL     1      -3.158  39.420  26.242  1.00  0.00     0.173 HD
ENDBRANCH   4  28
BRANCH   1  33
HETATM   33  C4  UNL     1      -0.898  43.493  30.253  1.00  0.00     0.193 C
BRANCH  33  34
HETATM   34  C3  UNL     1      -1.819  44.238  31.144  1.00  0.00     0.206 C
BRANCH  34  35
HETATM   35  C2  UNL     1      -1.158  45.613  31.382  1.00  0.00     0.287 C
BRANCH  35  36
HETATM   36  O1  UNL     1      -2.024  46.502  31.964  1.00  0.00    -0.364 OA
HETATM   37  C1  UNL     1      -2.086  46.390  33.353  1.00  0.00     0.204 C
ENDBRANCH  35  36
BRANCH  35  38
HETATM   38  O2  UNL     1      -0.065  45.388  32.228  1.00  0.00    -0.369 OA
ATOM     39  H2  UNL     1       0.311  44.534  32.050  1.00  0.00     0.212 HD
ENDBRANCH  35  38
ENDBRANCH  34  35
BRANCH  34  40
HETATM   40  O3  UNL     1      -3.020  44.576  30.467  1.00  0.00    -0.388 OA
ATOM     41  H3  UNL     1      -3.615  43.885  30.734  1.00  0.00     0.210 HD
ENDBRANCH  34  40
ENDBRANCH  33  34
BRANCH  33  42
HETATM   42  O4  UNL     1      -0.116  42.566  30.966  1.00  0.00    -0.388 OA
ATOM     43  H4  UNL     1       0.287  41.927  30.390  1.00  0.00     0.210 HD
ENDBRANCH  33  42
ENDBRANCH   1  33
TORSDOF 11
ENDMDL