MODEL 3
REMARK VINA RESULT: -5.758066188      2.793      5.011
REMARK  12 active torsions:
REMARK  status: ('A' for Active; 'I' for Inactive)
REMARK    1  A    between atoms: O1_2  and  C2_3
REMARK    2  A    between atoms: C2_3  and  C3_5
REMARK    3  A    between atoms: C3_5  and  N1_6
REMARK    4  A    between atoms: N1_6  and  O3_7
REMARK    5  A    between atoms: C8_14  and  C9_15
REMARK    6  A    between atoms: C9_15  and  O5_16
REMARK    7  A    between atoms: C9_15  and  C10_18
REMARK    8  A    between atoms: C10_18  and  O6_19
REMARK    9  A    between atoms: C10_18  and  C11_21
REMARK   10  A    between atoms: C11_21  and  O7_22
REMARK   11  A    between atoms: C16_34  and  C17_35
REMARK   12  A    between atoms: C17_35  and  O9_36
ROOT
HETATM    1  C3  UNL     1      -6.033  36.649  29.739  1.00  0.00     0.147 C
HETATM    2  C4  UNL     1      -5.605  37.992  30.192  1.00  0.00     0.045 C
HETATM    3  C5  UNL     1      -4.136  38.235  30.220  1.00  0.00     0.074 C
HETATM    4  C6  UNL     1      -3.639  39.139  29.125  1.00  0.00     0.192 C
HETATM    5  C7  UNL     1      -4.070  38.819  27.764  1.00  0.00     0.237 C
HETATM    6  O4  UNL     1      -4.969  37.794  27.621  1.00  0.00    -0.378 OA
HETATM    7  C8  UNL     1      -4.432  36.542  27.775  1.00  0.00     0.155 C
HETATM    8  C12 UNL     1      -5.090  35.857  28.915  1.00  0.00     0.074 C
HETATM    9  O8  UNL     1      -2.263  39.326  29.239  1.00  0.00    -0.313 OA
HETATM   10  C13 UNL     1      -2.420  40.730  29.312  1.00  0.00     0.209 C
HETATM   11  C14 UNL     1      -2.169  41.431  28.015  1.00  0.00     0.193 C
HETATM   12  N2  UNL     1      -1.046  42.310  28.008  1.00  0.00    -0.359 N
ATOM     13  H2  UNL     1      -0.802  42.731  27.113  1.00  0.00     0.162 HD
HETATM   14  C15 UNL     1      -0.318  42.623  29.000  1.00  0.00     0.184 C
HETATM   15  N3  UNL     1       0.768  43.517  28.835  1.00  0.00    -0.064 NA
HETATM   16  N4  UNL     1      -0.600  42.077  30.262  1.00  0.00    -0.353 N
ATOM     17  H4  UNL     1       0.073  42.190  31.020  1.00  0.00     0.162 HD
HETATM   18  C16 UNL     1      -1.820  41.361  30.504  1.00  0.00     0.171 C
HETATM   19  O10 UNL     1      -3.788  40.501  29.472  1.00  0.00    -0.313 OA
ENDROOT
BRANCH   1  20
HETATM   20  C2  UNL     1      -6.302  35.821  30.974  1.00  0.00     0.285 C
HETATM   21  O2  UNL     1      -6.747  36.272  32.032  1.00  0.00    -0.263 OA
BRANCH  20  22
HETATM   22  O1  UNL     1      -6.014  34.461  30.862  1.00  0.00    -0.325 OA
HETATM   23  C1  UNL     1      -5.428  33.787  31.973  1.00  0.00     0.213 C
ENDBRANCH  20  22
ENDBRANCH   1  20
BRANCH   1  24
HETATM   24  N1  UNL     1      -7.350  36.787  29.098  1.00  0.00    -0.083 NA
BRANCH  24  25
HETATM   25  O3  UNL     1      -8.299  36.131  29.800  1.00  0.00    -0.295 OA
ATOM     26  H3  UNL     1      -9.166  36.447  29.575  1.00  0.00     0.238 HD
ENDBRANCH  24  25
ENDBRANCH   1  24
BRANCH   7  27
HETATM   27  C9  UNL     1      -4.417  35.740  26.498  1.00  0.00     0.178 C
BRANCH  27  28
HETATM   28  O5  UNL     1      -4.559  34.396  26.846  1.00  0.00    -0.390 OA
ATOM     29  H5  UNL     1      -3.751  33.953  26.611  1.00  0.00     0.210 HD
ENDBRANCH  27  28
BRANCH  27  30
HETATM   30  C10 UNL     1      -3.182  35.883  25.690  1.00  0.00     0.172 C
BRANCH  30  31
HETATM   31  O6  UNL     1      -3.125  37.106  25.017  1.00  0.00    -0.391 OA
ATOM     32  H6  UNL     1      -3.181  37.004  24.074  1.00  0.00     0.210 HD
ENDBRANCH  30  31
BRANCH  30  33
HETATM   33  C11 UNL     1      -1.998  35.877  26.641  1.00  0.00     0.198 C
BRANCH  33  34
HETATM   34  O7  UNL     1      -1.601  34.573  26.908  1.00  0.00    -0.398 OA
ATOM     35  H7  UNL     1      -0.723  34.421  26.577  1.00  0.00     0.209 HD
ENDBRANCH  33  34
ENDBRANCH  30  33
ENDBRANCH  27  30
ENDBRANCH   7  27
BRANCH  18  36
HETATM   36  C17 UNL     1      -2.777  42.348  31.185  1.00  0.00     0.195 C
BRANCH  36  37
HETATM   37  O9  UNL     1      -3.000  43.469  30.410  1.00  0.00    -0.399 OA
ATOM     38  H9  UNL     1      -3.911  43.548  30.155  1.00  0.00     0.209 HD
ENDBRANCH  36  37
ENDBRANCH  18  36
TORSDOF 12
ENDMDL