MODEL 2
REMARK VINA RESULT: -5.584881819      1.666      1.779
REMARK  10 active torsions:
REMARK  status: ('A' for Active; 'I' for Inactive)
REMARK    1  A    between atoms: O1_2  and  N1_3
REMARK    2  A    between atoms: C2_5  and  O2_6
REMARK    3  A    between atoms: C2_5  and  C3_8
REMARK    4  A    between atoms: N2_9  and  O3_10
REMARK    5  A    between atoms: C12_34  and  C13_35
REMARK    6  A    between atoms: C13_35  and  C14_36
REMARK    7  A    between atoms: C14_36  and  N9_37
REMARK    8  A    between atoms: N9_37  and  C15_40
REMARK    9  A    between atoms: C15_40  and  N10_41
REMARK   10  A    between atoms: C15_40  and  O4_45
ROOT
HETATM    1  C3  UNL     1      -7.422  43.333  23.981  1.00  0.00     0.155 C
HETATM    2  N2  UNL     1      -6.369  43.971  24.368  1.00  0.00    -0.160 N
HETATM    3  N3  UNL     1      -5.882  45.197  23.912  1.00  0.00    -0.278 N
ATOM      4  H3  UNL     1      -5.578  45.890  24.597  1.00  0.00     0.185 HD
HETATM    5  C4  UNL     1      -5.795  45.505  22.571  1.00  0.00     0.311 C
HETATM    6  C5  UNL     1      -4.622  46.238  21.973  1.00  0.00     0.132 C
HETATM    7  S1  UNL     1      -5.377  46.109  20.252  1.00  0.00    -0.129 SA
HETATM    8  C6  UNL     1      -7.103  46.040  20.811  1.00  0.00     0.286 C
HETATM    9  N4  UNL     1      -6.851  46.421  22.196  1.00  0.00    -0.036 N
ATOM     10  H41 UNL     1      -6.640  47.408  22.342  1.00  0.00     0.281 HD
ATOM     11  H42 UNL     1      -7.670  46.408  22.805  1.00  0.00     0.281 HD
HETATM   12  C7  UNL     1      -7.884  44.815  20.663  1.00  0.00     0.148 C
HETATM   13  C8  UNL     1      -9.322  45.332  20.340  1.00  0.00     0.273 C
HETATM   14  N5  UNL     1      -9.447  45.612  18.924  1.00  0.00    -0.071 N
ATOM     15  H51 UNL     1      -8.532  45.667  18.477  1.00  0.00     0.277 HD
ATOM     16  H52 UNL     1      -9.762  46.569  18.764  1.00  0.00     0.277 HD
HETATM   17  C9  UNL     1     -10.302  44.659  18.251  1.00  0.00     0.252 C
HETATM   18  C10 UNL     1      -9.740  43.288  18.565  1.00  0.00     0.148 C
HETATM   19  N6  UNL     1      -8.287  43.456  18.584  1.00  0.00    -0.378 N
ATOM     20  H6  UNL     1      -7.798  43.016  17.805  1.00  0.00     0.160 HD
HETATM   21  C11 UNL     1      -7.519  44.069  19.423  1.00  0.00     0.122 C
HETATM   22  N7  UNL     1      -6.169  43.942  19.016  1.00  0.00    -0.085 NA
HETATM   23  N8  UNL     1      -8.025  43.891  21.661  1.00  0.00    -0.371 N
ATOM     24  H8  UNL     1      -7.761  42.961  21.335  1.00  0.00     0.160 HD
HETATM   25  C12 UNL     1      -8.415  43.856  22.959  1.00  0.00     0.043 C
ENDROOT
BRANCH  25  26
HETATM   26  C13 UNL     1      -9.380  44.820  23.565  1.00  0.00     0.087 C
BRANCH  26  27
HETATM   27  C14 UNL     1     -10.733  44.194  23.961  1.00  0.00     0.243 C
BRANCH  27  28
HETATM   28  N9  UNL     1     -11.374  45.270  24.746  1.00  0.00    -0.023 N
ATOM     29  H92 UNL     1     -11.070  46.195  24.444  1.00  0.00     0.282 HD
ATOM     30  H91 UNL     1     -12.367  45.360  24.529  1.00  0.00     0.282 HD
BRANCH  28  31
HETATM   31  C15 UNL     1     -11.144  45.057  26.163  1.00  0.00     0.519 C
BRANCH  31  32
HETATM   32  N10 UNL     1     -10.847  43.627  26.312  1.00  0.00    -0.027 N
ATOM     33 3H10 UNL     1     -10.624  43.354  27.269  1.00  0.00     0.279 HD
ATOM     34 2H10 UNL     1     -11.665  43.027  26.201  1.00  0.00     0.279 HD
ATOM     35 1H10 UNL     1     -10.101  43.427  25.647  1.00  0.00     0.279 HD
ENDBRANCH  31  32
BRANCH  31  36
HETATM   36  O4  UNL     1     -12.315  45.278  26.883  1.00  0.00    -0.349 OA
ATOM     37  H4  UNL     1     -12.768  44.458  27.038  1.00  0.00     0.213 HD
ENDBRANCH  31  36
ENDBRANCH  28  31
ENDBRANCH  27  28
ENDBRANCH  26  27
ENDBRANCH  25  26
BRANCH   1  38
HETATM   38  C2  UNL     1      -7.657  42.033  24.637  1.00  0.00     0.193 C
HETATM   39  N1  UNL     1      -7.171  40.992  24.062  1.00  0.00    -0.243 N
ATOM     40  H1  UNL     1      -6.656  41.125  23.191  1.00  0.00     0.196 HD
BRANCH  39  41
HETATM   41  O1  UNL     1      -7.298  39.724  24.537  1.00  0.00    -0.283 OA
HETATM   42  C1  UNL     1      -6.205  39.150  25.239  1.00  0.00     0.237 C
ENDBRANCH  39  41
BRANCH  38  43
HETATM   43  O2  UNL     1      -8.364  41.934  25.811  1.00  0.00    -0.343 OA
ATOM     44  H2  UNL     1      -9.222  42.331  25.905  1.00  0.00     0.219 HD
ENDBRANCH  38  43
ENDBRANCH   1  38
BRANCH   2  45
HETATM   45  O3  UNL     1      -5.553  43.380  25.374  1.00  0.00    -0.268 OA
ATOM     46  H3  UNL     1      -5.218  43.936  26.067  1.00  0.00     0.247 HD
ENDBRANCH   2  45
TORSDOF 10
ENDMDL