MODEL 1
REMARK VINA RESULT: -6.129704453      0.000      0.000
REMARK  13 active torsions:
REMARK  status: ('A' for Active; 'I' for Inactive)
REMARK    1  A    between atoms: N1_2  and  C3_4
REMARK    2  A    between atoms: C3_4  and  C4_5
REMARK    3  A    between atoms: C5_8  and  N3_9
REMARK    4  A    between atoms: C7_12  and  C8_13
REMARK    5  A    between atoms: C8_13  and  O1_14
REMARK    6  A    between atoms: C9_16  and  C10_17
REMARK    7  A    between atoms: C10_17  and  N4_18
REMARK    8  A    between atoms: C10_17  and  O2_22
REMARK    9  A    between atoms: C12_29  and  C13_30
REMARK   10  A    between atoms: C13_30  and  N8_32
REMARK   11  A    between atoms: N8_32  and  O4_34
REMARK   12  A    between atoms: N9_36  and  N10_37
REMARK   13  A    between atoms: C15_44  and  O6_45
ROOT
HETATM    1  N3  UNL     1      -6.692  42.626  23.416  1.00  0.00    -0.174 N
ATOM      2  H3  UNL     1      -5.848  42.220  23.015  1.00  0.00     0.186 HD
HETATM    3  C6  UNL     1      -7.073  42.180  24.540  1.00  0.00     0.157 A
HETATM    4  C7  UNL     1      -6.339  41.154  25.200  1.00  0.00     0.046 A
HETATM    5  C9  UNL     1      -6.808  40.724  26.396  1.00  0.00     0.124 A
HETATM    6  O3  UNL     1      -7.915  41.245  26.946  1.00  0.00    -0.276 OA
HETATM    7  C11 UNL     1      -8.567  42.168  26.349  1.00  0.00     0.276 A
HETATM    8  N5  UNL     1      -8.162  42.635  25.162  1.00  0.00    -0.198 N
HETATM    9  N6  UNL     1      -9.048  43.588  24.800  1.00  0.00    -0.270 N
ATOM     10  H6  UNL     1      -9.012  44.134  23.940  1.00  0.00     0.189 HD
HETATM   11  C12 UNL     1      -9.981  43.699  25.755  1.00  0.00     0.189 A
HETATM   12  N9  UNL     1      -9.707  42.827  26.733  1.00  0.00    -0.202 N
ENDROOT
BRANCH   1  13
HETATM   13  C5  UNL     1      -7.339  43.635  22.675  1.00  0.00     0.687 A
HETATM   14  N2  UNL     1      -8.224  43.307  21.699  1.00  0.00    -0.191 N
HETATM   15  C4  UNL     1      -8.841  44.259  20.985  1.00  0.00     0.093 A
ATOM     16  H2  UNL     1      -8.422  42.324  21.508  1.00  0.00     0.184 HD
HETATM   17  C15 UNL     1      -8.563  45.596  21.256  1.00  0.00     0.160 A
HETATM   18  C14 UNL     1      -7.661  45.928  22.251  1.00  0.00     0.294 A
HETATM   19  N11 UNL     1      -7.074  44.936  22.933  1.00  0.00    -0.153 N
HETATM   20  O5  UNL     1      -7.403  47.130  22.504  1.00  0.00    -0.265 OA
ATOM     21  H11 UNL     1      -6.407  45.169  23.668  1.00  0.00     0.187 HD
BRANCH  15  22
HETATM   22  C3  UNL     1      -9.819  43.975  19.904  1.00  0.00     0.332 C
BRANCH  22  23
HETATM   23  N1  UNL     1      -9.662  42.623  19.387  1.00  0.00     0.085 N
HETATM   24  C1  UNL     1     -10.907  41.934  19.672  1.00  0.00     0.309 C
HETATM   25  C2  UNL     1      -9.490  42.625  17.949  1.00  0.00     0.309 C
ENDBRANCH  22  23
ENDBRANCH  15  22
BRANCH  17  26
HETATM   26  O6  UNL     1      -9.194  46.598  20.525  1.00  0.00    -0.354 OA
ATOM     27  H6  UNL     1      -8.676  47.257  20.078  1.00  0.00     0.218 HD
ENDBRANCH  17  26
ENDBRANCH   1  13
BRANCH   4  28
HETATM   28  C8  UNL     1      -5.119  40.760  24.483  1.00  0.00     0.209 C
BRANCH  28  29
HETATM   29  O1  UNL     1      -5.188  39.959  23.397  1.00  0.00    -0.396 OA
ATOM     30  H1  UNL     1      -5.406  39.039  23.488  1.00  0.00     0.209 HD
ENDBRANCH  28  29
ENDBRANCH   4  28
BRANCH   5  31
HETATM   31  C10 UNL     1      -6.127  39.635  27.162  1.00  0.00     0.375 C
BRANCH  31  32
HETATM   32  N4  UNL     1      -6.496  38.309  26.796  1.00  0.00    -0.047 N
ATOM     33  H43 UNL     1      -7.217  38.333  26.075  1.00  0.00     0.277 HD
ATOM     34  H42 UNL     1      -5.738  37.865  26.278  1.00  0.00     0.277 HD
ATOM     35  H41 UNL     1      -6.792  37.710  27.567  1.00  0.00     0.277 HD
ENDBRANCH  31  32
BRANCH  31  36
HETATM   36  O2  UNL     1      -6.399  39.780  28.517  1.00  0.00    -0.365 OA
ATOM     37  H2  UNL     1      -6.922  39.046  28.816  1.00  0.00     0.212 HD
ENDBRANCH  31  36
ENDBRANCH   5  31
BRANCH  12  38
HETATM   38  N10 UNL     1     -10.436  42.623  27.914  1.00  0.00    -0.334 N
ATOM     39 2H10 UNL     1     -10.096  42.214  28.785  1.00  0.00     0.177 HD
ATOM     40 1H10 UNL     1     -11.416  42.855  28.073  1.00  0.00     0.177 HD
ENDBRANCH  12  38
BRANCH  11  41
HETATM   41  C13 UNL     1     -11.140  44.610  25.786  1.00  0.00     0.183 C
HETATM   42  N7  UNL     1     -11.697  45.069  27.000  1.00  0.00    -0.077 NA
BRANCH  41  43
HETATM   43  N8  UNL     1     -11.677  45.009  24.675  1.00  0.00    -0.252 N
ATOM     44  H8  UNL     1     -12.676  44.862  24.529  1.00  0.00     0.195 HD
BRANCH  43  45
HETATM   45  O4  UNL     1     -10.944  45.625  23.691  1.00  0.00    -0.288 OA
ATOM     46  H4  UNL     1     -10.751  46.556  23.712  1.00  0.00     0.244 HD
ENDBRANCH  43  45
ENDBRANCH  41  43
ENDBRANCH  11  41
TORSDOF 13
ENDMDL