MODEL 4
REMARK VINA RESULT: -5.594643382      6.395     10.567
REMARK  12 active torsions:
REMARK  status: ('A' for Active; 'I' for Inactive)
REMARK    1  A    between atoms: N1_2  and  N2_3
REMARK    2  A    between atoms: N1_2  and  C2_6
REMARK    3  A    between atoms: N5_12  and  C5_14
REMARK    4  A    between atoms: C5_14  and  N6_15
REMARK    5  A    between atoms: C5_14  and  C7_20
REMARK    6  A    between atoms: C7_20  and  O1_21
REMARK    7  A    between atoms: C7_20  and  C8_23
REMARK    8  A    between atoms: C8_23  and  O2_24
REMARK    9  A    between atoms: C8_23  and  C9_26
REMARK   10  A    between atoms: C9_26  and  O3_27
REMARK   11  A    between atoms: C11_30  and  O4_31
REMARK   12  A    between atoms: O4_31  and  N9_32
ROOT
HETATM    1  C2  UNL     1      -2.288  40.215  30.178  1.00  0.00     0.151 A
HETATM    2  N3  UNL     1      -2.222  39.140  30.971  1.00  0.00    -0.326 N
ATOM      3  H3  UNL     1      -1.731  39.233  31.861  1.00  0.00     0.168 HD
HETATM    4  C3  UNL     1      -2.764  37.935  30.672  1.00  0.00     0.145 A
HETATM    5  N4  UNL     1      -2.569  36.950  31.664  1.00  0.00    -0.080 NA
HETATM    6  C4  UNL     1      -3.455  37.641  29.524  1.00  0.00     0.087 A
HETATM    7  N5  UNL     1      -3.998  36.575  29.168  1.00  0.00    -0.363 N
ATOM      8  H5  UNL     1      -4.452  36.624  28.256  1.00  0.00     0.162 HD
HETATM    9  C10 UNL     1      -3.565  38.735  28.637  1.00  0.00     0.064 A
HETATM   10  C11 UNL     1      -4.271  38.421  27.484  1.00  0.00     0.159 C
HETATM   11  C12 UNL     1      -4.950  39.327  26.686  1.00  0.00     0.166 A
HETATM   12  N10 UNL     1      -5.908  38.959  25.825  1.00  0.00    -0.334 N
ATOM     13  H10 UNL     1      -6.245  38.011  25.657  1.00  0.00     0.168 HD
HETATM   14  C13 UNL     1      -6.341  40.081  25.226  1.00  0.00     0.199 A
HETATM   15  N11 UNL     1      -5.631  41.100  25.743  1.00  0.00    -0.287 N
ATOM     16  H11 UNL     1      -5.744  42.078  25.474  1.00  0.00     0.188 HD
HETATM   17  N12 UNL     1      -4.768  40.667  26.644  1.00  0.00    -0.232 N
HETATM   18  C14 UNL     1      -3.931  41.481  27.313  1.00  0.00     0.209 C
HETATM   19  N13 UNL     1      -2.995  41.140  28.251  1.00  0.00    -0.347 N
ATOM     20  H13 UNL     1      -2.238  41.806  28.403  1.00  0.00     0.167 HD
HETATM   21  C15 UNL     1      -2.968  40.016  28.994  1.00  0.00     0.095 A
ENDROOT
BRANCH   7  22
HETATM   22  C5  UNL     1      -4.100  35.326  29.790  1.00  0.00     0.215 C
BRANCH  22  23
HETATM   23  N6  UNL     1      -3.802  34.172  28.938  1.00  0.00    -0.343 N
HETATM   24  C6  UNL     1      -2.705  34.066  28.278  1.00  0.00     0.198 C
HETATM   25  N7  UNL     1      -1.670  35.001  28.270  1.00  0.00    -0.067 NA
HETATM   26  N8  UNL     1      -2.553  32.884  27.489  1.00  0.00    -0.067 NA
ATOM     27  H6  UNL     1      -4.492  33.424  28.867  1.00  0.00     0.164 HD
ENDBRANCH  22  23
BRANCH  22  28
HETATM   28  C7  UNL     1      -5.558  35.061  30.232  1.00  0.00     0.191 C
BRANCH  28  29
HETATM   29  O1  UNL     1      -5.450  34.304  31.423  1.00  0.00    -0.389 OA
ATOM     30  H1  UNL     1      -6.233  33.767  31.447  1.00  0.00     0.210 HD
ENDBRANCH  28  29
BRANCH  28  31
HETATM   31  C8  UNL     1      -6.234  36.353  30.636  1.00  0.00     0.174 C
BRANCH  31  32
HETATM   32  O2  UNL     1      -6.803  36.091  31.903  1.00  0.00    -0.391 OA
ATOM     33  H2  UNL     1      -7.034  35.169  31.884  1.00  0.00     0.210 HD
ENDBRANCH  31  32
BRANCH  31  34
HETATM   34  C9  UNL     1      -7.332  36.742  29.667  1.00  0.00     0.198 C
BRANCH  34  35
HETATM   35  O3  UNL     1      -8.467  35.968  30.000  1.00  0.00    -0.398 OA
ATOM     36  H3  UNL     1      -8.714  36.207  30.885  1.00  0.00     0.209 HD
ENDBRANCH  34  35
ENDBRANCH  31  34
ENDBRANCH  28  31
ENDBRANCH  22  28
ENDBRANCH   7  22
BRANCH  10  37
HETATM   37  O4  UNL     1      -4.278  37.090  27.131  1.00  0.00    -0.240 OA
BRANCH  37  38
HETATM   38  N9  UNL     1      -3.615  36.562  26.074  1.00  0.00    -0.305 N
ATOM     39  H92 UNL     1      -2.615  36.759  26.021  1.00  0.00     0.184 HD
ATOM     40  H91 UNL     1      -4.039  35.991  25.342  1.00  0.00     0.184 HD
ENDBRANCH  37  38
ENDBRANCH  10  37
BRANCH   1  41
HETATM   41  N1  UNL     1      -1.715  41.476  30.499  1.00  0.00    -0.286 N
HETATM   42  C1  UNL     1      -2.473  42.603  30.989  1.00  0.00     0.179 C
BRANCH  41  43
HETATM   43  N2  UNL     1      -0.334  41.621  30.326  1.00  0.00    -0.342 N
ATOM     44  H22 UNL     1       0.005  41.810  29.383  1.00  0.00     0.177 HD
ATOM     45  H21 UNL     1       0.272  41.533  31.141  1.00  0.00     0.177 HD
ENDBRANCH  41  43
ENDBRANCH   1  41
TORSDOF 12
ENDMDL