MODEL 1
REMARK VINA RESULT: -5.888615440      0.000      0.000
REMARK  13 active torsions:
REMARK  status: ('A' for Active; 'I' for Inactive)
REMARK    1  A    between atoms: N1_1  and  C1_5
REMARK    2  A    between atoms: C3_7  and  N2_8
REMARK    3  A    between atoms: C5_13  and  O1_14
REMARK    4  A    between atoms: O1_14  and  C6_15
REMARK    5  A    between atoms: C7_16  and  N3_17
REMARK    6  A    between atoms: C8_21  and  N4_22
REMARK    7  A    between atoms: C10_27  and  N5_28
REMARK    8  A    between atoms: C11_32  and  O2_33
REMARK    9  A    between atoms: O2_33  and  C12_34
REMARK   10  A    between atoms: C13_36  and  C14_37
REMARK   11  A    between atoms: C14_37  and  O4_38
REMARK   12  A    between atoms: C15_40  and  N6_41
REMARK   13  A    between atoms: C16_48  and  N10_49
ROOT
HETATM    1  C6  UNL     1      -7.389  40.746  24.138  1.00  0.00     0.185 C
HETATM    2  C7  UNL     1      -6.659  40.000  25.256  1.00  0.00     0.245 C
HETATM    3  C8  UNL     1      -5.250  40.457  25.407  1.00  0.00     0.218 C
HETATM    4  C9  UNL     1      -4.693  41.126  24.187  1.00  0.00     0.070 C
HETATM    5  C10 UNL     1      -5.204  40.488  22.920  1.00  0.00     0.217 C
HETATM    6  C11 UNL     1      -6.711  40.503  22.801  1.00  0.00     0.186 C
ENDROOT
BRANCH   6   7
HETATM    7  O2  UNL     1      -7.175  41.429  21.893  1.00  0.00    -0.349 OA
BRANCH   7   8
HETATM    8  C12 UNL     1      -8.080  40.955  20.976  1.00  0.00     0.293 C
HETATM    9  O3  UNL     1      -9.344  41.253  21.486  1.00  0.00    -0.349 OA
HETATM   10  C13 UNL     1     -10.254  40.423  20.883  1.00  0.00     0.177 C
HETATM   11  C15 UNL     1      -9.533  39.292  20.226  1.00  0.00     0.196 C
HETATM   12  C16 UNL     1      -8.112  39.483  20.769  1.00  0.00     0.267 C
BRANCH  10  13
HETATM   13  C14 UNL     1     -11.153  41.181  19.949  1.00  0.00     0.198 C
BRANCH  13  14
HETATM   14  O4  UNL     1     -11.542  40.367  18.883  1.00  0.00    -0.398 OA
ATOM     15  H4  UNL     1     -12.424  40.586  18.605  1.00  0.00     0.209 HD
ENDBRANCH  13  14
ENDBRANCH  10  13
BRANCH  11  16
HETATM   16  N6  UNL     1     -10.057  37.989  20.563  1.00  0.00    -0.193 N
HETATM   17  N7  UNL     1      -9.742  36.949  21.301  1.00  0.00    -0.208 N
HETATM   18  N8  UNL     1     -10.824  36.344  20.919  1.00  0.00    -0.211 N
ATOM     19  H7  UNL     1      -8.966  36.713  21.920  1.00  0.00     0.211 HD
HETATM   20  N9  UNL     1     -11.155  37.364  20.182  1.00  0.00    -0.208 N
ATOM     21  H8  UNL     1     -11.246  35.437  21.117  1.00  0.00     0.211 HD
ATOM     22  H9  UNL     1     -11.937  37.587  19.566  1.00  0.00     0.211 HD
ENDBRANCH  11  16
BRANCH  12  23
HETATM   23  N10 UNL     1      -7.236  39.028  19.708  1.00  0.00    -0.068 N
ATOM     24 3H10 UNL     1      -7.220  39.699  18.940  1.00  0.00     0.275 HD
ATOM     25 2H10 UNL     1      -6.260  39.080  19.998  1.00  0.00     0.275 HD
ATOM     26 1H10 UNL     1      -7.462  38.095  19.365  1.00  0.00     0.275 HD
ENDBRANCH  12  23
ENDBRANCH   7   8
ENDBRANCH   6   7
BRANCH   1  27
HETATM   27  O1  UNL     1      -7.348  42.068  24.482  1.00  0.00    -0.376 OA
BRANCH  27  28
HETATM   28  C5  UNL     1      -8.511  42.666  24.837  1.00  0.00     0.126 C
HETATM   29  C4  UNL     1      -8.646  42.933  26.320  1.00  0.00     0.065 C
HETATM   30  C3  UNL     1     -10.126  43.107  26.602  1.00  0.00     0.188 C
HETATM   31  C2  UNL     1     -10.704  44.229  25.787  1.00  0.00     0.065 C
HETATM   32  C1  UNL     1     -10.349  44.175  24.335  1.00  0.00     0.188 C
HETATM   33  C17 UNL     1      -8.855  43.934  24.120  1.00  0.00     0.065 C
BRANCH  30  34
HETATM   34  N2  UNL     1     -10.332  43.425  28.001  1.00  0.00    -0.075 N
ATOM     35  H23 UNL     1      -9.939  44.329  28.264  1.00  0.00     0.274 HD
ATOM     36  H22 UNL     1     -11.306  43.633  28.221  1.00  0.00     0.274 HD
ATOM     37  H21 UNL     1      -9.958  42.654  28.555  1.00  0.00     0.274 HD
ENDBRANCH  30  34
BRANCH  32  38
HETATM   38  N1  UNL     1     -10.635  45.475  23.759  1.00  0.00    -0.075 N
ATOM     39  H13 UNL     1     -11.523  45.862  24.078  1.00  0.00     0.274 HD
ATOM     40  H12 UNL     1     -10.028  46.210  24.122  1.00  0.00     0.274 HD
ATOM     41  H11 UNL     1     -10.585  45.386  22.745  1.00  0.00     0.274 HD
ENDBRANCH  32  38
ENDBRANCH  27  28
ENDBRANCH   1  27
BRANCH   5  42
HETATM   42  N5  UNL     1      -4.668  41.275  21.823  1.00  0.00    -0.072 N
ATOM     43  H53 UNL     1      -4.820  42.277  21.931  1.00  0.00     0.274 HD
ATOM     44  H52 UNL     1      -3.649  41.304  21.807  1.00  0.00     0.274 HD
ATOM     45  H51 UNL     1      -5.077  40.892  20.971  1.00  0.00     0.274 HD
ENDBRANCH   5  42
BRANCH   2  46
HETATM   46  N3  UNL     1      -6.763  38.558  25.056  1.00  0.00    -0.070 N
ATOM     47  H33 UNL     1      -7.540  38.156  25.581  1.00  0.00     0.274 HD
ATOM     48  H32 UNL     1      -7.081  38.327  24.115  1.00  0.00     0.274 HD
ATOM     49  H31 UNL     1      -5.878  38.104  25.281  1.00  0.00     0.274 HD
ENDBRANCH   2  46
BRANCH   3  50
HETATM   50  N4  UNL     1      -5.163  41.334  26.565  1.00  0.00    -0.073 N
ATOM     51  H43 UNL     1      -4.744  42.236  26.339  1.00  0.00     0.274 HD
ATOM     52  H42 UNL     1      -6.077  41.673  26.866  1.00  0.00     0.274 HD
ATOM     53  H41 UNL     1      -4.664  40.846  27.309  1.00  0.00     0.274 HD
ENDBRANCH   3  50
TORSDOF 13
ENDMDL