MODEL 2
REMARK VINA RESULT: -6.672493896      4.033      8.809
REMARK  9 active torsions:
REMARK  status: ('A' for Active; 'I' for Inactive)
REMARK    1  A    between atoms: C2_3  and  C3_4
REMARK       I    between atoms: C3_4  and  N2_6
REMARK       I    between atoms: N2_6  and  C4_8
REMARK    2  A    between atoms: C5_17  and  N7_18
REMARK    3  A    between atoms: C6_19  and  O2_20
REMARK    4  A    between atoms: C9_24  and  C10_25
REMARK    5  A    between atoms: C10_25  and  N8_26
REMARK    6  A    between atoms: C10_25  and  C11_30
REMARK    7  A    between atoms: C13_38  and  C14_39
REMARK    8  A    between atoms: C14_39  and  N11_40
REMARK    9  A    between atoms: C14_39  and  C15_44
ROOT
HETATM    1  N7  UNL     1      -4.644  38.403  27.660  1.00  0.00    -0.123 N
HETATM    2  C6  UNL     1      -3.563  37.685  27.248  1.00  0.00     0.176 A
HETATM    3  C7  UNL     1      -3.554  36.470  27.862  1.00  0.00     0.048 A
HETATM    4  C8  UNL     1      -2.720  35.368  27.819  1.00  0.00     0.047 A
HETATM    5  C9  UNL     1      -2.960  34.241  28.560  1.00  0.00     0.067 A
HETATM    6  N9  UNL     1      -4.075  34.266  29.350  1.00  0.00    -0.302 N
ATOM      7  H9  UNL     1      -4.284  33.443  29.915  1.00  0.00     0.186 HD
HETATM    8  N10 UNL     1      -4.893  35.289  29.423  1.00  0.00    -0.298 N
ATOM      9  H10 UNL     1      -5.709  35.245  30.033  1.00  0.00     0.187 HD
HETATM   10  C12 UNL     1      -4.655  36.402  28.690  1.00  0.00     0.089 A
HETATM   11  C13 UNL     1      -5.313  37.625  28.541  1.00  0.00     0.105 A
ENDROOT
BRANCH   1  12
HETATM   12  C5  UNL     1      -4.915  39.708  27.177  1.00  0.00     0.709 A
HETATM   13  N1  UNL     1      -5.977  40.074  26.422  1.00  0.00    -0.164 N
HETATM   14  C1  UNL     1      -7.038  39.182  25.981  1.00  0.00     0.177 C
HETATM   15  C2  UNL     1      -5.928  41.375  26.121  1.00  0.00     0.206 A
HETATM   16  N5  UNL     1      -4.813  41.847  26.695  1.00  0.00    -0.266 N
HETATM   17  N6  UNL     1      -4.194  40.859  27.332  1.00  0.00    -0.129 N
ATOM     18  H5  UNL     1      -4.489  42.814  26.650  1.00  0.00     0.189 HD
ATOM     19  H6  UNL     1      -3.322  40.946  27.854  1.00  0.00     0.205 HD
BRANCH  15  20
HETATM   20  C3  UNL     1      -6.916  42.104  25.319  1.00  0.00     0.294 C
HETATM   21  O1  UNL     1      -6.710  42.299  24.110  1.00  0.00    -0.264 OA
HETATM   22  N2  UNL     1      -8.111  42.593  25.909  1.00  0.00    -0.295 N
HETATM   23  C4  UNL     1      -9.042  43.286  25.127  1.00  0.00     0.188 C
ATOM     24  H2  UNL     1      -8.292  42.440  26.901  1.00  0.00     0.171 HD
HETATM   25  N3  UNL     1     -10.123  43.731  25.649  1.00  0.00    -0.373 N
HETATM   26  N4  UNL     1      -8.838  43.524  23.750  1.00  0.00    -0.064 NA
ATOM     27  H32 UNL     1     -10.270  43.560  26.644  1.00  0.00     0.158 HD
ATOM     28  H31 UNL     1     -10.802  44.237  25.080  1.00  0.00     0.158 HD
ENDBRANCH  15  20
ENDBRANCH   1  12
BRANCH   2  29
HETATM   29  O2  UNL     1      -2.615  38.125  26.341  1.00  0.00    -0.345 OA
ATOM     30  H2  UNL     1      -2.482  37.763  25.473  1.00  0.00     0.219 HD
ENDBRANCH   2  29
BRANCH  11  31
HETATM   31  C14 UNL     1      -6.570  38.031  29.232  1.00  0.00     0.324 C
BRANCH  31  32
HETATM   32  N11 UNL     1      -6.204  39.203  30.061  1.00  0.00    -0.061 N
ATOM     33 3H11 UNL     1      -5.810  38.956  30.969  1.00  0.00     0.275 HD
ATOM     34 2H11 UNL     1      -5.392  39.714  29.713  1.00  0.00     0.275 HD
ATOM     35 1H11 UNL     1      -7.050  39.769  30.122  1.00  0.00     0.275 HD
ENDBRANCH  31  32
BRANCH  31  36
HETATM   36  C15 UNL     1      -7.041  37.028  30.180  1.00  0.00     0.267 C
HETATM   37  N12 UNL     1      -8.004  36.026  29.893  1.00  0.00    -0.060 NA
HETATM   38  O5  UNL     1      -6.583  37.009  31.379  1.00  0.00    -0.274 OA
ENDBRANCH  31  36
ENDBRANCH  11  31
BRANCH   5  39
HETATM   39  C10 UNL     1      -2.155  33.020  28.589  1.00  0.00     0.334 C
BRANCH  39  40
HETATM   40  N8  UNL     1      -2.431  32.212  27.401  1.00  0.00    -0.060 N
ATOM     41  H83 UNL     1      -3.394  31.878  27.380  1.00  0.00     0.275 HD
ATOM     42  H82 UNL     1      -2.451  32.775  26.551  1.00  0.00     0.275 HD
ATOM     43  H81 UNL     1      -1.759  31.448  27.336  1.00  0.00     0.275 HD
ENDBRANCH  39  40
BRANCH  39  44
HETATM   44  C11 UNL     1      -2.413  32.184  29.767  1.00  0.00     0.210 C
HETATM   45  O3  UNL     1      -1.848  32.385  30.863  1.00  0.00    -0.646 OA
HETATM   46  O4  UNL     1      -3.318  31.105  29.719  1.00  0.00    -0.646 OA
ENDBRANCH  39  44
ENDBRANCH   5  39
TORSDOF 9
ENDMDL