MODEL 4
REMARK VINA RESULT: -5.104669188      5.024      7.860
REMARK  18 active torsions:
REMARK  status: ('A' for Active; 'I' for Inactive)
REMARK    1  A    between atoms: C2_2  and  O2_4
REMARK    2  A    between atoms: O2_4  and  C3_5
REMARK    3  A    between atoms: C3_5  and  C4_6
REMARK    4  A    between atoms: C4_6  and  O3_7
REMARK    5  A    between atoms: N1_9  and  N2_11
REMARK    6  A    between atoms: N3_13  and  N4_15
REMARK    7  A    between atoms: N4_15  and  O4_16
REMARK    8  A    between atoms: N4_15  and  C5_18
REMARK    9  A    between atoms: C5_18  and  N5_20
REMARK   10  A    between atoms: C7_22  and  O5_23
REMARK   11  A    between atoms: C7_22  and  C8_25
REMARK   12  A    between atoms: C8_25  and  O6_26
REMARK   13  A    between atoms: C9_28  and  O7_30
REMARK   14  A    between atoms: C11_32  and  O8_33
REMARK   15  A    between atoms: C12_35  and  O9_36
REMARK   16  A    between atoms: C12_35  and  C13_38
REMARK   17  A    between atoms: C13_38  and  O10_39
REMARK   18  A    between atoms: C13_38  and  O11_41
ROOT
HETATM    1  N5  UNL     1      -1.451  34.428  32.267  1.00  0.00    -0.314 N
HETATM    2  C6  UNL     1      -1.953  33.970  33.520  1.00  0.00     0.172 C
HETATM    3  C7  UNL     1      -1.405  34.596  34.725  1.00  0.00     0.128 C
HETATM    4  C9  UNL     1      -0.135  35.338  34.687  1.00  0.00     0.119 C
HETATM    5  C10 UNL     1      -0.155  36.704  35.353  1.00  0.00     0.052 C
HETATM    6  C11 UNL     1       0.517  35.431  33.341  1.00  0.00     0.216 C
HETATM    7  C12 UNL     1      -0.484  35.470  32.209  1.00  0.00     0.215 C
ENDROOT
BRANCH   1   8
HETATM    8  C5  UNL     1      -1.940  33.815  31.097  1.00  0.00     0.223 C
HETATM    9  S1  UNL     1      -1.711  32.206  30.857  1.00  0.00    -0.037 SA
BRANCH   8  10
HETATM   10  N4  UNL     1      -2.638  34.518  30.104  1.00  0.00    -0.119 N
BRANCH  10  11
HETATM   11  N3  UNL     1      -4.061  34.366  30.096  1.00  0.00    -0.199 N
HETATM   12  N2  UNL     1      -4.730  35.436  30.005  1.00  0.00    -0.224 N
ATOM     13  H2  UNL     1      -4.266  36.342  29.942  1.00  0.00     0.210 HD
ATOM     14  H3  UNL     1      -4.508  33.451  30.159  1.00  0.00     0.212 HD
BRANCH  12  15
HETATM   15  N1  UNL     1      -6.097  35.339  29.994  1.00  0.00    -0.266 N
HETATM   16  C4  UNL     1      -6.847  36.364  30.046  1.00  0.00     0.156 C
ATOM     17  H1  UNL     1      -6.526  34.416  29.942  1.00  0.00     0.190 HD
BRANCH  16  18
HETATM   18  C3  UNL     1      -6.404  37.745  30.123  1.00  0.00     0.264 C
BRANCH  18  19
HETATM   19  O2  UNL     1      -5.548  38.120  29.075  1.00  0.00    -0.314 OA
BRANCH  19  20
HETATM   20  C2  UNL     1      -4.330  38.688  29.436  1.00  0.00     0.255 C
HETATM   21  C1  UNL     1      -4.185  40.117  29.797  1.00  0.00     0.126 C
HETATM   22  O1  UNL     1      -3.281  37.966  29.466  1.00  0.00    -0.266 OA
ENDBRANCH  19  20
ENDBRANCH  18  19
ENDBRANCH  16  18
BRANCH  16  23
HETATM   23  O3  UNL     1      -8.228  36.125  30.024  1.00  0.00    -0.347 OA
ATOM     24  H3  UNL     1      -8.518  35.224  29.946  1.00  0.00     0.219 HD
ENDBRANCH  16  23
ENDBRANCH  12  15
ENDBRANCH  10  11
BRANCH  10  25
HETATM   25  O4  UNL     1      -2.165  35.315  29.148  1.00  0.00    -0.265 OA
ATOM     26  H4  UNL     1      -1.778  36.122  29.466  1.00  0.00     0.247 HD
ENDBRANCH  10  25
ENDBRANCH   8  10
ENDBRANCH   1   8
BRANCH   7  27
HETATM   27  O9  UNL     1       0.282  35.304  31.025  1.00  0.00    -0.364 OA
ATOM     28  H9  UNL     1      -0.263  35.532  30.281  1.00  0.00     0.213 HD
ENDBRANCH   7  27
BRANCH   7  29
HETATM   29  C13 UNL     1      -1.106  36.831  32.061  1.00  0.00     0.313 C
BRANCH  29  30
HETATM   30  O10 UNL     1      -2.493  36.840  32.077  1.00  0.00    -0.367 OA
ATOM     31  H10 UNL     1      -2.902  36.626  31.246  1.00  0.00     0.212 HD
ENDBRANCH  29  30
BRANCH  29  32
HETATM   32  O11 UNL     1      -0.742  37.439  30.855  1.00  0.00    -0.367 OA
ATOM     33  H11 UNL     1      -1.286  38.195  30.663  1.00  0.00     0.212 HD
ENDBRANCH  29  32
ENDBRANCH   7  29
BRANCH   3  34
HETATM   34  O5  UNL     1      -1.301  33.501  35.679  1.00  0.00    -0.383 OA
ATOM     35  H5  UNL     1      -1.125  33.932  36.508  1.00  0.00     0.210 HD
ENDBRANCH   3  34
BRANCH   3  36
HETATM   36  C8  UNL     1      -2.553  35.396  35.398  1.00  0.00     0.206 C
BRANCH  36  37
HETATM   37  O6  UNL     1      -3.544  35.681  34.467  1.00  0.00    -0.398 OA
ATOM     38  H6  UNL     1      -3.479  36.587  34.189  1.00  0.00     0.209 HD
ENDBRANCH  36  37
ENDBRANCH   3  36
BRANCH   6  39
HETATM   39  O8  UNL     1       1.435  34.407  33.128  1.00  0.00    -0.387 OA
ATOM     40  H8  UNL     1       1.329  34.000  32.277  1.00  0.00     0.210 HD
ENDBRANCH   6  39
BRANCH   4  41
HETATM   41  O7  UNL     1       0.804  34.608  35.470  1.00  0.00    -0.384 OA
ATOM     42  H7  UNL     1       1.573  34.467  34.930  1.00  0.00     0.210 HD
ENDBRANCH   4  41
TORSDOF 18
ENDMDL