MODEL 2
REMARK VINA RESULT: -5.748972277      3.317      6.342
REMARK  11 active torsions:
REMARK  status: ('A' for Active; 'I' for Inactive)
REMARK    1  A    between atoms: N1_2  and  C3_4
REMARK    2  A    between atoms: C3_4  and  C4_5
REMARK    3  A    between atoms: C7_13  and  O2_14
REMARK    4  A    between atoms: O2_14  and  C8_15
REMARK    5  A    between atoms: C9_16  and  N4_17
REMARK    6  A    between atoms: C11_22  and  N5_23
REMARK    7  A    between atoms: N5_23  and  O3_24
REMARK    8  A    between atoms: C12_26  and  O4_27
REMARK    9  A    between atoms: C13_29  and  N6_30
REMARK   10  A    between atoms: N6_30  and  C14_32
REMARK   11  A    between atoms: C16_36  and  N8_37
ROOT
HETATM    1  C4  UNL     1      -6.257  42.158  25.521  1.00  0.00     0.357 C
HETATM    2  N2  UNL     1      -5.568  41.461  24.466  1.00  0.00    -0.008 N
ATOM      3  H21 UNL     1      -5.955  41.704  23.555  1.00  0.00     0.284 HD
ATOM      4  H22 UNL     1      -5.791  40.465  24.482  1.00  0.00     0.284 HD
HETATM    5  C5  UNL     1      -4.139  41.670  24.491  1.00  0.00     0.436 C
HETATM    6  C6  UNL     1      -3.842  42.741  23.524  1.00  0.00     0.121 C
HETATM    7  N3  UNL     1      -3.621  43.596  22.769  1.00  0.00    -0.193 NA
HETATM    8  O1  UNL     1      -3.699  42.091  25.721  1.00  0.00    -0.294 OA
HETATM    9  C7  UNL     1      -4.405  41.572  26.788  1.00  0.00     0.418 C
HETATM   10  O5  UNL     1      -5.749  41.950  26.771  1.00  0.00    -0.303 OA
ENDROOT
BRANCH   1  11
HETATM   11  C3  UNL     1      -7.699  41.694  25.502  1.00  0.00     0.332 C
BRANCH  11  12
HETATM   12  N1  UNL     1      -8.524  42.778  26.042  1.00  0.00     0.084 N
HETATM   13  C1  UNL     1      -9.289  43.405  24.978  1.00  0.00     0.309 C
HETATM   14  C2  UNL     1      -9.383  42.259  27.080  1.00  0.00     0.309 C
ENDBRANCH  11  12
ENDBRANCH   1  11
BRANCH   9  15
HETATM   15  O2  UNL     1      -4.392  40.201  26.898  1.00  0.00    -0.329 OA
BRANCH  15  16
HETATM   16  C8  UNL     1      -5.323  39.805  27.889  1.00  0.00     0.182 C
HETATM   17  C9  UNL     1      -6.293  38.821  27.284  1.00  0.00     0.216 C
HETATM   18  C10 UNL     1      -6.893  37.821  28.167  1.00  0.00     0.061 C
HETATM   19  C11 UNL     1      -6.234  37.590  29.485  1.00  0.00     0.139 C
HETATM   20  C12 UNL     1      -5.609  38.822  30.076  1.00  0.00     0.165 C
HETATM   21  C13 UNL     1      -4.557  39.294  29.057  1.00  0.00     0.144 C
BRANCH  17  22
HETATM   22  N4  UNL     1      -5.577  38.185  26.162  1.00  0.00    -0.072 N
ATOM     23  H43 UNL     1      -5.949  38.436  25.246  1.00  0.00     0.274 HD
ATOM     24  H42 UNL     1      -4.637  38.554  26.017  1.00  0.00     0.274 HD
ATOM     25  H41 UNL     1      -5.598  37.183  26.350  1.00  0.00     0.274 HD
ENDBRANCH  17  22
BRANCH  19  26
HETATM   26  N5  UNL     1      -7.182  37.071  30.456  1.00  0.00    -0.096 NA
BRANCH  26  27
HETATM   27  O3  UNL     1      -8.076  36.243  29.920  1.00  0.00    -0.296 OA
ATOM     28  H3  UNL     1      -8.508  35.695  30.565  1.00  0.00     0.238 HD
ENDBRANCH  26  27
ENDBRANCH  19  26
BRANCH  20  29
HETATM   29  O4  UNL     1      -6.495  39.847  30.305  1.00  0.00    -0.392 OA
ATOM     30  H4  UNL     1      -6.830  39.879  31.193  1.00  0.00     0.210 HD
ENDBRANCH  20  29
BRANCH  21  31
HETATM   31  N6  UNL     1      -3.851  40.374  29.694  1.00  0.00    -0.369 N
ATOM     32  H6  UNL     1      -4.338  41.051  30.282  1.00  0.00     0.161 HD
BRANCH  31  33
HETATM   33  C14 UNL     1      -2.441  40.463  29.472  1.00  0.00     0.091 C
HETATM   34  N7  UNL     1      -1.808  39.609  28.769  1.00  0.00    -0.375 N
HETATM   35  C15 UNL     1      -0.362  39.827  28.628  1.00  0.00     0.174 C
ATOM     36  H7  UNL     1      -2.279  38.818  28.331  1.00  0.00     0.160 HD
HETATM   37  C16 UNL     1       0.140  40.065  30.051  1.00  0.00     0.295 C
HETATM   38  N9  UNL     1      -0.376  41.329  30.473  1.00  0.00    -0.388 N
HETATM   39  C17 UNL     1      -1.723  41.599  30.086  1.00  0.00     0.192 C
ATOM     40  H9  UNL     1       0.180  41.992  31.012  1.00  0.00     0.155 HD
BRANCH  37  41
HETATM   41  N8  UNL     1      -0.271  38.985  30.922  1.00  0.00    -0.057 N
ATOM     42  H83 UNL     1      -1.010  39.274  31.563  1.00  0.00     0.276 HD
ATOM     43  H82 UNL     1      -0.782  38.262  30.415  1.00  0.00     0.276 HD
ATOM     44  H81 UNL     1       0.533  38.601  31.420  1.00  0.00     0.276 HD
ENDBRANCH  37  41
ENDBRANCH  31  33
ENDBRANCH  21  31
ENDBRANCH  15  16
ENDBRANCH   9  15
TORSDOF 11
ENDMDL