MODEL 1
REMARK VINA RESULT: -7.382708127      0.000      0.000
REMARK  12 active torsions:
REMARK  status: ('A' for Active; 'I' for Inactive)
REMARK    1  A    between atoms: O1_2  and  C2_3
REMARK    2  A    between atoms: C2_3  and  C3_5
REMARK    3  A    between atoms: C6_14  and  N4_15
REMARK    4  A    between atoms: N5_17  and  N6_19
REMARK    5  A    between atoms: N6_19  and  C7_21
REMARK    6  A    between atoms: C7_21  and  N7_22
REMARK    7  A    between atoms: C7_21  and  C8_26
REMARK    8  A    between atoms: C11_29  and  N8_30
REMARK    9  A    between atoms: C13_38  and  O3_39
REMARK   10  A    between atoms: C15_45  and  O5_46
REMARK   11  A    between atoms: C15_45  and  C16_48
REMARK   12  A    between atoms: C16_48  and  O6_49
ROOT
HETATM    1  C3  UNL     1      -4.506  36.360  29.803  1.00  0.00     0.229 C
HETATM    2  N1  UNL     1      -3.590  37.445  29.833  1.00  0.00    -0.357 N
ATOM      3  H1  UNL     1      -2.667  37.225  30.209  1.00  0.00     0.162 HD
HETATM    4  C4  UNL     1      -3.754  38.673  29.455  1.00  0.00     0.137 C
HETATM    5  C5  UNL     1      -2.624  39.552  29.612  1.00  0.00     0.144 A
HETATM    6  N2  UNL     1      -1.448  39.059  30.138  1.00  0.00    -0.279 N
ATOM      7  H2  UNL     1      -1.403  38.075  30.403  1.00  0.00     0.188 HD
HETATM    8  N3  UNL     1      -0.394  39.805  30.308  1.00  0.00    -0.130 N
ATOM      9  H3  UNL     1       0.440  39.369  30.702  1.00  0.00     0.205 HD
HETATM   10  C6  UNL     1      -0.333  41.114  29.998  1.00  0.00     0.714 A
HETATM   11  N10 UNL     1      -1.452  41.639  29.483  1.00  0.00    -0.165 N
ATOM     12  H10 UNL     1      -1.469  42.626  29.226  1.00  0.00     0.186 HD
HETATM   13  C13 UNL     1      -2.583  40.872  29.293  1.00  0.00     0.187 A
HETATM   14  N11 UNL     1      -5.024  38.976  28.929  1.00  0.00    -0.309 N
ATOM     15  H11 UNL     1      -5.226  39.923  28.610  1.00  0.00     0.170 HD
HETATM   16  C14 UNL     1      -6.043  37.952  28.837  1.00  0.00     0.262 C
HETATM   17  O4  UNL     1      -6.914  38.048  27.961  1.00  0.00    -0.270 OA
HETATM   18  C15 UNL     1      -5.939  36.859  29.829  1.00  0.00     0.189 C
ENDROOT
BRANCH  10  19
HETATM   19  N4  UNL     1       0.858  41.830  30.203  1.00  0.00    -0.116 N
HETATM   20  N5  UNL     1       1.151  42.825  30.815  1.00  0.00    -0.231 N
ATOM     21  H5  UNL     1       2.136  43.080  30.752  1.00  0.00     0.208 HD
ATOM     22  H4  UNL     1       1.656  41.413  29.725  1.00  0.00     0.207 HD
BRANCH  20  23
HETATM   23  N6  UNL     1       0.404  43.667  31.575  1.00  0.00    -0.287 N
ATOM     24  H6  UNL     1       0.059  43.279  32.452  1.00  0.00     0.184 HD
BRANCH  23  25
HETATM   25  C7  UNL     1       0.034  45.033  31.312  1.00  0.00     0.332 C
BRANCH  25  26
HETATM   26  N7  UNL     1       0.323  45.335  29.915  1.00  0.00    -0.053 N
ATOM     27  H73 UNL     1      -0.426  45.040  29.289  1.00  0.00     0.277 HD
ATOM     28  H72 UNL     1       0.287  46.335  29.717  1.00  0.00     0.277 HD
ATOM     29  H71 UNL     1       1.222  44.919  29.670  1.00  0.00     0.277 HD
ENDBRANCH  25  26
BRANCH  25  30
HETATM   30  C8  UNL     1      -1.387  45.254  31.637  1.00  0.00     0.008 A
HETATM   31  C9  UNL     1      -1.750  46.265  32.490  1.00  0.00     0.016 A
HETATM   32  C10 UNL     1      -3.100  46.490  32.806  1.00  0.00     0.049 A
HETATM   33  C11 UNL     1      -4.042  45.642  32.215  1.00  0.00     0.098 A
HETATM   34  N9  UNL     1      -3.683  44.652  31.378  1.00  0.00    -0.352 N
HETATM   35  C12 UNL     1      -2.357  44.458  31.089  1.00  0.00     0.100 A
ATOM     36  H9  UNL     1      -4.393  44.049  30.961  1.00  0.00     0.166 HD
BRANCH  33  37
HETATM   37  N8  UNL     1      -5.272  45.866  32.523  1.00  0.00    -0.385 N
ATOM     38  H82 UNL     1      -6.040  45.638  31.891  1.00  0.00     0.157 HD
ATOM     39  H81 UNL     1      -5.434  46.284  33.440  1.00  0.00     0.157 HD
ENDBRANCH  33  37
ENDBRANCH  25  30
ENDBRANCH  23  25
ENDBRANCH  20  23
ENDBRANCH  10  19
BRANCH  13  40
HETATM   40  O3  UNL     1      -3.707  41.485  28.755  1.00  0.00    -0.344 OA
ATOM     41  H3  UNL     1      -4.149  42.170  29.244  1.00  0.00     0.219 HD
ENDBRANCH  13  40
BRANCH   1  42
HETATM   42  C2  UNL     1      -4.210  35.379  28.756  1.00  0.00     0.285 C
HETATM   43  O2  UNL     1      -4.068  35.830  27.575  1.00  0.00    -0.263 OA
BRANCH  42  44
HETATM   44  O1  UNL     1      -4.098  34.055  29.062  1.00  0.00    -0.325 OA
HETATM   45  C1  UNL     1      -3.290  33.615  30.108  1.00  0.00     0.213 C
ENDBRANCH  42  44
ENDBRANCH   1  42
BRANCH  18  46
HETATM   46  O5  UNL     1      -6.084  37.438  31.105  1.00  0.00    -0.376 OA
ATOM     47  H5  UNL     1      -5.677  36.814  31.695  1.00  0.00     0.211 HD
ENDBRANCH  18  46
BRANCH  18  48
HETATM   48  C16 UNL     1      -6.963  35.794  29.628  1.00  0.00     0.214 C
BRANCH  48  49
HETATM   49  O6  UNL     1      -8.190  36.338  30.084  1.00  0.00    -0.397 OA
ATOM     50  H6  UNL     1      -8.277  37.184  29.660  1.00  0.00     0.209 HD
ENDBRANCH  48  49
ENDBRANCH  18  48
TORSDOF 12
ENDMDL