MODEL 3
REMARK VINA RESULT: -7.754676214      2.420      4.422
REMARK  11 active torsions:
REMARK  status: ('A' for Active; 'I' for Inactive)
REMARK    1  A    between atoms: C4_6  and  N2_7
REMARK    2  A    between atoms: N2_7  and  N3_8
REMARK    3  A    between atoms: N2_7  and  C5_11
REMARK    4  A    between atoms: C8_24  and  C9_25
REMARK    5  A    between atoms: C9_25  and  N10_26
REMARK    6  A    between atoms: N10_26  and  N11_27
REMARK    7  A    between atoms: N10_26  and  C10_30
REMARK    8  A    between atoms: C10_30  and  O1_31
REMARK    9  A    between atoms: C10_30  and  C11_33
REMARK   10  A    between atoms: C13_39  and  C14_40
REMARK   11  A    between atoms: C14_40  and  N14_41
ROOT
HETATM    1  C1  UNL     1      53.195  22.864  50.855  1.00  0.00     0.065 C
HETATM    2  C2  UNL     1      52.347  22.254  49.848  1.00  0.00     0.136 C
HETATM    3  C3  UNL     1      51.535  21.108  50.459  1.00  0.00     0.065 C
HETATM    4  N1  UNL     1      51.331  23.134  49.226  1.00  0.00    -0.196 N
ATOM      5  H1  UNL     1      50.357  22.928  49.447  1.00  0.00     0.180 HD
HETATM    6  C4  UNL     1      51.538  24.134  48.436  1.00  0.00     0.712 C
HETATM    7  N8  UNL     1      52.810  24.586  47.979  1.00  0.00    -0.217 N
ATOM      8  H8  UNL     1      52.864  25.594  47.829  1.00  0.00     0.178 HD
HETATM    9  C6  UNL     1      54.049  23.876  47.685  1.00  0.00     0.216 C
HETATM   10  C7  UNL     1      53.808  22.419  47.817  1.00  0.00     0.121 A
HETATM   11  N9  UNL     1      54.261  21.544  46.939  1.00  0.00    -0.328 N
ATOM     12  H9  UNL     1      54.844  21.785  46.137  1.00  0.00     0.169 HD
HETATM   13  C8  UNL     1      53.862  20.305  47.229  1.00  0.00     0.134 A
HETATM   14  N15 UNL     1      53.126  20.472  48.368  1.00  0.00    -0.279 N
ATOM     15  H15 UNL     1      52.662  19.719  48.876  1.00  0.00     0.189 HD
HETATM   16  N16 UNL     1      53.100  21.708  48.712  1.00  0.00    -0.247 N
ENDROOT
BRANCH  13  17
HETATM   17  C9  UNL     1      53.999  19.003  46.614  1.00  0.00     0.135 C
BRANCH  17  18
HETATM   18  N10 UNL     1      54.873  18.051  47.138  1.00  0.00    -0.175 NA
BRANCH  18  19
HETATM   19  N11 UNL     1      55.364  18.360  48.440  1.00  0.00    -0.357 NA
ATOM     20 2H11 UNL     1      55.039  19.304  48.652  1.00  0.00     0.171 HD
ATOM     21 1H11 UNL     1      55.149  17.658  49.147  1.00  0.00     0.171 HD
ENDBRANCH  18  19
BRANCH  18  22
HETATM   22  C10 UNL     1      56.038  17.766  46.320  1.00  0.00     0.268 C
BRANCH  22  23
HETATM   23  O1  UNL     1      55.824  18.426  45.082  1.00  0.00    -0.373 OA
ATOM     24  H1  UNL     1      55.091  17.985  44.668  1.00  0.00     0.212 HD
ENDBRANCH  22  23
BRANCH  22  25
HETATM   25  C11 UNL     1      55.837  16.310  45.922  1.00  0.00     0.080 A
HETATM   26  N12 UNL     1      55.269  15.926  44.745  1.00  0.00    -0.351 N
HETATM   27  C12 UNL     1      55.424  14.571  44.674  1.00  0.00     0.181 A
ATOM     28  H12 UNL     1      54.819  16.528  44.056  1.00  0.00     0.166 HD
HETATM   29  N13 UNL     1      56.069  14.119  45.779  1.00  0.00    -0.353 N
HETATM   30  C13 UNL     1      56.305  15.232  46.552  1.00  0.00     0.062 A
ATOM     31  H13 UNL     1      56.325  13.155  45.991  1.00  0.00     0.166 HD
BRANCH  30  32
HETATM   32  C14 UNL     1      56.776  15.284  47.966  1.00  0.00     0.288 C
BRANCH  32  33
HETATM   33  N14 UNL     1      55.713  15.406  48.905  1.00  0.00    -0.074 N
ATOM     34 3H14 UNL     1      55.247  16.309  48.812  1.00  0.00     0.274 HD
ATOM     35 2H14 UNL     1      54.937  14.792  48.658  1.00  0.00     0.274 HD
ATOM     36 1H14 UNL     1      56.010  15.249  49.869  1.00  0.00     0.274 HD
ENDBRANCH  32  33
ENDBRANCH  30  32
ENDBRANCH  22  25
ENDBRANCH  18  22
ENDBRANCH  17  18
ENDBRANCH  13  17
BRANCH   6  37
HETATM   37  N2  UNL     1      50.394  24.854  47.950  1.00  0.00     0.085 N
BRANCH  37  38
HETATM   38  N3  UNL     1      49.588  25.559  48.840  1.00  0.00    -0.309 N
ATOM     39  H32 UNL     1      49.810  25.652  49.831  1.00  0.00     0.178 HD
ATOM     40  H31 UNL     1      48.739  26.016  48.505  1.00  0.00     0.178 HD
ENDBRANCH  37  38
BRANCH  37  41
HETATM   41  C5  UNL     1      50.129  24.797  46.539  1.00  0.00     0.743 A
HETATM   42  N4  UNL     1      50.390  25.716  45.637  1.00  0.00    -0.114 N
HETATM   43  N5  UNL     1      49.982  25.307  44.423  1.00  0.00     0.006 NA
ATOM     44  H4  UNL     1      50.838  26.612  45.831  1.00  0.00     0.203 HD
HETATM   45  N6  UNL     1      49.457  24.100  44.620  1.00  0.00     0.006 NA
HETATM   46  N7  UNL     1      49.537  23.770  45.925  1.00  0.00    -0.114 N
ATOM     47  H7  UNL     1      49.209  22.907  46.359  1.00  0.00     0.203 HD
ENDBRANCH  37  41
ENDBRANCH   6  37
TORSDOF 11
ENDMDL