MODEL 5
REMARK VINA RESULT: -8.738146630      1.323      1.398
REMARK  12 active torsions:
REMARK  status: ('A' for Active; 'I' for Inactive)
REMARK    1  A    between atoms: N1_1  and  C1_4
REMARK    2  A    between atoms: C2_5  and  O1_6
REMARK    3  A    between atoms: C3_8  and  N2_9
REMARK    4  A    between atoms: N2_9  and  C4_11
REMARK    5  A    between atoms: C4_11  and  N3_12
REMARK       I    between atoms: N3_12  and  C5_14
REMARK       I    between atoms: C5_14  and  N5_16
REMARK    6  A    between atoms: N5_16  and  C6_18
REMARK    7  A    between atoms: C6_18  and  O2_19
REMARK    8  A    between atoms: C6_18  and  C7_21
REMARK    9  A    between atoms: C7_21  and  N6_22
REMARK   10  A    between atoms: C7_21  and  C8_26
REMARK       I    between atoms: C8_26  and  N7_28
REMARK   11  A    between atoms: C13_39  and  O4_40
REMARK   12  A    between atoms: N12_42  and  N13_43
ROOT
HETATM    1  N2  UNL     1      52.626  21.965  46.408  1.00  0.00    -0.335 N
ATOM      2  H2  UNL     1      53.521  21.846  45.933  1.00  0.00     0.168 HD
ENDROOT
BRANCH   1   3
HETATM    3  C3  UNL     1      52.200  23.291  46.607  1.00  0.00     0.161 A
HETATM    4  C2  UNL     1      51.130  23.860  45.932  1.00  0.00     0.157 A
HETATM    5  C1  UNL     1      51.003  25.162  46.375  1.00  0.00     0.160 A
HETATM    6  N10 UNL     1      51.981  25.326  47.282  1.00  0.00    -0.215 N
HETATM    7  N9  UNL     1      52.697  24.207  47.420  1.00  0.00    -0.258 N
HETATM    8  C12 UNL     1      52.517  26.314  48.159  1.00  0.00     0.159 A
HETATM    9  C15 UNL     1      53.747  24.410  48.406  1.00  0.00     0.215 A
HETATM   10  C14 UNL     1      53.589  25.806  48.861  1.00  0.00     0.103 A
HETATM   11  N12 UNL     1      54.089  26.741  49.685  1.00  0.00    -0.224 N
HETATM   12  C13 UNL     1      53.341  27.841  49.510  1.00  0.00     0.244 A
HETATM   13  N11 UNL     1      52.389  27.598  48.592  1.00  0.00    -0.303 N
ATOM     14  H11 UNL     1      51.687  28.266  48.273  1.00  0.00     0.171 HD
BRANCH   4  15
HETATM   15  O1  UNL     1      50.319  23.237  44.973  1.00  0.00    -0.354 OA
ATOM     16  H1  UNL     1      50.619  22.650  44.287  1.00  0.00     0.218 HD
ENDBRANCH   4  15
BRANCH   5  17
HETATM   17  N1  UNL     1      50.115  26.006  45.972  1.00  0.00    -0.382 N
ATOM     18  H12 UNL     1      50.201  26.753  45.284  1.00  0.00     0.157 HD
ATOM     19  H11 UNL     1      49.149  26.050  46.299  1.00  0.00     0.157 HD
ENDBRANCH   5  17
BRANCH  11  20
HETATM   20  N13 UNL     1      55.176  26.642  50.571  1.00  0.00    -0.335 N
ATOM     21 2H13 UNL     1      55.205  26.848  51.569  1.00  0.00     0.177 HD
ATOM     22 1H13 UNL     1      56.113  26.336  50.311  1.00  0.00     0.177 HD
ENDBRANCH  11  20
BRANCH  12  23
HETATM   23  O4  UNL     1      53.499  29.075  50.167  1.00  0.00    -0.331 OA
ATOM     24  H4  UNL     1      52.807  29.507  50.653  1.00  0.00     0.221 HD
ENDBRANCH  12  23
ENDBRANCH   1   3
BRANCH   1  25
HETATM   25  C4  UNL     1      52.026  20.898  46.751  1.00  0.00     0.184 C
BRANCH  25  26
HETATM   26  N3  UNL     1      52.767  19.719  46.954  1.00  0.00    -0.327 N
HETATM   27  C5  UNL     1      53.081  18.986  45.957  1.00  0.00     0.191 C
HETATM   28  N4  UNL     1      52.681  19.368  44.658  1.00  0.00    -0.063 NA
HETATM   29  N5  UNL     1      53.835  17.784  46.173  1.00  0.00    -0.336 N
ATOM     30  H5  UNL     1      53.395  17.000  46.654  1.00  0.00     0.164 HD
ATOM     31  H3  UNL     1      53.051  19.449  47.896  1.00  0.00     0.169 HD
BRANCH  29  32
HETATM   32  C6  UNL     1      55.181  17.660  45.732  1.00  0.00     0.260 C
BRANCH  32  33
HETATM   33  O2  UNL     1      56.139  17.434  46.679  1.00  0.00    -0.374 OA
ATOM     34  H2  UNL     1      56.929  16.983  46.407  1.00  0.00     0.212 HD
ENDBRANCH  32  33
BRANCH  32  35
HETATM   35  C7  UNL     1      55.284  16.747  44.522  1.00  0.00     0.323 C
BRANCH  35  36
HETATM   36  N6  UNL     1      54.758  17.430  43.362  1.00  0.00    -0.062 N
ATOM     37  H63 UNL     1      54.410  18.362  43.585  1.00  0.00     0.275 HD
ATOM     38  H62 UNL     1      55.491  17.702  42.708  1.00  0.00     0.275 HD
ATOM     39  H61 UNL     1      54.045  16.847  42.922  1.00  0.00     0.275 HD
ENDBRANCH  35  36
BRANCH  35  40
HETATM   40  C8  UNL     1      56.618  16.181  44.335  1.00  0.00     0.264 C
HETATM   41  O3  UNL     1      57.587  17.044  44.358  1.00  0.00    -0.270 OA
HETATM   42  N7  UNL     1      56.981  14.828  44.133  1.00  0.00    -0.286 N
HETATM   43  C9  UNL     1      58.271  14.382  43.961  1.00  0.00     0.118 A
HETATM   44  C11 UNL     1      56.219  13.758  44.066  1.00  0.00     0.190 A
HETATM   45  C10 UNL     1      58.264  13.024  43.793  1.00  0.00     0.106 A
HETATM   46  N8  UNL     1      56.994  12.642  43.857  1.00  0.00    -0.360 N
ATOM     47  H8  UNL     1      56.652  11.685  43.768  1.00  0.00     0.166 HD
ENDBRANCH  35  40
ENDBRANCH  32  35
ENDBRANCH  29  32
ENDBRANCH  25  26
ENDBRANCH   1  25
TORSDOF 12
ENDMDL