MODEL 2
REMARK VINA RESULT: -7.938353889      3.452      6.753
REMARK  10 active torsions:
REMARK  status: ('A' for Active; 'I' for Inactive)
REMARK       I    between atoms: C2_2  and  N1_4
REMARK    1  A    between atoms: N1_4  and  C3_6
REMARK    2  A    between atoms: C3_6  and  O2_7
REMARK    3  A    between atoms: C3_6  and  C4_9
REMARK    4  A    between atoms: N3_12  and  C6_13
REMARK    5  A    between atoms: C6_13  and  C7_14
REMARK    6  A    between atoms: C7_14  and  C9_21
REMARK    7  A    between atoms: N4_15  and  O3_17
REMARK    8  A    between atoms: O3_17  and  C8_18
REMARK    9  A    between atoms: C13_32  and  N9_33
REMARK   10  A    between atoms: C14_38  and  N11_39
ROOT
HETATM    1  C4  UNL     1      51.350  24.900  49.151  1.00  0.00     0.142 A
HETATM    2  C5  UNL     1      52.502  24.141  48.844  1.00  0.00     0.163 A
HETATM    3  N2  UNL     1      53.526  23.927  49.802  1.00  0.00    -0.080 NA
HETATM    4  N3  UNL     1      52.480  23.692  47.604  1.00  0.00    -0.161 N
HETATM    5  C12 UNL     1      51.311  24.141  47.064  1.00  0.00     0.722 A
HETATM    6  N8  UNL     1      50.828  23.914  45.815  1.00  0.00    -0.021 N
ATOM      7  H8  UNL     1      51.367  23.369  45.141  1.00  0.00     0.203 HD
HETATM    8  C13 UNL     1      49.648  24.411  45.487  1.00  0.00     0.705 A
HETATM    9  N10 UNL     1      48.960  25.122  46.388  1.00  0.00    -0.021 N
ATOM     10  H10 UNL     1      48.049  25.505  46.136  1.00  0.00     0.203 HD
HETATM   11  C14 UNL     1      49.456  25.341  47.632  1.00  0.00     0.712 A
HETATM   12  N12 UNL     1      50.642  24.855  47.985  1.00  0.00     0.028 N
ENDROOT
BRANCH   4  13
HETATM   13  C6  UNL     1      53.479  22.873  46.898  1.00  0.00     0.210 C
BRANCH  13  14
HETATM   14  C7  UNL     1      53.275  21.445  47.145  1.00  0.00     0.082 C
HETATM   15  N4  UNL     1      52.512  20.816  46.279  1.00  0.00    -0.257 N
ATOM     16  H4  UNL     1      52.108  21.332  45.497  1.00  0.00     0.195 HD
BRANCH  15  17
HETATM   17  O3  UNL     1      52.252  19.476  46.410  1.00  0.00    -0.183 OA
BRANCH  17  18
HETATM   18  C8  UNL     1      52.946  18.619  45.550  1.00  0.00     0.394 C
HETATM   19  N5  UNL     1      53.044  18.939  44.173  1.00  0.00    -0.031 NA
HETATM   20  O4  UNL     1      53.483  17.571  45.972  1.00  0.00    -0.240 OA
ENDBRANCH  17  18
ENDBRANCH  15  17
BRANCH  14  21
HETATM   21  C9  UNL     1      53.832  20.681  48.240  1.00  0.00     0.106 A
HETATM   22  N6  UNL     1      53.255  20.505  49.463  1.00  0.00    -0.238 N
HETATM   23  O5  UNL     1      54.040  19.764  50.181  1.00  0.00    -0.156 OA
ATOM     24  H6  UNL     1      52.359  20.889  49.762  1.00  0.00     0.197 HD
HETATM   25  N7  UNL     1      55.098  19.424  49.552  1.00  0.00    -0.244 N
HETATM   26  C10 UNL     1      55.011  19.986  48.305  1.00  0.00     0.061 A
ATOM     27  H7  UNL     1      55.860  18.847  49.908  1.00  0.00     0.196 HD
HETATM   28  C11 UNL     1      56.024  19.855  47.233  1.00  0.00     0.073 C
ENDBRANCH  14  21
ENDBRANCH  13  14
ENDBRANCH   4  13
BRANCH   1  29
HETATM   29  C3  UNL     1      51.045  25.477  50.447  1.00  0.00     0.276 C
BRANCH  29  30
HETATM   30  N1  UNL     1      50.982  24.619  51.591  1.00  0.00    -0.330 N
HETATM   31  C2  UNL     1      50.635  25.180  52.880  1.00  0.00     0.215 C
HETATM   32  C1  UNL     1      50.576  24.272  54.051  1.00  0.00     0.117 C
HETATM   33  O1  UNL     1      50.393  26.386  53.012  1.00  0.00    -0.274 OA
ATOM     34  H1  UNL     1      51.179  23.622  51.499  1.00  0.00     0.165 HD
ENDBRANCH  29  30
BRANCH  29  35
HETATM   35  O2  UNL     1      51.951  26.564  50.727  1.00  0.00    -0.371 OA
ATOM     36  H2  UNL     1      51.512  27.196  51.284  1.00  0.00     0.212 HD
ENDBRANCH  29  35
ENDBRANCH   1  29
BRANCH   8  37
HETATM   37  N9  UNL     1      49.138  24.230  44.317  1.00  0.00    -0.234 N
ATOM     38  H92 UNL     1      49.046  25.030  43.691  1.00  0.00     0.174 HD
ATOM     39  H91 UNL     1      48.825  23.311  44.005  1.00  0.00     0.174 HD
ENDBRANCH   8  37
BRANCH  11  40
HETATM   40  N11 UNL     1      48.730  25.968  48.473  1.00  0.00    -0.233 N
ATOM     41 2H11 UNL     1      47.888  25.540  48.858  1.00  0.00     0.174 HD
ATOM     42 1H11 UNL     1      48.984  26.926  48.714  1.00  0.00     0.174 HD
ENDBRANCH  11  40
TORSDOF 10
ENDMDL