MODEL 1
REMARK VINA RESULT: -7.621858543      0.000      0.000
REMARK  12 active torsions:
REMARK  status: ('A' for Active; 'I' for Inactive)
REMARK    1  A    between atoms: C2_2  and  N1_3
REMARK    2  A    between atoms: C2_2  and  C4_11
REMARK    3  A    between atoms: N1_3  and  N2_5
REMARK    4  A    between atoms: N2_5  and  C3_7
REMARK    5  A    between atoms: C3_7  and  N3_8
REMARK    6  A    between atoms: C4_11  and  C12_35
REMARK       I    between atoms: N4_12  and  C5_14
REMARK    7  A    between atoms: C5_14  and  C6_16
REMARK    8  A    between atoms: N5_19  and  O3_20
REMARK    9  A    between atoms: C10_27  and  C11_28
REMARK   10  A    between atoms: C11_28  and  O4_29
REMARK   11  A    between atoms: C11_28  and  O5_31
REMARK   12  A    between atoms: C11_28  and  O6_33
ROOT
HETATM    1  C4  UNL     1      57.509  17.092  48.615  1.00  0.00     0.082 C
HETATM    2  N4  UNL     1      57.922  16.378  47.711  1.00  0.00    -0.325 N
ATOM      3  H4  UNL     1      58.568  16.872  47.096  1.00  0.00     0.169 HD
HETATM    4  C5  UNL     1      57.731  15.078  47.320  1.00  0.00     0.235 C
HETATM    5  O1  UNL     1      58.322  14.150  47.995  1.00  0.00    -0.272 OA
ENDROOT
BRANCH   1   6
HETATM    6  C2  UNL     1      58.010  18.536  48.663  1.00  0.00     0.149 C
HETATM    7  C1  UNL     1      59.123  18.657  47.663  1.00  0.00     0.040 C
BRANCH   6   8
HETATM    8  N1  UNL     1      56.932  19.446  48.474  1.00  0.00    -0.318 N
ATOM      9  H1  UNL     1      56.595  20.015  49.250  1.00  0.00     0.181 HD
BRANCH   8  10
HETATM   10  N2  UNL     1      56.348  19.547  47.225  1.00  0.00    -0.255 N
ATOM     11  H2  UNL     1      56.852  19.142  46.436  1.00  0.00     0.198 HD
BRANCH  10  12
HETATM   12  C3  UNL     1      55.238  20.102  46.983  1.00  0.00     0.060 C
BRANCH  12  13
HETATM   13  N3  UNL     1      54.014  20.416  46.809  1.00  0.00    -0.351 N
ATOM     14  H32 UNL     1      54.143  20.428  45.797  1.00  0.00     0.167 HD
ATOM     15  H31 UNL     1      53.027  20.660  46.890  1.00  0.00     0.167 HD
ENDBRANCH  12  13
ENDBRANCH  10  12
ENDBRANCH   8  10
ENDBRANCH   6   8
ENDBRANCH   1   6
BRANCH   1  16
HETATM   16  C12 UNL     1      56.571  16.738  49.672  1.00  0.00     0.154 A
HETATM   17  N8  UNL     1      55.527  15.860  49.536  1.00  0.00    -0.239 N
HETATM   18  O7  UNL     1      54.883  15.743  50.624  1.00  0.00    -0.199 OA
ATOM     19  H8  UNL     1      55.298  15.365  48.674  1.00  0.00     0.196 HD
HETATM   20  C13 UNL     1      55.423  16.499  51.528  1.00  0.00     0.242 A
HETATM   21  N9  UNL     1      55.078  16.670  52.758  1.00  0.00    -0.364 N
HETATM   22  N10 UNL     1      56.480  17.128  50.946  1.00  0.00    -0.304 N
ATOM     23  H92 UNL     1      54.286  16.199  53.194  1.00  0.00     0.159 HD
ATOM     24  H91 UNL     1      55.503  17.266  53.470  1.00  0.00     0.159 HD
ATOM     25  H10 UNL     1      57.103  17.790  51.409  1.00  0.00     0.171 HD
ENDBRANCH   1  16
BRANCH   4  26
HETATM   26  C6  UNL     1      56.905  14.625  46.180  1.00  0.00     0.170 C
HETATM   27  C7  UNL     1      55.778  15.578  45.986  1.00  0.00     0.124 A
HETATM   28  O2  UNL     1      54.698  16.079  46.533  1.00  0.00    -0.210 OA
HETATM   29  C9  UNL     1      55.894  16.186  44.748  1.00  0.00     0.108 A
HETATM   30  N5  UNL     1      54.130  16.942  45.752  1.00  0.00    -0.105 N
HETATM   31  C8  UNL     1      54.822  17.066  44.609  1.00  0.00     0.198 A
HETATM   32  N6  UNL     1      54.552  17.897  43.489  1.00  0.00    -0.075 NA
HETATM   33  N7  UNL     1      57.052  15.681  44.100  1.00  0.00    -0.372 N
HETATM   34  C10 UNL     1      57.595  14.579  44.864  1.00  0.00     0.194 C
ATOM     35  H7  UNL     1      57.442  16.040  43.228  1.00  0.00     0.160 HD
BRANCH  30  36
HETATM   36  O3  UNL     1      52.969  17.635  46.067  1.00  0.00    -0.261 OA
ATOM     37  H3  UNL     1      52.265  17.804  45.453  1.00  0.00     0.247 HD
ENDBRANCH  30  36
BRANCH  34  38
HETATM   38  C11 UNL     1      57.164  13.312  44.110  1.00  0.00     0.298 C
BRANCH  38  39
HETATM   39  O4  UNL     1      56.025  13.530  43.361  1.00  0.00    -0.342 OA
ATOM     40  H4  UNL     1      55.996  12.967  42.596  1.00  0.00     0.215 HD
ENDBRANCH  38  39
BRANCH  38  41
HETATM   41  O5  UNL     1      58.241  12.962  43.296  1.00  0.00    -0.342 OA
ATOM     42  H5  UNL     1      58.384  12.033  43.435  1.00  0.00     0.215 HD
ENDBRANCH  38  41
BRANCH  38  43
HETATM   43  O6  UNL     1      56.970  12.284  45.037  1.00  0.00    -0.342 OA
ATOM     44  H6  UNL     1      56.440  11.607  44.634  1.00  0.00     0.215 HD
ENDBRANCH  38  43
ENDBRANCH  34  38
ENDBRANCH   4  26
TORSDOF 12
ENDMDL