MODEL 3
REMARK VINA RESULT: -7.481954951      2.345      5.927
REMARK  10 active torsions:
REMARK  status: ('A' for Active; 'I' for Inactive)
REMARK    1  A    between atoms: O1_2  and  C2_3
REMARK    2  A    between atoms: C3_6  and  N2_7
REMARK    3  A    between atoms: C6_12  and  N4_13
REMARK    4  A    between atoms: C7_16  and  C8_17
REMARK    5  A    between atoms: C10_21  and  N7_22
REMARK    6  A    between atoms: C12_30  and  C13_31
REMARK    7  A    between atoms: C13_31  and  N11_35
REMARK    8  A    between atoms: N11_35  and  O2_37
REMARK    9  A    between atoms: O2_37  and  C14_38
REMARK   10  A    between atoms: C15_43  and  N14_44
ROOT
HETATM    1  N4  UNL     1      52.487  22.748  48.669  1.00  0.00    -0.066 N
HETATM    2  N5  UNL     1      53.005  21.637  48.251  1.00  0.00    -0.262 N
ATOM      3  H5  UNL     1      53.603  21.112  48.889  1.00  0.00     0.190 HD
HETATM    4  C7  UNL     1      52.797  21.139  47.019  1.00  0.00     0.134 A
HETATM    5  N9  UNL     1      52.015  21.825  46.187  1.00  0.00    -0.334 N
ATOM      6  H9  UNL     1      51.847  21.460  45.249  1.00  0.00     0.168 HD
HETATM    7  C12 UNL     1      51.427  23.016  46.557  1.00  0.00     0.126 A
HETATM    8  C15 UNL     1      51.674  23.481  47.832  1.00  0.00     0.170 A
ENDROOT
BRANCH   1   9
HETATM    9  C6  UNL     1      52.731  23.236  49.972  1.00  0.00     0.723 A
HETATM   10  N3  UNL     1      53.838  23.940  50.292  1.00  0.00    -0.020 N
HETATM   11  C3  UNL     1      54.079  24.409  51.528  1.00  0.00     0.697 A
ATOM     12  H3  UNL     1      54.524  24.124  49.561  1.00  0.00     0.203 HD
HETATM   13  N1  UNL     1      53.193  24.177  52.494  1.00  0.00    -0.154 N
HETATM   14  C2  UNL     1      52.071  23.482  52.236  1.00  0.00     0.252 A
ATOM     15  H1  UNL     1      53.365  24.529  53.436  1.00  0.00     0.188 HD
HETATM   16  N15 UNL     1      51.850  23.022  50.993  1.00  0.00    -0.152 N
ATOM     17  H15 UNL     1      50.996  22.496  50.807  1.00  0.00     0.188 HD
BRANCH  11  18
HETATM   18  N2  UNL     1      55.270  25.155  51.832  1.00  0.00    -0.226 N
HETATM   19  C4  UNL     1      56.410  24.975  50.973  1.00  0.00     0.168 C
HETATM   20  C5  UNL     1      55.303  26.042  52.954  1.00  0.00     0.168 C
ENDBRANCH  11  18
BRANCH  14  21
HETATM   21  O1  UNL     1      51.124  23.219  53.215  1.00  0.00    -0.326 OA
HETATM   22  C1  UNL     1      50.446  24.253  53.874  1.00  0.00     0.213 C
ENDBRANCH  14  21
ENDBRANCH   1   9
BRANCH   8  23
HETATM   23  N14 UNL     1      51.212  24.551  48.322  1.00  0.00    -0.382 N
ATOM     24 2H14 UNL     1      51.111  24.749  49.318  1.00  0.00     0.157 HD
ATOM     25 1H14 UNL     1      50.925  25.256  47.644  1.00  0.00     0.157 HD
ENDBRANCH   8  23
BRANCH   4  26
HETATM   26  C8  UNL     1      53.431  19.877  46.651  1.00  0.00     0.041 A
HETATM   27  C9  UNL     1      53.075  19.198  45.504  1.00  0.00     0.122 A
HETATM   28  N6  UNL     1      53.684  18.051  45.213  1.00  0.00    -0.201 N
HETATM   29  C10 UNL     1      54.639  17.505  45.980  1.00  0.00     0.675 A
ATOM     30  H6  UNL     1      53.410  17.561  44.361  1.00  0.00     0.183 HD
HETATM   31  N8  UNL     1      55.000  18.161  47.113  1.00  0.00    -0.201 N
HETATM   32  C11 UNL     1      54.417  19.317  47.447  1.00  0.00     0.122 A
ATOM     33  H8  UNL     1      55.723  17.768  47.715  1.00  0.00     0.183 HD
BRANCH  29  34
HETATM   34  N7  UNL     1      55.174  16.398  45.628  1.00  0.00    -0.234 N
ATOM     35  H72 UNL     1      55.948  16.352  44.964  1.00  0.00     0.174 HD
ATOM     36  H71 UNL     1      54.824  15.524  46.019  1.00  0.00     0.174 HD
ENDBRANCH  29  34
ENDBRANCH   4  26
BRANCH   7  37
HETATM   37  C13 UNL     1      50.588  23.715  45.606  1.00  0.00     0.150 C
HETATM   38  N10 UNL     1      51.174  24.473  44.717  1.00  0.00    -0.382 N
ATOM     39 2H10 UNL     1      52.192  24.501  44.779  1.00  0.00     0.157 HD
ATOM     40 1H10 UNL     1      50.583  24.964  44.047  1.00  0.00     0.157 HD
BRANCH  37  41
HETATM   41  N11 UNL     1      49.184  23.676  45.521  1.00  0.00    -0.240 N
ATOM     42  H11 UNL     1      48.607  23.468  46.335  1.00  0.00     0.196 HD
BRANCH  41  43
HETATM   43  O2  UNL     1      48.617  23.934  44.273  1.00  0.00    -0.203 OA
BRANCH  43  44
HETATM   44  C14 UNL     1      47.251  23.716  44.094  1.00  0.00     0.249 C
HETATM   45  N12 UNL     1      46.899  22.965  43.108  1.00  0.00    -0.366 N
ATOM     46 2H12 UNL     1      47.586  22.547  42.482  1.00  0.00     0.159 HD
ATOM     47 1H12 UNL     1      45.900  22.806  42.978  1.00  0.00     0.159 HD
HETATM   48  N13 UNL     1      46.291  24.301  44.970  1.00  0.00    -0.055 NA
ENDBRANCH  43  44
ENDBRANCH  41  43
ENDBRANCH  37  41
ENDBRANCH   7  37
TORSDOF 10
ENDMDL