MODEL 5
REMARK VINA RESULT: -6.877177462      7.794      9.779
REMARK  13 active torsions:
REMARK  status: ('A' for Active; 'I' for Inactive)
REMARK    1  A    between atoms: C2_2  and  N1_3
REMARK    2  A    between atoms: C2_2  and  C12_45
REMARK    3  A    between atoms: N1_3  and  N2_5
REMARK    4  A    between atoms: N2_5  and  C3_7
REMARK    5  A    between atoms: C3_7  and  N3_8
REMARK    6  A    between atoms: C3_7  and  C4_11
REMARK    7  A    between atoms: C5_14  and  N5_15
REMARK    8  A    between atoms: N5_15  and  O1_17
REMARK    9  A    between atoms: N6_19  and  C6_20
REMARK   10  A    between atoms: C8_24  and  C9_25
REMARK       I    between atoms: C9_25  and  N8_27
REMARK   11  A    between atoms: N8_27  and  N9_29
REMARK   12  A    between atoms: N10_32  and  C10_33
REMARK   13  A    between atoms: C12_45  and  O4_49
ROOT
HETATM    1  C4  UNL     1      51.694  24.162  47.460  1.00  0.00     0.182 A
HETATM    2  N4  UNL     1      51.120  23.826  48.629  1.00  0.00    -0.167 N
ATOM      3  H4  UNL     1      50.117  23.684  48.756  1.00  0.00     0.186 HD
HETATM    4  C5  UNL     1      52.032  23.700  49.606  1.00  0.00     0.740 A
HETATM    5  N6  UNL     1      53.213  23.968  49.021  1.00  0.00     0.094 N
HETATM    6  N14 UNL     1      53.028  24.244  47.741  1.00  0.00    -0.246 N
ATOM      7  H14 UNL     1      53.762  24.481  47.073  1.00  0.00     0.190 HD
ENDROOT
BRANCH   5   8
HETATM    8  C6  UNL     1      54.463  23.947  49.698  1.00  0.00     0.727 A
HETATM    9  N7  UNL     1      55.270  22.893  49.912  1.00  0.00    -0.197 N
HETATM   10  C7  UNL     1      56.352  23.310  50.592  1.00  0.00     0.142 A
ATOM     11  H7  UNL     1      55.091  21.936  49.608  1.00  0.00     0.183 HD
HETATM   12  C8  UNL     1      56.224  24.665  50.814  1.00  0.00     0.144 A
HETATM   13  N10 UNL     1      55.067  25.033  50.260  1.00  0.00    -0.117 N
BRANCH  12  14
HETATM   14  C9  UNL     1      57.194  25.493  51.522  1.00  0.00     0.288 C
HETATM   15  O2  UNL     1      56.935  25.986  52.650  1.00  0.00    -0.264 OA
HETATM   16  N8  UNL     1      58.471  25.775  50.966  1.00  0.00    -0.271 N
ATOM     17  H8  UNL     1      58.711  25.389  50.052  1.00  0.00     0.189 HD
BRANCH  16  18
HETATM   18  N9  UNL     1      59.407  26.565  51.636  1.00  0.00    -0.342 N
ATOM     19  H92 UNL     1      59.066  27.359  52.178  1.00  0.00     0.176 HD
ATOM     20  H91 UNL     1      60.407  26.367  51.594  1.00  0.00     0.176 HD
ENDBRANCH  16  18
ENDBRANCH  12  14
BRANCH  13  21
HETATM   21  C10 UNL     1      54.536  26.362  50.256  1.00  0.00     0.196 A
HETATM   22  N11 UNL     1      54.750  27.337  49.344  1.00  0.00    -0.221 N
HETATM   23  O3  UNL     1      54.091  28.408  49.684  1.00  0.00    -0.153 OA
ATOM     24  H11 UNL     1      55.339  27.247  48.516  1.00  0.00     0.198 HD
HETATM   25  N12 UNL     1      53.459  28.172  50.773  1.00  0.00    -0.222 N
HETATM   26  C11 UNL     1      53.686  26.908  51.197  1.00  0.00     0.168 A
ATOM     27  H12 UNL     1      52.866  28.846  51.255  1.00  0.00     0.198 HD
HETATM   28  N13 UNL     1      53.250  26.287  52.228  1.00  0.00    -0.381 N
ATOM     29 2H13 UNL     1      53.421  25.333  52.548  1.00  0.00     0.157 HD
ATOM     30 1H13 UNL     1      52.622  26.691  52.923  1.00  0.00     0.157 HD
ENDBRANCH  13  21
ENDBRANCH   5   8
BRANCH   4  31
HETATM   31  N5  UNL     1      51.811  23.354  50.983  1.00  0.00    -0.096 N
ATOM     32  H5  UNL     1      52.157  22.480  51.381  1.00  0.00     0.213 HD
BRANCH  31  33
HETATM   33  O1  UNL     1      51.174  24.180  51.666  1.00  0.00    -0.276 OA
ATOM     34  H1  UNL     1      51.650  24.601  52.373  1.00  0.00     0.245 HD
ENDBRANCH  31  33
ENDBRANCH   4  31
BRANCH   1  35
HETATM   35  C3  UNL     1      51.046  24.386  46.178  1.00  0.00     0.160 C
BRANCH  35  36
HETATM   36  N2  UNL     1      50.209  25.524  46.035  1.00  0.00    -0.282 N
ATOM     37  H2  UNL     1      50.608  26.456  46.142  1.00  0.00     0.188 HD
BRANCH  36  38
HETATM   38  N1  UNL     1      48.858  25.390  45.753  1.00  0.00    -0.299 N
ATOM     39  H1  UNL     1      48.564  25.624  44.805  1.00  0.00     0.186 HD
BRANCH  38  40
HETATM   40  C2  UNL     1      47.955  25.008  46.547  1.00  0.00     0.072 C
HETATM   41  C1  UNL     1      46.957  23.986  46.079  1.00  0.00     0.074 C
BRANCH  40  42
HETATM   42  C12 UNL     1      47.834  25.511  47.904  1.00  0.00     0.157 C
HETATM   43  N15 UNL     1      46.698  25.487  48.494  1.00  0.00    -0.379 N
ATOM     44 2H15 UNL     1      45.897  25.109  47.988  1.00  0.00     0.158 HD
ATOM     45 1H15 UNL     1      46.614  25.841  49.446  1.00  0.00     0.158 HD
BRANCH  42  46
HETATM   46  O4  UNL     1      48.924  26.026  48.591  1.00  0.00    -0.345 OA
ATOM     47  H4  UNL     1      48.822  26.493  49.413  1.00  0.00     0.219 HD
ENDBRANCH  42  46
ENDBRANCH  40  42
ENDBRANCH  38  40
ENDBRANCH  36  38
ENDBRANCH  35  36
BRANCH  35  48
HETATM   48  N3  UNL     1      51.248  23.556  45.228  1.00  0.00    -0.381 N
ATOM     49  H32 UNL     1      50.478  22.962  44.918  1.00  0.00     0.157 HD
ATOM     50  H31 UNL     1      52.151  23.461  44.763  1.00  0.00     0.157 HD
ENDBRANCH  35  48
ENDBRANCH   1  35
TORSDOF 13
ENDMDL