MODEL 3
REMARK VINA RESULT: -7.603007283      4.465      8.450
REMARK  9 active torsions:
REMARK  status: ('A' for Active; 'I' for Inactive)
REMARK    1  A    between atoms: C2_2  and  N1_3
REMARK    2  A    between atoms: N1_3  and  C3_4
REMARK    3  A    between atoms: N1_3  and  C10_35
REMARK    4  A    between atoms: C3_4  and  C4_5
REMARK    5  A    between atoms: C5_11  and  N4_12
REMARK    6  A    between atoms: N4_12  and  C6_14
REMARK    7  A    between atoms: C7_17  and  N6_18
REMARK    8  A    between atoms: N6_18  and  N7_20
REMARK    9  A    between atoms: C11_38  and  N14_39
ROOT
HETATM    1  N4  UNL     1      53.357  23.426  47.198  1.00  0.00    -0.171 N
ATOM      2  H4  UNL     1      54.022  24.184  47.352  1.00  0.00     0.186 HD
ENDROOT
BRANCH   1   3
HETATM    3  C5  UNL     1      52.326  23.627  46.446  1.00  0.00     0.169 A
HETATM    4  C4  UNL     1      51.556  24.809  46.371  1.00  0.00     0.099 A
HETATM    5  N2  UNL     1      50.600  24.568  45.472  1.00  0.00    -0.240 N
HETATM    6  O1  UNL     1      50.741  23.382  45.031  1.00  0.00    -0.155 OA
ATOM      7  H2  UNL     1      49.874  25.226  45.187  1.00  0.00     0.196 HD
HETATM    8  N3  UNL     1      51.753  22.785  45.579  1.00  0.00    -0.223 N
ATOM      9  H3  UNL     1      52.061  21.833  45.383  1.00  0.00     0.198 HD
BRANCH   4  10
HETATM   10  C3  UNL     1      51.866  25.982  47.174  1.00  0.00     0.204 C
BRANCH  10  11
HETATM   11  N1  UNL     1      51.618  25.879  48.561  1.00  0.00    -0.212 N
BRANCH  11  12
HETATM   12  C2  UNL     1      50.332  25.365  49.075  1.00  0.00     0.137 C
HETATM   13  C1  UNL     1      49.159  26.020  48.422  1.00  0.00     0.027 C
ENDBRANCH  11  12
BRANCH  11  14
HETATM   14  C10 UNL     1      52.554  26.253  49.579  1.00  0.00     0.689 A
HETATM   15  N13 UNL     1      52.195  26.418  50.817  1.00  0.00    -0.169 N
HETATM   16  C11 UNL     1      53.104  26.725  51.731  1.00  0.00     0.174 A
ATOM     17  H13 UNL     1      51.217  26.313  51.085  1.00  0.00     0.186 HD
HETATM   18  S1  UNL     1      54.526  26.779  50.786  1.00  0.00     0.038 SA
HETATM   19  N15 UNL     1      53.854  26.405  49.284  1.00  0.00    -0.157 N
ATOM     20  H15 UNL     1      54.318  26.316  48.380  1.00  0.00     0.193 HD
BRANCH  16  21
HETATM   21  N14 UNL     1      52.910  26.921  52.999  1.00  0.00    -0.378 N
ATOM     22 2H14 UNL     1      52.361  26.402  53.685  1.00  0.00     0.158 HD
ATOM     23 1H14 UNL     1      53.292  27.673  53.574  1.00  0.00     0.158 HD
ENDBRANCH  16  21
ENDBRANCH  11  14
ENDBRANCH  10  11
ENDBRANCH   4  10
ENDBRANCH   1   3
BRANCH   1  24
HETATM   24  C6  UNL     1      53.578  22.175  47.807  1.00  0.00     0.719 A
HETATM   25  N5  UNL     1      54.209  21.256  47.194  1.00  0.00    -0.183 N
HETATM   26  C7  UNL     1      54.508  19.950  47.677  1.00  0.00     0.342 A
ATOM     27  H5  UNL     1      54.537  21.479  46.254  1.00  0.00     0.181 HD
HETATM   28  N8  UNL     1      54.004  19.741  49.005  1.00  0.00    -0.183 N
HETATM   29  C8  UNL     1      53.300  20.751  49.703  1.00  0.00     0.732 A
ATOM     30  H8  UNL     1      54.158  18.839  49.457  1.00  0.00     0.181 HD
HETATM   31  N9  UNL     1      52.732  20.795  50.948  1.00  0.00    -0.019 N
HETATM   32  N12 UNL     1      53.089  21.944  49.120  1.00  0.00     0.105 N
HETATM   33  C9  UNL     1      52.179  22.000  51.131  1.00  0.00     0.706 A
ATOM     34  H9  UNL     1      52.731  20.033  51.626  1.00  0.00     0.203 HD
HETATM   35  N10 UNL     1      51.541  22.442  52.183  1.00  0.00    -0.233 N
HETATM   36  N11 UNL     1      52.412  22.677  50.000  1.00  0.00    -0.096 N
ATOM     37 2H10 UNL     1      51.363  21.927  53.044  1.00  0.00     0.174 HD
ATOM     38 1H10 UNL     1      51.119  23.360  52.322  1.00  0.00     0.174 HD
ATOM     39  H11 UNL     1      52.108  23.637  49.833  1.00  0.00     0.207 HD
BRANCH  26  40
HETATM   40  N6  UNL     1      53.861  18.975  46.807  1.00  0.00    -0.235 N
ATOM     41  H6  UNL     1      54.220  18.024  46.722  1.00  0.00     0.190 HD
BRANCH  40  42
HETATM   42  N7  UNL     1      52.732  19.386  46.096  1.00  0.00    -0.040 N
HETATM   43  O2  UNL     1      52.814  19.509  44.859  1.00  0.00    -0.517 OA
HETATM   44  O3  UNL     1      51.542  19.658  46.726  1.00  0.00    -0.517 OA
ENDBRANCH  40  42
ENDBRANCH  26  40
ENDBRANCH   1  24
TORSDOF 9
ENDMDL