MODEL 4
REMARK VINA RESULT: -8.520218445      2.192      3.663
REMARK  8 active torsions:
REMARK  status: ('A' for Active; 'I' for Inactive)
REMARK    1  A    between atoms: C2_2  and  O1_3
REMARK    2  A    between atoms: C2_2  and  C3_5
REMARK    3  A    between atoms: C4_8  and  C5_9
REMARK    4  A    between atoms: C6_15  and  N5_16
REMARK    5  A    between atoms: N5_16  and  N6_18
REMARK       I    between atoms: N6_18  and  C7_20
REMARK    6  A    between atoms: C7_20  and  C8_22
REMARK    7  A    between atoms: C9_25  and  N8_26
REMARK    8  A    between atoms: C14_39  and  N11_40
ROOT
HETATM    1  N11 UNL     1      51.102  24.603  46.117  1.00  0.00    -0.280 N
ATOM      2  H11 UNL     1      51.657  24.161  45.385  1.00  0.00     0.179 HD
HETATM    3  C15 UNL     1      49.706  24.690  46.054  1.00  0.00     0.183 C
HETATM    4  N12 UNL     1      48.544  24.784  46.023  1.00  0.00    -0.172 NA
ENDROOT
BRANCH   1   5
HETATM    5  C14 UNL     1      51.689  25.180  47.281  1.00  0.00     0.134 A
HETATM    6  C4  UNL     1      52.145  24.489  48.474  1.00  0.00     0.208 A
HETATM    7  N1  UNL     1      52.842  25.371  49.370  1.00  0.00    -0.359 N
HETATM    8  C3  UNL     1      53.033  26.614  49.247  1.00  0.00     0.121 A
ATOM      9  H1  UNL     1      53.231  24.939  50.209  1.00  0.00     0.162 HD
HETATM   10  N14 UNL     1      52.528  27.237  48.046  1.00  0.00    -0.286 N
HETATM   11  N13 UNL     1      51.890  26.468  47.136  1.00  0.00    -0.285 N
ATOM     12  H14 UNL     1      52.650  28.238  47.888  1.00  0.00     0.188 HD
ATOM     13  H13 UNL     1      51.545  26.914  46.286  1.00  0.00     0.188 HD
BRANCH   6  14
HETATM   14  C5  UNL     1      52.827  23.223  48.252  1.00  0.00     0.103 A
HETATM   15  N2  UNL     1      54.158  23.036  48.543  1.00  0.00    -0.284 N
HETATM   16  N3  UNL     1      54.503  21.839  48.193  1.00  0.00    -0.232 N
ATOM     17  H2  UNL     1      54.774  23.730  48.966  1.00  0.00     0.188 HD
HETATM   18  N4  UNL     1      53.479  21.204  47.674  1.00  0.00    -0.204 N
ATOM     19  H3  UNL     1      55.437  21.445  48.305  1.00  0.00     0.209 HD
HETATM   20  C6  UNL     1      53.134  19.993  47.122  1.00  0.00     0.160 A
HETATM   21  C13 UNL     1      52.422  22.039  47.697  1.00  0.00     0.157 A
HETATM   22  C12 UNL     1      51.801  20.156  46.824  1.00  0.00     0.141 A
HETATM   23  N10 UNL     1      51.367  21.361  47.161  1.00  0.00    -0.345 N
ATOM     24  H10 UNL     1      50.419  21.716  47.041  1.00  0.00     0.167 HD
BRANCH  20  25
HETATM   25  N5  UNL     1      54.009  18.945  46.883  1.00  0.00    -0.280 N
ATOM     26  H5  UNL     1      54.899  19.072  47.365  1.00  0.00     0.188 HD
BRANCH  25  27
HETATM   27  N6  UNL     1      53.978  17.791  46.168  1.00  0.00    -0.263 N
HETATM   28  C7  UNL     1      55.119  16.892  46.115  1.00  0.00     0.284 C
HETATM   29  O2  UNL     1      56.121  17.194  46.799  1.00  0.00    -0.265 OA
ATOM     30  H6  UNL     1      53.131  17.548  45.655  1.00  0.00     0.190 HD
BRANCH  28  31
HETATM   31  C8  UNL     1      55.117  15.719  45.291  1.00  0.00     0.108 C
HETATM   32  N7  UNL     1      55.509  14.498  46.081  1.00  0.00    -0.338 N
HETATM   33  C9  UNL     1      56.597  14.047  45.205  1.00  0.00     0.483 C
ATOM     34  H7  UNL     1      55.136  14.109  46.947  1.00  0.00     0.163 HD
HETATM   35  N9  UNL     1      55.958  14.073  43.908  1.00  0.00    -0.019 N
HETATM   36  C10 UNL     1      55.400  15.474  43.925  1.00  0.00     0.241 C
ATOM     37  H92 UNL     1      56.553  13.839  43.114  1.00  0.00     0.282 HD
ATOM     38  H91 UNL     1      55.286  13.327  43.728  1.00  0.00     0.282 HD
HETATM   39  C11 UNL     1      56.263  16.286  43.051  1.00  0.00     0.047 C
BRANCH  33  40
HETATM   40  N8  UNL     1      57.044  12.764  45.622  1.00  0.00    -0.033 N
ATOM     41  H83 UNL     1      56.689  12.514  46.545  1.00  0.00     0.278 HD
ATOM     42  H82 UNL     1      56.607  12.012  45.089  1.00  0.00     0.278 HD
ATOM     43  H81 UNL     1      58.062  12.725  45.578  1.00  0.00     0.278 HD
ENDBRANCH  33  40
ENDBRANCH  28  31
ENDBRANCH  25  27
ENDBRANCH  20  25
ENDBRANCH   6  14
BRANCH   8  44
HETATM   44  C2  UNL     1      53.774  27.407  50.259  1.00  0.00     0.182 C
HETATM   45  C1  UNL     1      54.347  26.524  51.312  1.00  0.00     0.047 C
BRANCH  44  46
HETATM   46  O1  UNL     1      54.864  27.988  49.584  1.00  0.00    -0.388 OA
ATOM     47  H1  UNL     1      55.302  27.285  49.119  1.00  0.00     0.210 HD
ENDBRANCH  44  46
ENDBRANCH   8  44
ENDBRANCH   1   5
TORSDOF 8
ENDMDL