MODEL 2
REMARK VINA RESULT: -7.684600922      5.197      9.737
REMARK  13 active torsions:
REMARK  status: ('A' for Active; 'I' for Inactive)
REMARK    1  A    between atoms: N1_1  and  O1_4
REMARK    2  A    between atoms: O1_4  and  C1_5
REMARK       I    between atoms: C1_5  and  N2_7
REMARK    3  A    between atoms: N2_7  and  C2_9
REMARK    4  A    between atoms: C7_15  and  O4_16
REMARK    5  A    between atoms: O4_16  and  C8_17
REMARK    6  A    between atoms: C8_17  and  O5_18
REMARK    7  A    between atoms: C8_17  and  N3_20
REMARK    8  A    between atoms: N3_20  and  O6_22
REMARK    9  A    between atoms: C11_27  and  C12_28
REMARK   10  A    between atoms: C12_28  and  N4_29
REMARK   11  A    between atoms: N4_29  and  N5_31
REMARK   12  A    between atoms: C14_36  and  O11_37
REMARK   13  A    between atoms: C14_36  and  O12_39
ROOT
HETATM    1  C2  UNL     1      55.446  18.492  50.045  1.00  0.00     0.100 A
HETATM    2  C3  UNL     1      55.628  18.058  48.733  1.00  0.00     0.025 A
HETATM    3  C4  UNL     1      56.162  17.116  47.847  1.00  0.00     0.036 A
HETATM    4  C5  UNL     1      55.951  17.291  46.496  1.00  0.00     0.021 A
HETATM    5  C6  UNL     1      55.233  18.373  46.055  1.00  0.00     0.214 A
HETATM    6  O3  UNL     1      55.056  18.505  44.799  1.00  0.00    -0.285 OA
HETATM    7  C7  UNL     1      54.682  19.338  46.907  1.00  0.00     0.139 A
HETATM    8  C9  UNL     1      54.872  19.193  48.256  1.00  0.00     0.067 A
HETATM    9  C10 UNL     1      54.733  19.558  49.559  1.00  0.00     0.213 A
HETATM   10  O7  UNL     1      54.134  20.561  50.102  1.00  0.00    -0.285 OA
HETATM   11  C11 UNL     1      56.605  16.173  45.743  1.00  0.00     0.119 C
HETATM   12  C13 UNL     1      57.518  15.607  46.755  1.00  0.00     0.203 C
HETATM   13  O10 UNL     1      58.548  15.006  46.503  1.00  0.00    -0.291 OA
HETATM   14  C14 UNL     1      56.947  15.909  48.090  1.00  0.00     0.255 C
ENDROOT
BRANCH   1  15
HETATM   15  N2  UNL     1      55.874  17.960  51.293  1.00  0.00    -0.297 N
HETATM   16  C1  UNL     1      55.594  16.670  51.738  1.00  0.00     0.386 C
HETATM   17  O2  UNL     1      54.927  15.878  51.037  1.00  0.00    -0.236 OA
ATOM     18  H2  UNL     1      56.423  18.564  51.904  1.00  0.00     0.171 HD
BRANCH  16  19
HETATM   19  O1  UNL     1      56.043  16.206  52.971  1.00  0.00    -0.188 OA
BRANCH  19  20
HETATM   20  N1  UNL     1      55.163  16.047  53.998  1.00  0.00    -0.301 N
ATOM     21  H12 UNL     1      54.401  16.717  54.106  1.00  0.00     0.184 HD
ATOM     22  H11 UNL     1      55.273  15.267  54.648  1.00  0.00     0.184 HD
ENDBRANCH  19  20
ENDBRANCH  16  19
ENDBRANCH   1  15
BRANCH  14  23
HETATM   23  O11 UNL     1      56.193  14.837  48.564  1.00  0.00    -0.356 OA
ATOM     24  H11 UNL     1      56.363  14.625  49.474  1.00  0.00     0.214 HD
ENDBRANCH  14  23
BRANCH  14  25
HETATM   25  O12 UNL     1      57.989  16.107  49.003  1.00  0.00    -0.356 OA
ATOM     26  H12 UNL     1      58.814  15.733  48.714  1.00  0.00     0.214 HD
ENDBRANCH  14  25
BRANCH   7  27
HETATM   27  O4  UNL     1      53.977  20.379  46.326  1.00  0.00    -0.296 OA
BRANCH  27  28
HETATM   28  C8  UNL     1      52.587  20.547  46.367  1.00  0.00     0.394 C
BRANCH  28  29
HETATM   29  O5  UNL     1      51.926  19.302  46.452  1.00  0.00    -0.353 OA
ATOM     30  H5  UNL     1      52.460  18.662  46.906  1.00  0.00     0.214 HD
ENDBRANCH  28  29
BRANCH  28  31
HETATM   31  N3  UNL     1      52.183  21.278  47.537  1.00  0.00    -0.252 N
ATOM     32  H3  UNL     1      52.389  22.270  47.648  1.00  0.00     0.192 HD
BRANCH  31  33
HETATM   33  O6  UNL     1      51.529  20.591  48.462  1.00  0.00    -0.290 OA
ATOM     34  H6  UNL     1      50.656  20.897  48.674  1.00  0.00     0.244 HD
ENDBRANCH  31  33
ENDBRANCH  28  31
ENDBRANCH  27  28
ENDBRANCH   7  27
BRANCH  11  35
HETATM   35  C12 UNL     1      55.584  15.131  45.330  1.00  0.00     0.163 C
BRANCH  35  36
HETATM   36  N4  UNL     1      56.239  13.854  45.367  1.00  0.00    -0.276 N
ATOM     37  H4  UNL     1      56.465  13.422  46.264  1.00  0.00     0.186 HD
BRANCH  36  38
HETATM   38  N5  UNL     1      56.564  13.209  44.186  1.00  0.00    -0.043 N
HETATM   39  O8  UNL     1      57.307  12.183  44.143  1.00  0.00    -0.517 OA
HETATM   40  O9  UNL     1      56.031  13.744  43.015  1.00  0.00    -0.517 OA
ENDBRANCH  36  38
ENDBRANCH  35  36
ENDBRANCH  11  35
TORSDOF 13
ENDMDL