MODEL 5
REMARK VINA RESULT: -9.198420431      1.865      3.515
REMARK  9 active torsions:
REMARK  status: ('A' for Active; 'I' for Inactive)
REMARK    1  A    between atoms: N1_2  and  C3_4
REMARK    2  A    between atoms: C6_11  and  C7_12
REMARK    3  A    between atoms: C7_12  and  O2_13
REMARK    4  A    between atoms: O2_13  and  C8_14
REMARK       I    between atoms: C8_14  and  N4_16
REMARK    5  A    between atoms: C9_21  and  C10_22
REMARK    6  A    between atoms: C11_23  and  N7_24
REMARK    7  A    between atoms: N7_24  and  O4_26
REMARK    8  A    between atoms: C12_30  and  N9_31
REMARK    9  A    between atoms: N11_37  and  O5_39
ROOT
HETATM    1  C8  UNL     1      52.312  20.273  47.056  1.00  0.00     0.403 C
HETATM    2  O3  UNL     1      51.165  19.776  46.914  1.00  0.00    -0.234 OA
HETATM    3  N4  UNL     1      53.491  19.507  46.745  1.00  0.00    -0.119 N
HETATM    4  N5  UNL     1      54.744  19.907  46.849  1.00  0.00    -0.215 N
ATOM      5  H5  UNL     1      55.038  20.829  47.170  1.00  0.00     0.210 HD
HETATM    6  N6  UNL     1      55.561  18.942  46.478  1.00  0.00    -0.267 N
ATOM      7  H6  UNL     1      56.579  18.997  46.466  1.00  0.00     0.190 HD
HETATM    8  C9  UNL     1      54.820  17.857  46.113  1.00  0.00     0.155 A
HETATM    9  N12 UNL     1      53.535  18.267  46.301  1.00  0.00    -0.256 N
ATOM     10  H12 UNL     1      52.714  17.689  46.122  1.00  0.00     0.191 HD
ENDROOT
BRANCH   8  11
HETATM   11  C10 UNL     1      55.316  16.584  45.631  1.00  0.00     0.103 A
HETATM   12  C11 UNL     1      55.783  15.698  46.568  1.00  0.00     0.158 A
HETATM   13  N8  UNL     1      56.256  14.503  46.197  1.00  0.00    -0.174 N
HETATM   14  C12 UNL     1      56.273  14.174  44.892  1.00  0.00     0.679 A
ATOM     15  H8  UNL     1      56.603  13.846  46.897  1.00  0.00     0.186 HD
HETATM   16  N10 UNL     1      55.818  15.032  43.967  1.00  0.00    -0.174 N
HETATM   17  C13 UNL     1      55.327  16.263  44.318  1.00  0.00     0.158 A
ATOM     18  H10 UNL     1      55.837  14.764  42.983  1.00  0.00     0.186 HD
HETATM   19  N11 UNL     1      54.906  17.049  43.406  1.00  0.00    -0.252 N
ATOM     20  H11 UNL     1      54.950  16.728  42.438  1.00  0.00     0.196 HD
BRANCH  12  21
HETATM   21  N7  UNL     1      55.786  16.004  47.962  1.00  0.00    -0.252 N
ATOM     22  H7  UNL     1      56.299  16.831  48.268  1.00  0.00     0.196 HD
BRANCH  21  23
HETATM   23  O4  UNL     1      55.158  15.276  48.892  1.00  0.00    -0.288 OA
ATOM     24  H4  UNL     1      55.408  15.252  49.809  1.00  0.00     0.244 HD
ENDBRANCH  21  23
ENDBRANCH  12  21
BRANCH  14  25
HETATM   25  N9  UNL     1      56.738  13.001  44.544  1.00  0.00    -0.234 N
ATOM     26  H92 UNL     1      57.688  12.723  44.790  1.00  0.00     0.174 HD
ATOM     27  H91 UNL     1      56.133  12.368  44.021  1.00  0.00     0.174 HD
ENDBRANCH  14  25
BRANCH  19  28
HETATM   28  O5  UNL     1      54.405  18.281  43.642  1.00  0.00    -0.288 OA
ATOM     29  H5  UNL     1      54.936  19.065  43.721  1.00  0.00     0.244 HD
ENDBRANCH  19  28
ENDBRANCH   8  11
BRANCH   1  30
HETATM   30  O2  UNL     1      52.400  21.560  47.514  1.00  0.00    -0.295 OA
BRANCH  30  31
HETATM   31  C7  UNL     1      52.639  22.635  46.632  1.00  0.00     0.240 C
BRANCH  31  32
HETATM   32  C6  UNL     1      52.865  23.901  47.349  1.00  0.00     0.080 A
HETATM   33  C5  UNL     1      52.115  25.001  47.047  1.00  0.00     0.140 A
HETATM   34  C4  UNL     1      52.334  26.174  47.721  1.00  0.00     0.285 A
HETATM   35  N3  UNL     1      51.115  24.947  46.048  1.00  0.00    -0.094 NA
HETATM   36  N2  UNL     1      53.286  26.189  48.658  1.00  0.00    -0.154 N
HETATM   37  O1  UNL     1      51.676  27.236  47.493  1.00  0.00    -0.266 OA
HETATM   38  C3  UNL     1      54.020  25.105  48.951  1.00  0.00     0.682 A
ATOM     39  H2  UNL     1      53.461  27.055  49.169  1.00  0.00     0.187 HD
HETATM   40  N13 UNL     1      53.802  23.971  48.293  1.00  0.00    -0.191 N
ATOM     41  H13 UNL     1      54.359  23.146  48.513  1.00  0.00     0.184 HD
BRANCH  38  42
HETATM   42  N1  UNL     1      55.012  25.236  49.973  1.00  0.00    -0.226 N
HETATM   43  C1  UNL     1      56.003  24.210  50.208  1.00  0.00     0.168 C
HETATM   44  C2  UNL     1      54.992  26.439  50.770  1.00  0.00     0.168 C
ENDBRANCH  38  42
ENDBRANCH  31  32
ENDBRANCH  30  31
ENDBRANCH   1  30
TORSDOF 9
ENDMDL