MODEL 1
REMARK VINA RESULT: -9.882276754      0.000      0.000
REMARK  8 active torsions:
REMARK  status: ('A' for Active; 'I' for Inactive)
REMARK    1  A    between atoms: C2_2  and  N1_3
REMARK    2  A    between atoms: C5_8  and  C6_9
REMARK    3  A    between atoms: C7_13  and  C8_14
REMARK    4  A    between atoms: C8_14  and  C9_15
REMARK       I    between atoms: C9_15  and  N4_17
REMARK    5  A    between atoms: N4_17  and  N5_18
REMARK    6  A    between atoms: N5_18  and  C10_20
REMARK    7  A    between atoms: N6_22  and  N7_23
REMARK    8  A    between atoms: N11_35  and  N12_36
ROOT
HETATM    1  C6  UNL     1      -8.068  31.740  -7.574  1.00  0.00     0.159 A
HETATM    2  N3  UNL     1      -9.120  31.014  -7.229  1.00  0.00    -0.241 N
ATOM      3  H3  UNL     1     -10.056  31.389  -7.079  1.00  0.00     0.196 HD
HETATM    4  O2  UNL     1      -8.810  29.786  -7.111  1.00  0.00    -0.222 OA
HETATM    5  C7  UNL     1      -7.497  29.629  -7.380  1.00  0.00     0.158 A
HETATM    6  N10 UNL     1      -7.052  30.823  -7.659  1.00  0.00    -0.321 N
ATOM      7  H10 UNL     1      -6.087  31.044  -7.906  1.00  0.00     0.169 HD
ENDROOT
BRANCH   5   8
HETATM    8  C8  UNL     1      -6.890  28.279  -7.321  1.00  0.00     0.207 C
BRANCH   8   9
HETATM    9  C9  UNL     1      -5.767  28.352  -6.392  1.00  0.00     0.320 C
HETATM   10  O3  UNL     1      -5.682  29.345  -5.668  1.00  0.00    -0.255 OA
HETATM   11  N4  UNL     1      -4.739  27.220  -6.332  1.00  0.00    -0.286 NA
BRANCH  11  12
HETATM   12  N5  UNL     1      -3.993  26.403  -6.284  1.00  0.00    -0.229 N
ATOM     13  H5  UNL     1      -3.284  26.505  -7.010  1.00  0.00     0.202 HD
BRANCH  12  14
HETATM   14  C10 UNL     1      -3.744  25.202  -5.452  1.00  0.00     0.106 A
HETATM   15  C11 UNL     1      -3.172  24.091  -6.070  1.00  0.00     0.149 A
HETATM   16  N6  UNL     1      -2.944  22.943  -5.381  1.00  0.00    -0.281 N
HETATM   17  C12 UNL     1      -3.289  22.903  -4.036  1.00  0.00     0.144 A
HETATM   18  C13 UNL     1      -3.839  23.948  -3.415  1.00  0.00     0.092 A
HETATM   19  N8  UNL     1      -4.222  23.917  -2.028  1.00  0.00    -0.098 NA
HETATM   20  C14 UNL     1      -4.080  25.158  -4.156  1.00  0.00     0.082 A
HETATM   21  N9  UNL     1      -4.543  26.065  -3.510  1.00  0.00    -0.396 N
ATOM     22  H92 UNL     1      -4.714  26.923  -4.035  1.00  0.00     0.156 HD
ATOM     23  H91 UNL     1      -4.799  26.031  -2.523  1.00  0.00     0.156 HD
BRANCH  16  24
HETATM   24  N7  UNL     1      -2.386  21.845  -5.973  1.00  0.00    -0.339 N
ATOM     25  H72 UNL     1      -2.962  21.027  -6.172  1.00  0.00     0.177 HD
ATOM     26  H71 UNL     1      -1.398  21.813  -6.225  1.00  0.00     0.177 HD
ENDBRANCH  16  24
ENDBRANCH  12  14
ENDBRANCH  11  12
ENDBRANCH   8   9
ENDBRANCH   5   8
BRANCH   1  27
HETATM   27  C5  UNL     1      -8.040  33.163  -7.837  1.00  0.00     0.136 A
HETATM   28  C4  UNL     1      -7.694  34.012  -6.775  1.00  0.00     0.147 A
HETATM   29  C3  UNL     1      -7.637  35.370  -6.908  1.00  0.00     0.278 A
HETATM   30  N2  UNL     1      -7.387  33.446  -5.514  1.00  0.00    -0.094 NA
HETATM   31  N1  UNL     1      -7.918  35.920  -8.079  1.00  0.00    -0.264 N
HETATM   32  O1  UNL     1      -7.316  36.090  -5.926  1.00  0.00    -0.266 OA
HETATM   33  C15 UNL     1      -8.250  35.114  -9.113  1.00  0.00     0.350 A
HETATM   34  N11 UNL     1      -8.316  33.750  -8.996  1.00  0.00    -0.206 N
HETATM   35  O4  UNL     1      -8.513  35.612 -10.225  1.00  0.00    -0.244 OA
BRANCH  31  36
HETATM   36  C2  UNL     1      -7.919  37.339  -8.206  1.00  0.00     0.133 C
HETATM   37  C1  UNL     1      -9.269  37.997  -8.042  1.00  0.00     0.027 C
ENDBRANCH  31  36
BRANCH  34  38
HETATM   38  N12 UNL     1      -8.700  33.020 -10.115  1.00  0.00    -0.334 N
ATOM     39 2H12 UNL     1      -9.565  32.483 -10.059  1.00  0.00     0.177 HD
ATOM     40 1H12 UNL     1      -8.135  33.000 -10.964  1.00  0.00     0.177 HD
ENDBRANCH  34  38
ENDBRANCH   1  27
TORSDOF 8
ENDMDL