MODEL 1
REMARK VINA RESULT: -8.273629223      0.000      0.000
REMARK  11 active torsions:
REMARK  status: ('A' for Active; 'I' for Inactive)
REMARK    1  A    between atoms: N1_1  and  C1_4
REMARK    2  A    between atoms: C1_4  and  N2_5
REMARK    3  A    between atoms: N2_5  and  N3_7
REMARK       I    between atoms: C2_9  and  N4_10
REMARK       I    between atoms: C2_9  and  N7_17
REMARK    4  A    between atoms: N4_10  and  N5_12
REMARK       I    between atoms: N5_12  and  C3_14
REMARK    5  A    between atoms: N7_17  and  N8_19
REMARK    6  A    between atoms: C5_25  and  S1_26
REMARK    7  A    between atoms: S1_26  and  C6_27
REMARK    8  A    between atoms: C6_27  and  C7_28
REMARK    9  A    between atoms: C8_33  and  C9_34
REMARK   10  A    between atoms: C10_40  and  N15_41
REMARK   11  A    between atoms: N16_44  and  N17_45
ROOT
HETATM    1  N8  UNL     1      -7.036  30.567  -9.288  1.00  0.00    -0.212 N
HETATM    2  C4  UNL     1      -7.174  30.228 -10.576  1.00  0.00     0.226 A
HETATM    3  N9  UNL     1      -7.469  28.898 -10.672  1.00  0.00    -0.292 N
ATOM      4  H9  UNL     1      -7.626  28.372 -11.531  1.00  0.00     0.187 HD
HETATM    5  N10 UNL     1      -7.512  28.423  -9.445  1.00  0.00    -0.277 N
ATOM      6  H10 UNL     1      -7.710  27.457  -9.183  1.00  0.00     0.189 HD
HETATM    7  C5  UNL     1      -7.250  29.434  -8.597  1.00  0.00     0.182 A
ENDROOT
BRANCH   7   8
HETATM    8  S1  UNL     1      -7.211  29.228  -6.821  1.00  0.00    -0.083 SA
BRANCH   8   9
HETATM    9  C6  UNL     1      -5.547  29.037  -6.201  1.00  0.00     0.162 C
BRANCH   9  10
HETATM   10  C7  UNL     1      -5.102  27.669  -5.945  1.00  0.00     0.129 A
HETATM   11  N11 UNL     1      -4.974  26.723  -6.884  1.00  0.00    -0.285 N
HETATM   12  N12 UNL     1      -4.547  25.620  -6.331  1.00  0.00    -0.281 N
ATOM     13  H11 UNL     1      -5.179  26.844  -7.876  1.00  0.00     0.188 HD
HETATM   14  C8  UNL     1      -4.389  25.860  -4.968  1.00  0.00     0.175 A
ATOM     15  H12 UNL     1      -4.362  24.740  -6.810  1.00  0.00     0.188 HD
HETATM   16  N16 UNL     1      -4.733  27.121  -4.743  1.00  0.00    -0.228 N
BRANCH  14  17
HETATM   17  C9  UNL     1      -3.917  24.787  -4.111  1.00  0.00     0.149 A
HETATM   18  N13 UNL     1      -4.317  24.581  -2.809  1.00  0.00    -0.234 N
HETATM   19  O2  UNL     1      -3.729  23.552  -2.321  1.00  0.00    -0.155 OA
ATOM     20  H13 UNL     1      -4.985  25.164  -2.305  1.00  0.00     0.197 HD
HETATM   21  N14 UNL     1      -2.953  23.033  -3.188  1.00  0.00    -0.224 N
HETATM   22  C10 UNL     1      -3.039  23.785  -4.344  1.00  0.00     0.154 A
ATOM     23  H14 UNL     1      -2.370  22.207  -3.053  1.00  0.00     0.198 HD
BRANCH  22  24
HETATM   24  N15 UNL     1      -2.371  23.507  -5.402  1.00  0.00    -0.382 N
ATOM     25 2H15 UNL     1      -1.977  24.226  -6.009  1.00  0.00     0.157 HD
ATOM     26 1H15 UNL     1      -2.126  22.602  -5.801  1.00  0.00     0.157 HD
ENDBRANCH  22  24
ENDBRANCH  14  17
BRANCH  16  27
HETATM   27  N17 UNL     1      -4.750  27.838  -3.564  1.00  0.00    -0.335 N
ATOM     28 2H17 UNL     1      -4.049  27.902  -2.825  1.00  0.00     0.177 HD
ATOM     29 1H17 UNL     1      -5.535  28.430  -3.293  1.00  0.00     0.177 HD
ENDBRANCH  16  27
ENDBRANCH   9  10
ENDBRANCH   8   9
ENDBRANCH   7   8
BRANCH   1  30
HETATM   30  N7  UNL     1      -6.719  31.820  -8.729  1.00  0.00    -0.120 N
HETATM   31  C2  UNL     1      -7.694  32.659  -8.132  1.00  0.00     0.727 C
HETATM   32  N3  UNL     1      -8.797  32.829  -8.810  1.00  0.00    -0.121 N
HETATM   33  N4  UNL     1      -7.485  33.277  -6.872  1.00  0.00    -0.126 N
ATOM     34  H3  UNL     1      -8.939  32.381  -9.715  1.00  0.00     0.206 HD
ATOM     35  H4  UNL     1      -7.467  32.729  -6.011  1.00  0.00     0.206 HD
ATOM     36  H7  UNL     1      -5.749  32.136  -8.755  1.00  0.00     0.206 HD
BRANCH  32  37
HETATM   37  N2  UNL     1      -9.768  33.646  -8.248  1.00  0.00    -0.236 N
ATOM     38  H2  UNL     1      -9.517  34.484  -7.723  1.00  0.00     0.199 HD
BRANCH  37  39
HETATM   39  C1  UNL     1     -10.993  33.306  -8.413  1.00  0.00     0.061 C
BRANCH  39  40
HETATM   40  N1  UNL     1     -12.247  33.183  -8.528  1.00  0.00    -0.350 N
ATOM     41  H12 UNL     1     -12.222  33.865  -9.285  1.00  0.00     0.167 HD
ATOM     42  H11 UNL     1     -13.243  32.966  -8.484  1.00  0.00     0.167 HD
ENDBRANCH  39  40
ENDBRANCH  37  39
ENDBRANCH  32  37
BRANCH  33  43
HETATM   43  N5  UNL     1      -7.306  34.663  -6.851  1.00  0.00    -0.240 N
HETATM   44  C3  UNL     1      -7.001  35.321  -5.632  1.00  0.00     0.347 C
HETATM   45  N6  UNL     1      -6.823  36.725  -5.631  1.00  0.00    -0.038 NA
HETATM   46  O1  UNL     1      -6.895  34.647  -4.583  1.00  0.00    -0.249 OA
ATOM     47  H5  UNL     1      -7.395  35.201  -7.713  1.00  0.00     0.192 HD
ENDBRANCH  33  43
ENDBRANCH   1  30
TORSDOF 11
ENDMDL