MODEL 5
REMARK VINA RESULT: -8.696752140      1.617      1.932
REMARK  11 active torsions:
REMARK  status: ('A' for Active; 'I' for Inactive)
REMARK    1  A    between atoms: C2_7  and  N4_8
REMARK    2  A    between atoms: N4_8  and  C3_10
REMARK    3  A    between atoms: C3_10  and  O1_11
REMARK    4  A    between atoms: C3_10  and  C4_13
REMARK    5  A    between atoms: C9_20  and  N7_21
REMARK    6  A    between atoms: N7_21  and  C10_23
REMARK    7  A    between atoms: C12_25  and  N8_26
REMARK       I    between atoms: N8_26  and  C13_28
REMARK       I    between atoms: C13_28  and  N9_29
REMARK       I    between atoms: C13_28  and  N10_33
REMARK    8  A    between atoms: C15_38  and  C16_39
REMARK    9  A    between atoms: C16_39  and  O2_40
REMARK   10  A    between atoms: C16_39  and  O3_42
REMARK   11  A    between atoms: N11_45  and  N12_46
ROOT
HETATM    1  C4  UNL     1      -6.778  29.047  -9.083  1.00  0.00     0.066 A
HETATM    2  C5  UNL     1      -6.601  27.788  -8.479  1.00  0.00     0.065 A
HETATM    3  N5  UNL     1      -6.893  26.575  -9.151  1.00  0.00    -0.101 NA
HETATM    4  C6  UNL     1      -6.125  27.771  -7.191  1.00  0.00     0.054 A
HETATM    5  C7  UNL     1      -5.829  28.916  -6.500  1.00  0.00     0.050 A
HETATM    6  N6  UNL     1      -5.337  28.871  -5.168  1.00  0.00    -0.102 NA
HETATM    7  C8  UNL     1      -6.000  30.151  -7.080  1.00  0.00     0.057 A
HETATM    8  C9  UNL     1      -6.480  30.213  -8.381  1.00  0.00     0.052 A
ENDROOT
BRANCH   8   9
HETATM    9  N7  UNL     1      -6.757  31.470  -8.917  1.00  0.00    -0.336 N
ATOM     10  H7  UNL     1      -6.069  31.844  -9.571  1.00  0.00     0.168 HD
BRANCH   9  11
HETATM   11  C10 UNL     1      -7.886  32.285  -8.657  1.00  0.00     0.150 A
HETATM   12  C11 UNL     1      -7.695  33.483  -7.943  1.00  0.00     0.085 A
HETATM   13  C12 UNL     1      -8.723  34.342  -7.635  1.00  0.00     0.037 A
HETATM   14  C14 UNL     1     -10.012  34.002  -8.056  1.00  0.00     0.067 A
HETATM   15  C15 UNL     1     -10.142  32.825  -8.747  1.00  0.00     0.112 A
HETATM   16  O4  UNL     1      -9.111  32.061  -8.999  1.00  0.00    -0.293 OA
BRANCH  13  17
HETATM   17  N8  UNL     1      -8.549  35.440  -6.982  1.00  0.00    -0.341 N
HETATM   18  C13 UNL     1      -7.456  36.302  -7.319  1.00  0.00     0.480 C
HETATM   19  N9  UNL     1      -7.259  37.304  -6.274  1.00  0.00    -0.033 N
HETATM   20  N10 UNL     1      -7.770  37.031  -8.538  1.00  0.00    -0.033 N
ATOM     21  H93 UNL     1      -8.113  37.830  -6.084  1.00  0.00     0.278 HD
ATOM     22  H92 UNL     1      -7.137  36.878  -5.355  1.00  0.00     0.278 HD
ATOM     23  H91 UNL     1      -6.480  37.918  -6.515  1.00  0.00     0.278 HD
ATOM     24 3H10 UNL     1      -8.020  36.408  -9.306  1.00  0.00     0.278 HD
ATOM     25 2H10 UNL     1      -8.653  37.537  -8.467  1.00  0.00     0.278 HD
ATOM     26 1H10 UNL     1      -6.991  37.645  -8.778  1.00  0.00     0.278 HD
ATOM     27  H8  UNL     1      -9.187  35.694  -6.227  1.00  0.00     0.163 HD
ENDBRANCH  13  17
BRANCH  15  28
HETATM   28  C16 UNL     1     -11.475  32.362  -9.242  1.00  0.00     0.312 C
BRANCH  28  29
HETATM   29  O2  UNL     1     -11.515  30.965  -9.219  1.00  0.00    -0.365 OA
ATOM     30  H2  UNL     1     -12.420  30.678  -9.192  1.00  0.00     0.213 HD
ENDBRANCH  28  29
BRANCH  28  31
HETATM   31  O3  UNL     1     -11.674  32.742 -10.571  1.00  0.00    -0.365 OA
ATOM     32  H3  UNL     1     -11.022  32.348 -11.138  1.00  0.00     0.213 HD
ENDBRANCH  28  31
ENDBRANCH  15  28
ENDBRANCH   9  11
ENDBRANCH   8   9
BRANCH   1  33
HETATM   33  C3  UNL     1      -7.240  28.993 -10.454  1.00  0.00     0.170 C
BRANCH  33  34
HETATM   34  N4  UNL     1      -8.435  28.503 -10.975  1.00  0.00    -0.165 N
ATOM     35  H4  UNL     1      -8.589  27.503 -10.844  1.00  0.00     0.186 HD
BRANCH  34  36
HETATM   36  C2  UNL     1      -9.359  29.114 -11.586  1.00  0.00     0.737 A
HETATM   37  N3  UNL     1      -9.525  30.456 -11.520  1.00  0.00    -0.113 N
HETATM   38  N2  UNL     1     -10.567  30.767 -12.269  1.00  0.00    -0.210 N
ATOM     39  H3  UNL     1      -8.949  31.108 -10.988  1.00  0.00     0.207 HD
HETATM   40  N1  UNL     1     -11.072  29.688 -12.808  1.00  0.00    -0.188 N
ATOM     41  H2  UNL     1     -10.926  31.712 -12.407  1.00  0.00     0.210 HD
HETATM   42  C1  UNL     1     -12.220  29.596 -13.696  1.00  0.00     0.204 C
HETATM   43  N11 UNL     1     -10.318  28.662 -12.381  1.00  0.00    -0.008 N
BRANCH  43  44
HETATM   44  N12 UNL     1     -10.570  27.355 -12.764  1.00  0.00    -0.308 N
ATOM     45 2H12 UNL     1      -9.975  26.731 -13.311  1.00  0.00     0.179 HD
ATOM     46 1H12 UNL     1     -11.434  26.874 -12.515  1.00  0.00     0.179 HD
ENDBRANCH  43  44
ENDBRANCH  34  36
ENDBRANCH  33  34
BRANCH  33  47
HETATM   47  O1  UNL     1      -6.465  29.465 -11.384  1.00  0.00    -0.345 OA
ATOM     48  H1  UNL     1      -5.699  29.895 -11.021  1.00  0.00     0.219 HD
ENDBRANCH  33  47
ENDBRANCH   1  33
TORSDOF 11
ENDMDL