MODEL 5
REMARK VINA RESULT: -8.057237256      4.457      9.245
REMARK  11 active torsions:
REMARK  status: ('A' for Active; 'I' for Inactive)
REMARK    1  A    between atoms: N1_1  and  C1_4
REMARK    2  A    between atoms: C4_12  and  C5_13
REMARK    3  A    between atoms: C5_13  and  S1_14
REMARK    4  A    between atoms: S1_14  and  C6_15
REMARK    5  A    between atoms: C7_20  and  C8_21
REMARK    6  A    between atoms: C8_21  and  C9_26
REMARK    7  A    between atoms: N6_22  and  O2_24
REMARK    8  A    between atoms: C9_26  and  O3_27
REMARK    9  A    between atoms: C9_26  and  O4_29
REMARK   10  A    between atoms: N7_33  and  N8_34
REMARK   11  A    between atoms: C11_40  and  N11_41
ROOT
HETATM    1  S1  UNL     1      -6.155  27.845  -7.465  1.00  0.00    -0.083 SA
ENDROOT
BRANCH   1   2
HETATM    2  C5  UNL     1      -5.194  27.961  -5.969  1.00  0.00     0.160 C
BRANCH   2   3
HETATM    3  C4  UNL     1      -4.709  26.636  -5.544  1.00  0.00     0.108 A
HETATM    4  N3  UNL     1      -4.661  26.119  -4.305  1.00  0.00    -0.324 N
HETATM    5  C3  UNL     1      -4.132  24.877  -4.410  1.00  0.00     0.216 A
ATOM      6  H3  UNL     1      -4.965  26.577  -3.446  1.00  0.00     0.169 HD
HETATM    7  C2  UNL     1      -3.916  24.010  -3.360  1.00  0.00     0.306 C
HETATM    8  N10 UNL     1      -3.856  24.630  -5.723  1.00  0.00    -0.062 N
HETATM    9  N2  UNL     1      -3.146  22.892  -3.325  1.00  0.00    -0.153 N
HETATM   10  O1  UNL     1      -4.509  24.298  -2.306  1.00  0.00    -0.263 OA
HETATM   11  C1  UNL     1      -2.513  22.292  -4.329  1.00  0.00     0.693 C
ATOM     12  H2  UNL     1      -3.039  22.455  -2.409  1.00  0.00     0.187 HD
HETATM   13  N12 UNL     1      -2.678  22.465  -5.654  1.00  0.00    -0.021 N
HETATM   14  C11 UNL     1      -3.318  23.513  -6.243  1.00  0.00     0.713 C
ATOM     15  H12 UNL     1      -2.291  21.749  -6.270  1.00  0.00     0.203 HD
HETATM   16  N9  UNL     1      -4.213  25.702  -6.368  1.00  0.00    -0.265 N
ATOM     17  H9  UNL     1      -4.126  25.818  -7.377  1.00  0.00     0.189 HD
BRANCH  11  18
HETATM   18  N1  UNL     1      -1.628  21.433  -3.985  1.00  0.00    -0.234 N
ATOM     19  H12 UNL     1      -1.722  20.506  -4.401  1.00  0.00     0.174 HD
ATOM     20  H11 UNL     1      -0.922  21.770  -3.330  1.00  0.00     0.174 HD
ENDBRANCH  11  18
BRANCH  14  21
HETATM   21  N11 UNL     1      -3.413  23.395  -7.520  1.00  0.00    -0.232 N
ATOM     22 2H11 UNL     1      -3.628  22.444  -7.820  1.00  0.00     0.174 HD
ATOM     23 1H11 UNL     1      -3.262  24.251  -8.054  1.00  0.00     0.174 HD
ENDBRANCH  14  21
ENDBRANCH   2   3
ENDBRANCH   1   2
BRANCH   1  24
HETATM   24  C6  UNL     1      -7.179  29.261  -7.789  1.00  0.00     0.181 A
HETATM   25  N4  UNL     1      -7.815  29.926  -6.788  1.00  0.00    -0.278 N
HETATM   26  N5  UNL     1      -8.538  30.964  -7.048  1.00  0.00    -0.294 N
ATOM     27  H4  UNL     1      -7.721  29.603  -5.825  1.00  0.00     0.189 HD
HETATM   28  C7  UNL     1      -8.744  31.498  -8.299  1.00  0.00     0.117 A
ATOM     29  H5  UNL     1      -8.995  31.426  -6.262  1.00  0.00     0.187 HD
HETATM   30  C10 UNL     1      -8.111  30.840  -9.312  1.00  0.00     0.155 A
HETATM   31  S2  UNL     1      -8.268  31.328 -10.854  1.00  0.00    -0.056 SA
HETATM   32  N7  UNL     1      -7.351  29.747  -9.018  1.00  0.00    -0.226 N
BRANCH  28  33
HETATM   33  C8  UNL     1      -9.569  32.684  -8.412  1.00  0.00     0.117 C
HETATM   34  N6  UNL     1      -8.993  33.835  -8.199  1.00  0.00    -0.266 N
ATOM     35  H6  UNL     1      -9.586  34.661  -8.283  1.00  0.00     0.194 HD
BRANCH  34  36
HETATM   36  O2  UNL     1      -7.708  34.052  -7.883  1.00  0.00    -0.290 OA
ATOM     37  H2  UNL     1      -7.113  33.448  -7.455  1.00  0.00     0.244 HD
ENDBRANCH  34  36
BRANCH  33  38
HETATM   38  C9  UNL     1     -10.979  32.720  -8.775  1.00  0.00     0.309 C
BRANCH  38  39
HETATM   39  O3  UNL     1     -11.795  33.375  -7.816  1.00  0.00    -0.366 OA
ATOM     40  H3  UNL     1     -11.306  33.914  -7.206  1.00  0.00     0.213 HD
ENDBRANCH  38  39
BRANCH  38  41
HETATM   41  O4  UNL     1     -11.482  31.383  -8.783  1.00  0.00    -0.366 OA
ATOM     42  H4  UNL     1     -12.334  31.382  -9.203  1.00  0.00     0.213 HD
ENDBRANCH  38  41
ENDBRANCH  33  38
ENDBRANCH  28  33
BRANCH  32  43
HETATM   43  N8  UNL     1      -6.715  29.136 -10.105  1.00  0.00    -0.335 N
ATOM     44  H82 UNL     1      -6.388  29.765 -10.840  1.00  0.00     0.177 HD
ATOM     45  H81 UNL     1      -6.592  28.124 -10.118  1.00  0.00     0.177 HD
ENDBRANCH  32  43
ENDBRANCH   1  24
TORSDOF 11
ENDMDL