MODEL 1
REMARK VINA RESULT: -7.847646748      0.000      0.000
REMARK  11 active torsions:
REMARK  status: ('A' for Active; 'I' for Inactive)
REMARK    1  A    between atoms: O1_2  and  C2_3
REMARK    2  A    between atoms: C2_3  and  O2_4
REMARK    3  A    between atoms: C2_3  and  C3_6
REMARK    4  A    between atoms: C4_7  and  C5_8
REMARK    5  A    between atoms: N1_10  and  N2_12
REMARK    6  A    between atoms: N2_12  and  C7_14
REMARK    7  A    between atoms: C11_21  and  O4_22
REMARK    8  A    between atoms: C11_21  and  C12_24
REMARK    9  A    between atoms: C12_24  and  O5_25
REMARK   10  A    between atoms: C14_31  and  N6_32
REMARK   11  A    between atoms: N7_35  and  N8_36
ROOT
HETATM    1  C5  UNL     1      -8.215  32.003  -6.579  1.00  0.00     0.050 C
HETATM    2  C6  UNL     1      -9.458  31.257  -6.683  1.00  0.00     0.072 C
HETATM    3  N1  UNL     1      -7.134  31.303  -6.671  1.00  0.00    -0.301 N
ATOM      4  H1  UNL     1      -6.309  31.901  -6.707  1.00  0.00     0.186 HD
ENDROOT
BRANCH   1   5
HETATM    5  C4  UNL     1      -8.095  33.448  -6.541  1.00  0.00     0.087 A
HETATM    6  C3  UNL     1      -8.344  34.341  -7.517  1.00  0.00     0.069 A
HETATM    7  C15 UNL     1      -7.941  35.706  -7.356  1.00  0.00     0.169 A
HETATM    8  N7  UNL     1      -7.324  36.109  -6.239  1.00  0.00    -0.078 N
HETATM    9  N9  UNL     1      -8.176  36.624  -8.407  1.00  0.00    -0.079 NA
HETATM   10  C14 UNL     1      -7.091  35.210  -5.275  1.00  0.00     0.698 A
HETATM   11  N5  UNL     1      -7.452  33.932  -5.404  1.00  0.00    -0.188 N
ATOM     12  H5  UNL     1      -7.251  33.286  -4.641  1.00  0.00     0.184 HD
BRANCH   6  13
HETATM   13  C2  UNL     1      -9.167  34.026  -8.672  1.00  0.00     0.296 C
BRANCH  13  14
HETATM   14  O1  UNL     1     -10.378  34.692  -8.691  1.00  0.00    -0.362 OA
HETATM   15  C1  UNL     1     -11.486  33.898  -8.382  1.00  0.00     0.205 C
ENDBRANCH  13  14
BRANCH  13  16
HETATM   16  O2  UNL     1      -8.515  34.829  -9.784  1.00  0.00    -0.367 OA
ATOM     17  H2  UNL     1      -8.287  35.582  -9.252  1.00  0.00     0.213 HD
ENDBRANCH  13  16
ENDBRANCH   6  13
BRANCH   8  18
HETATM   18  N8  UNL     1      -6.945  37.446  -6.103  1.00  0.00    -0.323 N
ATOM     19  H82 UNL     1      -6.944  37.878  -5.180  1.00  0.00     0.178 HD
ATOM     20  H81 UNL     1      -6.664  38.007  -6.907  1.00  0.00     0.178 HD
ENDBRANCH   8  18
BRANCH  10  21
HETATM   21  N6  UNL     1      -6.490  35.635  -4.195  1.00  0.00    -0.233 N
ATOM     22  H62 UNL     1      -6.118  34.929  -3.561  1.00  0.00     0.174 HD
ATOM     23  H61 UNL     1      -6.402  36.632  -4.001  1.00  0.00     0.174 HD
ENDBRANCH  10  21
ENDBRANCH   1   5
BRANCH   3  24
HETATM   24  N2  UNL     1      -6.802  30.029  -6.731  1.00  0.00    -0.284 N
ATOM     25  H2  UNL     1      -6.554  29.624  -5.828  1.00  0.00     0.188 HD
BRANCH  24  26
HETATM   26  C7  UNL     1      -6.724  29.101  -7.825  1.00  0.00     0.147 A
HETATM   27  C8  UNL     1      -6.444  27.765  -7.659  1.00  0.00     0.128 A
HETATM   28  C9  UNL     1      -6.486  27.203  -8.920  1.00  0.00     0.276 A
HETATM   29  O3  UNL     1      -6.276  25.974  -9.179  1.00  0.00    -0.266 OA
HETATM   30  N3  UNL     1      -6.778  28.197  -9.755  1.00  0.00    -0.184 N
HETATM   31  N4  UNL     1      -6.926  29.339  -9.130  1.00  0.00    -0.235 N
HETATM   32  S1  UNL     1      -6.995  28.148 -11.504  1.00  0.00    -0.023 SA
HETATM   33  C10 UNL     1      -7.257  30.592  -9.730  1.00  0.00     0.133 C
HETATM   34  C11 UNL     1      -7.749  30.649 -11.087  1.00  0.00     0.123 C
HETATM   35  C13 UNL     1      -8.284  29.442 -11.764  1.00  0.00     0.145 C
BRANCH  34  36
HETATM   36  O4  UNL     1      -6.733  31.160 -11.941  1.00  0.00    -0.381 OA
ATOM     37  H4  UNL     1      -6.751  30.696 -12.770  1.00  0.00     0.211 HD
ENDBRANCH  34  36
BRANCH  34  38
HETATM   38  C12 UNL     1      -8.870  31.704 -11.209  1.00  0.00     0.208 C
BRANCH  38  39
HETATM   39  O5  UNL     1      -8.459  32.837 -11.864  1.00  0.00    -0.397 OA
ATOM     40  H5  UNL     1      -9.185  33.356 -12.188  1.00  0.00     0.209 HD
ENDBRANCH  38  39
ENDBRANCH  34  38
ENDBRANCH  24  26
ENDBRANCH   3  24
TORSDOF 11
ENDMDL