MODEL 2
REMARK VINA RESULT: -8.593589782      1.715      2.738
REMARK  9 active torsions:
REMARK  status: ('A' for Active; 'I' for Inactive)
REMARK    1  A    between atoms: N1_1  and  C1_4
REMARK    2  A    between atoms: C4_12  and  O1_13
REMARK    3  A    between atoms: C5_15  and  C6_16
REMARK    4  A    between atoms: C6_16  and  C7_17
REMARK    5  A    between atoms: C6_16  and  C8_20
REMARK    6  A    between atoms: C9_25  and  S1_26
REMARK    7  A    between atoms: C10_36  and  C11_37
REMARK    8  A    between atoms: C11_37  and  N9_38
REMARK    9  A    between atoms: C11_37  and  O8_42
ROOT
HETATM    1  C1  UNL     1      -7.944  35.857  -7.243  1.00  0.00     0.129 C
HETATM    2  N2  UNL     1      -8.407  35.588  -8.484  1.00  0.00    -0.326 N
ATOM      3  H2  UNL     1      -8.809  36.383  -8.981  1.00  0.00     0.169 HD
HETATM    4  C2  UNL     1      -8.415  34.415  -9.165  1.00  0.00     0.134 C
HETATM    5  N3  UNL     1      -8.487  34.473 -10.443  1.00  0.00    -0.383 N
ATOM      6  H31 UNL     1      -8.493  33.590 -10.955  1.00  0.00     0.157 HD
ATOM      7  H32 UNL     1      -8.539  35.411 -10.840  1.00  0.00     0.157 HD
HETATM    8  C3  UNL     1      -8.346  33.160  -8.633  1.00  0.00     0.153 A
HETATM    9  C4  UNL     1      -8.895  32.037  -9.199  1.00  0.00     0.125 A
HETATM   10  C5  UNL     1      -8.567  30.998  -8.312  1.00  0.00     0.086 A
HETATM   11  N6  UNL     1      -7.881  31.544  -7.327  1.00  0.00    -0.279 N
ATOM     12  H6  UNL     1      -7.513  31.016  -6.536  1.00  0.00     0.189 HD
HETATM   13  N7  UNL     1      -7.722  32.841  -7.476  1.00  0.00    -0.190 N
HETATM   14  N8  UNL     1      -7.071  33.643  -6.623  1.00  0.00    -0.275 N
ATOM     15  H8  UNL     1      -6.340  33.207  -6.061  1.00  0.00     0.189 HD
HETATM   16  C10 UNL     1      -7.274  34.980  -6.421  1.00  0.00     0.127 C
ENDROOT
BRANCH  10  17
HETATM   17  C6  UNL     1      -8.945  29.569  -8.513  1.00  0.00     0.217 C
BRANCH  17  18
HETATM   18  C7  UNL     1      -9.276  29.300  -9.935  1.00  0.00     0.191 C
HETATM   19  O2  UNL     1     -10.431  28.949 -10.277  1.00  0.00    -0.647 OA
HETATM   20  O3  UNL     1      -8.311  29.433 -10.902  1.00  0.00    -0.647 OA
ENDBRANCH  17  18
BRANCH  17  21
HETATM   21  C8  UNL     1      -7.782  28.681  -8.133  1.00  0.00     0.162 A
HETATM   22  N4  UNL     1      -7.148  27.827  -8.953  1.00  0.00    -0.280 N
HETATM   23  N5  UNL     1      -6.187  27.241  -8.230  1.00  0.00    -0.266 N
ATOM     24  H4  UNL     1      -7.359  27.658  -9.937  1.00  0.00     0.189 HD
HETATM   25  C9  UNL     1      -6.232  27.733  -6.973  1.00  0.00     0.284 A
ATOM     26  H5  UNL     1      -5.529  26.540  -8.571  1.00  0.00     0.190 HD
HETATM   27  O7  UNL     1      -7.204  28.591  -6.968  1.00  0.00    -0.265 OA
BRANCH  25  28
HETATM   28  S1  UNL     1      -5.151  27.250  -5.673  1.00  0.00     0.181 S
HETATM   29  O4  UNL     1      -3.759  27.093  -6.215  1.00  0.00    -0.589 OA
HETATM   30  O5  UNL     1      -5.551  25.968  -5.047  1.00  0.00    -0.589 OA
HETATM   31  O6  UNL     1      -5.073  28.449  -4.482  1.00  0.00    -0.589 OA
ENDBRANCH  25  28
ENDBRANCH  17  21
ENDBRANCH  10  17
BRANCH   9  32
HETATM   32  O1  UNL     1      -9.613  31.908 -10.367  1.00  0.00    -0.356 OA
ATOM     33  H1  UNL     1      -9.841  31.123 -10.851  1.00  0.00     0.218 HD
ENDBRANCH   9  32
BRANCH  16  34
HETATM   34  C11 UNL     1      -6.732  35.599  -5.195  1.00  0.00     0.372 C
BRANCH  34  35
HETATM   35  N9  UNL     1      -6.902  34.758  -4.043  1.00  0.00    -0.047 N
ATOM     36  H93 UNL     1      -6.307  35.062  -3.273  1.00  0.00     0.277 HD
ATOM     37  H92 UNL     1      -7.814  34.904  -3.610  1.00  0.00     0.277 HD
ATOM     38  H91 UNL     1      -6.750  33.773  -4.260  1.00  0.00     0.277 HD
ENDBRANCH  34  35
BRANCH  34  39
HETATM   39  O8  UNL     1      -5.414  36.018  -5.356  1.00  0.00    -0.365 OA
ATOM     40  H8  UNL     1      -4.908  35.413  -5.885  1.00  0.00     0.212 HD
ENDBRANCH  34  39
ENDBRANCH  16  34
BRANCH   1  41
HETATM   41  N1  UNL     1      -8.156  37.048  -6.804  1.00  0.00    -0.384 N
ATOM     42  H12 UNL     1      -8.413  37.766  -7.481  1.00  0.00     0.157 HD
ATOM     43  H11 UNL     1      -8.049  37.183  -5.798  1.00  0.00     0.157 HD
ENDBRANCH   1  41
TORSDOF 9
ENDMDL