MODEL 5
REMARK VINA RESULT: -7.866831273      1.938      6.417
REMARK  14 active torsions:
REMARK  status: ('A' for Active; 'I' for Inactive)
REMARK    1  A    between atoms: C2_4  and  O3_5
REMARK    2  A    between atoms: C3_7  and  C4_8
REMARK    3  A    between atoms: C4_8  and  C5_9
REMARK    4  A    between atoms: C6_10  and  C7_11
REMARK    5  A    between atoms: C7_11  and  O4_12
REMARK    6  A    between atoms: C7_11  and  O5_14
REMARK    7  A    between atoms: C9_19  and  C10_20
REMARK    8  A    between atoms: C10_20  and  O6_21
REMARK    9  A    between atoms: C12_24  and  O7_25
REMARK   10  A    between atoms: C12_24  and  N2_27
REMARK   11  A    between atoms: N2_27  and  C13_29
REMARK   12  A    between atoms: C13_29  and  C14_30
REMARK   13  A    between atoms: C14_30  and  O8_31
REMARK   14  A    between atoms: C14_30  and  O9_33
ROOT
HETATM    1  C5  UNL     1      -8.187  29.532  -8.187  1.00  0.00     0.032 A
HETATM    2  C6  UNL     1      -8.578  29.412  -9.642  1.00  0.00     0.079 A
HETATM    3  N1  UNL     1      -8.830  30.505 -10.476  1.00  0.00    -0.334 N
ATOM      4  H1  UNL     1      -9.092  30.390 -11.455  1.00  0.00     0.168 HD
HETATM    5  C8  UNL     1      -8.704  31.748  -9.896  1.00  0.00     0.162 A
HETATM    6  C9  UNL     1      -8.602  33.007  -9.401  1.00  0.00     0.055 A
HETATM    7  C11 UNL     1      -8.207  33.195  -7.937  1.00  0.00     0.084 A
HETATM    8  C12 UNL     1      -8.091  34.362  -7.442  1.00  0.00     0.151 C
HETATM    9  C15 UNL     1      -7.943  31.967  -7.079  1.00  0.00     0.222 A
HETATM   10  O10 UNL     1      -7.603  31.680  -5.874  1.00  0.00    -0.284 OA
HETATM   11  C16 UNL     1      -8.101  30.873  -7.753  1.00  0.00     0.141 A
HETATM   12  O11 UNL     1      -8.397  31.343  -8.801  1.00  0.00    -0.288 OA
ENDROOT
BRANCH   6  13
HETATM   13  C10 UNL     1      -8.900  33.920 -10.419  1.00  0.00     0.148 C
BRANCH  13  14
HETATM   14  O6  UNL     1      -9.699  33.473 -11.483  1.00  0.00    -0.372 OA
ATOM     15  H6  UNL     1     -10.001  34.118 -12.111  1.00  0.00     0.216 HD
ENDBRANCH  13  14
ENDBRANCH   6  13
BRANCH   8  16
HETATM   16  O7  UNL     1      -8.331  35.473  -8.253  1.00  0.00    -0.346 OA
ATOM     17  H7  UNL     1      -8.653  35.342  -9.137  1.00  0.00     0.219 HD
ENDBRANCH   8  16
BRANCH   8  18
HETATM   18  N2  UNL     1      -7.731  34.632  -6.114  1.00  0.00    -0.366 N
ATOM     19  H2  UNL     1      -8.421  34.592  -5.364  1.00  0.00     0.161 HD
BRANCH  18  20
HETATM   20  C13 UNL     1      -6.359  34.967  -5.839  1.00  0.00     0.182 C
BRANCH  20  21
HETATM   21  C14 UNL     1      -6.193  36.374  -5.370  1.00  0.00     0.271 C
BRANCH  21  22
HETATM   22  O8  UNL     1      -6.964  37.299  -6.059  1.00  0.00    -0.370 OA
ATOM     23  H8  UNL     1      -7.120  37.076  -6.969  1.00  0.00     0.212 HD
ENDBRANCH  21  22
BRANCH  21  24
HETATM   24  O9  UNL     1      -6.495  36.438  -3.996  1.00  0.00    -0.370 OA
ATOM     25  H9  UNL     1      -5.703  36.272  -3.497  1.00  0.00     0.212 HD
ENDBRANCH  21  24
ENDBRANCH  20  21
ENDBRANCH  18  20
ENDBRANCH   8  18
BRANCH   1  26
HETATM   26  C4  UNL     1      -7.795  28.723  -7.321  1.00  0.00     0.059 C
BRANCH  26  27
HETATM   27  C3  UNL     1      -6.587  28.138  -6.839  1.00  0.00     0.140 A
HETATM   28  C2  UNL     1      -5.342  28.734  -6.640  1.00  0.00     0.223 A
HETATM   29  O2  UNL     1      -4.562  27.788  -6.203  1.00  0.00    -0.229 OA
HETATM   30  C1  UNL     1      -5.181  26.656  -6.103  1.00  0.00     0.419 A
HETATM   31  O1  UNL     1      -4.743  25.523  -5.714  1.00  0.00    -0.229 OA
HETATM   32  O12 UNL     1      -6.397  26.869  -6.485  1.00  0.00    -0.250 OA
BRANCH  28  33
HETATM   33  O3  UNL     1      -5.091  30.073  -6.890  1.00  0.00    -0.338 OA
ATOM     34  H3  UNL     1      -4.736  30.754  -6.331  1.00  0.00     0.220 HD
ENDBRANCH  28  33
ENDBRANCH  26  27
ENDBRANCH   1  26
BRANCH   2  35
HETATM   35  C7  UNL     1      -8.705  28.100 -10.191  1.00  0.00     0.306 C
BRANCH  35  36
HETATM   36  O4  UNL     1     -10.041  27.816 -10.497  1.00  0.00    -0.366 OA
ATOM     37  H4  UNL     1     -10.189  27.859 -11.435  1.00  0.00     0.213 HD
ENDBRANCH  35  36
BRANCH  35  38
HETATM   38  O5  UNL     1      -8.001  28.045 -11.389  1.00  0.00    -0.366 OA
ATOM     39  H5  UNL     1      -8.596  28.243 -12.103  1.00  0.00     0.213 HD
ENDBRANCH  35  38
ENDBRANCH   2  35
TORSDOF 14
ENDMDL