MODEL 4
REMARK VINA RESULT: -7.561739272      3.158      4.260
REMARK  13 active torsions:
REMARK  status: ('A' for Active; 'I' for Inactive)
REMARK    1  A    between atoms: O1_3  and  C2_4
REMARK    2  A    between atoms: C2_4  and  N2_5
REMARK    3  A    between atoms: C2_4  and  C3_9
REMARK    4  A    between atoms: N5_14  and  C4_15
REMARK    5  A    between atoms: C5_18  and  C6_19
REMARK    6  A    between atoms: C6_19  and  O3_21
REMARK    7  A    between atoms: O3_21  and  C7_22
REMARK    8  A    between atoms: C7_22  and  C8_23
REMARK    9  A    between atoms: C10_31  and  C11_32
REMARK   10  A    between atoms: C11_32  and  N9_33
REMARK   11  A    between atoms: C11_32  and  N10_37
REMARK   12  A    between atoms: C12_43  and  N12_44
REMARK   13  A    between atoms: C13_47  and  O6_48
ROOT
HETATM    1  N1  UNL     1      -5.794  36.124  -5.412  1.00  0.00    -0.164 NA
HETATM    2  C1  UNL     1      -6.810  35.860  -5.908  1.00  0.00     0.231 C
HETATM    3  O1  UNL     1      -8.013  35.537  -6.477  1.00  0.00    -0.243 OA
ENDROOT
BRANCH   3   4
HETATM    4  C2  UNL     1      -8.618  34.254  -6.289  1.00  0.00     0.393 C
BRANCH   4   5
HETATM    5  N2  UNL     1      -8.209  33.689  -5.018  1.00  0.00    -0.046 N
ATOM      6  H23 UNL     1      -7.677  32.827  -5.137  1.00  0.00     0.277 HD
ATOM      7  H22 UNL     1      -7.486  34.249  -4.566  1.00  0.00     0.277 HD
ATOM      8  H21 UNL     1      -9.020  33.555  -4.414  1.00  0.00     0.277 HD
ENDBRANCH   4   5
BRANCH   4   9
HETATM    9  C3  UNL     1      -8.167  33.330  -7.369  1.00  0.00     0.137 A
HETATM   10  N3  UNL     1      -7.855  33.606  -8.641  1.00  0.00    -0.281 N
HETATM   11  N4  UNL     1      -7.507  32.485  -9.234  1.00  0.00    -0.232 N
ATOM     12  H3  UNL     1      -7.882  34.528  -9.076  1.00  0.00     0.188 HD
HETATM   13  N5  UNL     1      -7.577  31.456  -8.390  1.00  0.00    -0.197 N
ATOM     14  H4  UNL     1      -7.223  32.413 -10.210  1.00  0.00     0.209 HD
HETATM   15  C13 UNL     1      -7.991  31.981  -7.218  1.00  0.00     0.194 A
BRANCH  13  16
HETATM   16  C4  UNL     1      -7.278  30.107  -8.678  1.00  0.00     0.175 A
HETATM   17  N6  UNL     1      -6.790  29.277  -7.763  1.00  0.00    -0.331 N
HETATM   18  C5  UNL     1      -6.490  27.975  -8.003  1.00  0.00     0.136 A
ATOM     19  H6  UNL     1      -6.630  29.640  -6.823  1.00  0.00     0.168 HD
HETATM   20  C10 UNL     1      -6.717  27.522  -9.270  1.00  0.00     0.102 A
HETATM   21  N11 UNL     1      -7.221  28.367 -10.226  1.00  0.00    -0.338 N
HETATM   22  C12 UNL     1      -7.496  29.630  -9.942  1.00  0.00     0.146 A
ATOM     23  H11 UNL     1      -7.386  28.017 -11.170  1.00  0.00     0.167 HD
BRANCH  18  24
HETATM   24  C6  UNL     1      -5.951  27.141  -6.954  1.00  0.00     0.312 C
HETATM   25  O2  UNL     1      -6.805  26.656  -6.108  1.00  0.00    -0.258 OA
BRANCH  24  26
HETATM   26  O3  UNL     1      -4.651  26.787  -6.721  1.00  0.00    -0.308 OA
BRANCH  26  27
HETATM   27  C7  UNL     1      -4.141  26.302  -5.502  1.00  0.00     0.265 C
BRANCH  27  28
HETATM   28  C8  UNL     1      -3.611  24.926  -5.693  1.00  0.00     0.168 A
HETATM   29  N7  UNL     1      -2.403  24.447  -5.299  1.00  0.00    -0.277 N
HETATM   30  N8  UNL     1      -2.384  23.185  -5.683  1.00  0.00    -0.243 N
ATOM     31  H7  UNL     1      -1.667  24.955  -4.809  1.00  0.00     0.189 HD
HETATM   32  C9  UNL     1      -3.531  22.858  -6.301  1.00  0.00     0.385 A
ATOM     33  H8  UNL     1      -1.604  22.544  -5.531  1.00  0.00     0.192 HD
HETATM   34  O4  UNL     1      -3.866  21.755  -6.795  1.00  0.00    -0.236 OA
HETATM   35  O5  UNL     1      -4.246  23.955  -6.281  1.00  0.00    -0.243 OA
ENDBRANCH  27  28
ENDBRANCH  26  27
ENDBRANCH  24  26
ENDBRANCH  18  24
BRANCH  20  36
HETATM   36  C11 UNL     1      -6.482  26.150  -9.755  1.00  0.00     0.429 C
BRANCH  36  37
HETATM   37  N9  UNL     1      -7.695  25.777 -10.509  1.00  0.00    -0.045 N
ATOM     38  H93 UNL     1      -8.562  25.985 -10.014  1.00  0.00     0.277 HD
ATOM     39  H92 UNL     1      -7.870  26.370 -11.320  1.00  0.00     0.277 HD
ATOM     40  H91 UNL     1      -7.584  24.790 -10.741  1.00  0.00     0.277 HD
ENDBRANCH  36  37
BRANCH  36  41
HETATM   41  N10 UNL     1      -5.370  26.226 -10.691  1.00  0.00    -0.045 N
ATOM     42 3H10 UNL     1      -4.498  26.526 -10.257  1.00  0.00     0.277 HD
ATOM     43 2H10 UNL     1      -5.047  25.312 -11.008  1.00  0.00     0.277 HD
ATOM     44 1H10 UNL     1      -5.672  26.833 -11.452  1.00  0.00     0.277 HD
ENDBRANCH  36  41
ENDBRANCH  20  36
BRANCH  22  45
HETATM   45  N12 UNL     1      -7.979  30.411 -10.886  1.00  0.00    -0.382 N
ATOM     46 2H12 UNL     1      -8.384  31.311 -10.628  1.00  0.00     0.157 HD
ATOM     47 1H12 UNL     1      -7.951  30.128 -11.865  1.00  0.00     0.157 HD
ENDBRANCH  22  45
ENDBRANCH  13  16
BRANCH  15  48
HETATM   48  O6  UNL     1      -8.189  31.227  -6.072  1.00  0.00    -0.343 OA
ATOM     49  H6  UNL     1      -7.529  30.912  -5.465  1.00  0.00     0.219 HD
ENDBRANCH  15  48
ENDBRANCH   4   9
ENDBRANCH   3   4
TORSDOF 13
ENDMDL