MODEL 5
REMARK VINA RESULT: -7.601135660      2.291      3.221
REMARK  10 active torsions:
REMARK  status: ('A' for Active; 'I' for Inactive)
REMARK    1  A    between atoms: C4_7  and  N4_8
REMARK    2  A    between atoms: N5_11  and  C5_12
REMARK    3  A    between atoms: C5_12  and  C6_13
REMARK    4  A    between atoms: C6_13  and  N11_29
REMARK    5  A    between atoms: N6_14  and  O1_16
REMARK    6  A    between atoms: O1_16  and  C7_17
REMARK    7  A    between atoms: C8_23  and  N9_24
REMARK    8  A    between atoms: N9_24  and  N10_26
REMARK    9  A    between atoms: N11_29  and  C9_31
REMARK   10  A    between atoms: C9_31  and  C10_32
ROOT
HETATM    1  C6  UNL     1      -7.845  31.978  -8.704  1.00  0.00     0.117 C
HETATM    2  N6  UNL     1      -8.130  32.727  -9.736  1.00  0.00    -0.245 N
ATOM      3  H6  UNL     1      -7.433  32.919 -10.455  1.00  0.00     0.196 HD
ENDROOT
BRANCH   1   4
HETATM    4  C5  UNL     1      -6.497  31.368  -8.525  1.00  0.00     0.213 C
BRANCH   4   5
HETATM    5  N5  UNL     1      -6.491  29.961  -8.749  1.00  0.00    -0.277 N
HETATM    6  C4  UNL     1      -6.393  29.099  -7.733  1.00  0.00     0.133 A
HETATM    7  C3  UNL     1      -6.384  27.716  -7.950  1.00  0.00     0.131 A
HETATM    8  C2  UNL     1      -6.476  27.243  -9.233  1.00  0.00     0.150 A
HETATM    9  N3  UNL     1      -6.281  26.818  -6.866  1.00  0.00    -0.095 NA
HETATM   10  N1  UNL     1      -6.573  28.132 -10.235  1.00  0.00    -0.290 N
HETATM   11  N2  UNL     1      -6.470  25.830  -9.506  1.00  0.00    -0.080 NA
HETATM   12  C1  UNL     1      -6.672  27.643 -11.595  1.00  0.00     0.162 C
HETATM   13  C12 UNL     1      -6.580  29.477  -9.995  1.00  0.00     0.331 A
HETATM   14  O3  UNL     1      -6.674  30.228 -11.003  1.00  0.00    -0.246 OA
BRANCH   6  15
HETATM   15  N4  UNL     1      -6.304  29.462  -6.501  1.00  0.00    -0.384 N
ATOM     16  H42 UNL     1      -6.113  28.813  -5.736  1.00  0.00     0.157 HD
ATOM     17  H41 UNL     1      -6.436  30.458  -6.329  1.00  0.00     0.157 HD
ENDBRANCH   6  15
ENDBRANCH   4   5
ENDBRANCH   1   4
BRANCH   1  18
HETATM   18  N11 UNL     1      -8.800  31.701  -7.692  1.00  0.00    -0.371 N
ATOM     19  H11 UNL     1      -9.598  31.104  -7.912  1.00  0.00     0.161 HD
BRANCH  18  20
HETATM   20  C9  UNL     1      -8.673  32.240  -6.364  1.00  0.00     0.187 C
BRANCH  20  21
HETATM   21  C10 UNL     1      -8.357  33.710  -6.473  1.00  0.00     0.087 A
HETATM   22  N12 UNL     1      -9.038  34.674  -7.055  1.00  0.00    -0.294 N
HETATM   23  N13 UNL     1      -8.609  35.867  -7.045  1.00  0.00    -0.279 N
ATOM     24  H12 UNL     1      -9.920  34.458  -7.519  1.00  0.00     0.187 HD
HETATM   25  C11 UNL     1      -7.448  36.126  -6.430  1.00  0.00     0.158 A
ATOM     26  H13 UNL     1      -9.138  36.614  -7.495  1.00  0.00     0.189 HD
HETATM   27  N14 UNL     1      -6.848  37.290  -6.317  1.00  0.00    -0.379 N
HETATM   28  S1  UNL     1      -6.997  34.577  -5.865  1.00  0.00    -0.037 SA
ATOM     29 2H14 UNL     1      -7.117  38.215  -6.655  1.00  0.00     0.158 HD
ATOM     30 1H14 UNL     1      -5.964  37.488  -5.849  1.00  0.00     0.158 HD
ENDBRANCH  20  21
ENDBRANCH  18  20
ENDBRANCH   1  18
BRANCH   2  31
HETATM   31  O1  UNL     1      -9.391  33.245  -9.819  1.00  0.00    -0.212 OA
BRANCH  31  32
HETATM   32  C7  UNL     1     -10.366  32.862 -10.682  1.00  0.00     0.239 A
HETATM   33  N7  UNL     1     -10.264  32.798 -12.017  1.00  0.00    -0.214 N
HETATM   34  O2  UNL     1     -11.417  32.385 -12.513  1.00  0.00    -0.153 OA
ATOM     35  H7  UNL     1      -9.433  33.031 -12.561  1.00  0.00     0.199 HD
HETATM   36  N8  UNL     1     -12.268  32.178 -11.537  1.00  0.00    -0.220 N
HETATM   37  C8  UNL     1     -11.646  32.467 -10.373  1.00  0.00     0.197 A
ATOM     38  H8  UNL     1     -13.230  31.856 -11.639  1.00  0.00     0.198 HD
BRANCH  37  39
HETATM   39  N9  UNL     1     -12.210  32.367  -9.212  1.00  0.00    -0.287 N
ATOM     40  H9  UNL     1     -12.795  31.556  -9.013  1.00  0.00     0.188 HD
BRANCH  39  41
HETATM   41  N10 UNL     1     -12.039  33.335  -8.227  1.00  0.00    -0.343 N
ATOM     42 2H10 UNL     1     -12.862  33.854  -7.917  1.00  0.00     0.176 HD
ATOM     43 1H10 UNL     1     -11.126  33.532  -7.818  1.00  0.00     0.176 HD
ENDBRANCH  39  41
ENDBRANCH  37  39
ENDBRANCH  31  32
ENDBRANCH   2  31
TORSDOF 10
ENDMDL