MODEL 5
REMARK VINA RESULT: -8.865791525      4.672      8.551
REMARK  10 active torsions:
REMARK  status: ('A' for Active; 'I' for Inactive)
REMARK    1  A    between atoms: N1_1  and  C1_4
REMARK    2  A    between atoms: C4_9  and  N3_10
REMARK    3  A    between atoms: N3_10  and  C5_12
REMARK    4  A    between atoms: C5_12  and  C6_13
REMARK    5  A    between atoms: C5_12  and  C7_16
REMARK    6  A    between atoms: C6_13  and  O1_14
REMARK    7  A    between atoms: C7_16  and  N4_17
REMARK    8  A    between atoms: C9_19  and  C10_20
REMARK    9  A    between atoms: C11_24  and  N6_25
REMARK   10  A    between atoms: C12_34  and  N10_35
ROOT
HETATM    1  C1  UNL     1      -9.546  27.486 -10.653  1.00  0.00     0.678 A
HETATM    2  N2  UNL     1      -8.392  27.129 -10.069  1.00  0.00    -0.188 N
ATOM      3  H2  UNL     1      -8.000  26.198 -10.208  1.00  0.00     0.184 HD
HETATM    4  C2  UNL     1      -7.766  28.034  -9.297  1.00  0.00     0.104 A
HETATM    5  C3  UNL     1      -8.304  29.287  -9.121  1.00  0.00     0.066 A
HETATM    6  C4  UNL     1      -9.497  29.663  -9.721  1.00  0.00     0.130 A
HETATM    7  N9  UNL     1     -10.084  28.731 -10.478  1.00  0.00    -0.176 N
ATOM      8  H9  UNL     1     -10.965  28.956 -10.942  1.00  0.00     0.186 HD
HETATM    9  C12 UNL     1      -7.768  30.396  -8.322  1.00  0.00     0.324 C
HETATM   10  N11 UNL     1      -7.023  30.006  -7.173  1.00  0.00    -0.333 N
ATOM     11  H11 UNL     1      -7.130  30.679  -6.414  1.00  0.00     0.164 HD
HETATM   12  C13 UNL     1      -6.257  29.042  -6.835  1.00  0.00     0.191 C
HETATM   13  N12 UNL     1      -5.700  29.042  -5.539  1.00  0.00    -0.063 NA
HETATM   14  N13 UNL     1      -5.918  27.937  -7.699  1.00  0.00    -0.317 N
ATOM     15  H13 UNL     1      -5.067  27.434  -7.447  1.00  0.00     0.169 HD
HETATM   16  C14 UNL     1      -6.533  27.490  -8.742  1.00  0.00     0.146 C
HETATM   17  N14 UNL     1      -6.006  26.374  -9.445  1.00  0.00    -0.080 NA
ENDROOT
BRANCH   6  18
HETATM   18  N3  UNL     1      -9.928  30.778  -9.532  1.00  0.00    -0.367 N
ATOM     19  H3  UNL     1      -9.113  31.390  -9.487  1.00  0.00     0.161 HD
BRANCH  18  20
HETATM   20  C5  UNL     1     -11.018  31.591  -9.350  1.00  0.00     0.126 C
BRANCH  20  21
HETATM   21  C6  UNL     1     -12.187  31.052 -10.190  1.00  0.00     0.191 C
BRANCH  21  22
HETATM   22  O1  UNL     1     -13.365  31.226  -9.512  1.00  0.00    -0.399 OA
ATOM     23  H1  UNL     1     -13.633  30.405  -9.117  1.00  0.00     0.209 HD
ENDBRANCH  21  22
ENDBRANCH  20  21
BRANCH  20  24
HETATM   24  C7  UNL     1     -10.854  33.081  -9.521  1.00  0.00     0.176 C
BRANCH  24  25
HETATM   25  N4  UNL     1     -10.108  33.687  -8.439  1.00  0.00    -0.285 N
HETATM   26  C8  UNL     1      -9.364  34.836  -8.463  1.00  0.00     0.145 A
HETATM   27  C9  UNL     1      -8.809  35.079  -7.238  1.00  0.00     0.099 A
HETATM   28  N7  UNL     1      -9.246  34.034  -6.474  1.00  0.00    -0.282 N
HETATM   29  N8  UNL     1     -10.000  33.243  -7.207  1.00  0.00    -0.240 N
ATOM     30  H7  UNL     1      -9.024  33.889  -5.489  1.00  0.00     0.188 HD
ATOM     31  H8  UNL     1     -10.445  32.392  -6.863  1.00  0.00     0.208 HD
BRANCH  27  32
HETATM   32  C10 UNL     1      -7.960  36.113  -6.705  1.00  0.00     0.143 A
HETATM   33  N5  UNL     1      -7.666  37.407  -7.048  1.00  0.00    -0.252 N
HETATM   34  O2  UNL     1      -6.864  37.543  -6.069  1.00  0.00    -0.210 OA
ATOM     35  H5  UNL     1      -7.971  38.025  -7.800  1.00  0.00     0.195 HD
HETATM   36  C11 UNL     1      -7.087  36.300  -5.659  1.00  0.00     0.266 A
BRANCH  36  37
HETATM   37  N6  UNL     1      -6.542  35.609  -4.552  1.00  0.00    -0.086 N
HETATM   38  O3  UNL     1      -5.403  35.835  -4.162  1.00  0.00    -0.530 OA
HETATM   39  O4  UNL     1      -7.292  34.670  -3.898  1.00  0.00    -0.530 OA
ENDBRANCH  36  37
ENDBRANCH  27  32
ENDBRANCH  24  25
ENDBRANCH  20  24
ENDBRANCH  18  20
ENDBRANCH   6  18
BRANCH   9  40
HETATM   40  N10 UNL     1      -6.939  31.206  -9.231  1.00  0.00    -0.054 N
ATOM     41 3H10 UNL     1      -5.948  31.199  -8.988  1.00  0.00     0.277 HD
ATOM     42 2H10 UNL     1      -6.845  30.798 -10.161  1.00  0.00     0.277 HD
ATOM     43 1H10 UNL     1      -7.346  32.141  -9.239  1.00  0.00     0.277 HD
ENDBRANCH   9  40
BRANCH   1  44
HETATM   44  N1  UNL     1     -10.187  26.637 -11.409  1.00  0.00    -0.234 N
ATOM     45  H12 UNL     1      -9.729  25.755 -11.638  1.00  0.00     0.174 HD
ATOM     46  H11 UNL     1     -11.119  26.863 -11.755  1.00  0.00     0.174 HD
ENDBRANCH   1  44
TORSDOF 10
ENDMDL