MODEL 4
REMARK VINA RESULT: -5.358207661      1.321      1.326
REMARK  4 active torsions:
REMARK  status: ('A' for Active; 'I' for Inactive)
REMARK    1  A    between atoms: C3_3  and  C4_4
REMARK       I    between atoms: C4_4  and  N1_6
REMARK    2  A    between atoms: N1_6  and  C5_8
REMARK    3  A    between atoms: C7_14  and  O3_15
REMARK    4  A    between atoms: C8_20  and  C10_22
REMARK       I    between atoms: C10_22  and  N4_24
ROOT
HETATM    1  C1  UNL     1      20.318  10.865  34.078  1.00  0.00     0.025 C
HETATM    2  C2  UNL     1      19.359  10.006  33.913  1.00  0.00     0.013 C
HETATM    3  C3  UNL     1      19.336   8.577  34.185  1.00  0.00     0.131 C
HETATM    4  N3  UNL     1      18.496   8.056  33.315  1.00  0.00    -0.259 N
ATOM      5  H3  UNL     1      18.265   7.065  33.248  1.00  0.00     0.194 HD
HETATM    6  O4  UNL     1      17.975   9.044  32.507  1.00  0.00    -0.254 OA
HETATM    7  C8  UNL     1      17.981  10.244  33.319  1.00  0.00     0.194 C
HETATM    8  C9  UNL     1      16.996  10.116  34.424  1.00  0.00     0.065 C
ENDROOT
BRANCH   3   9
HETATM    9  C4  UNL     1      20.055   7.807  35.171  1.00  0.00     0.275 C
HETATM   10  O1  UNL     1      19.369   7.121  36.010  1.00  0.00    -0.266 OA
HETATM   11  N1  UNL     1      21.442   7.738  35.303  1.00  0.00    -0.312 N
ATOM     12  H1  UNL     1      22.048   8.263  34.673  1.00  0.00     0.170 HD
BRANCH  11  13
HETATM   13  C5  UNL     1      22.006   6.914  36.343  1.00  0.00     0.133 A
HETATM   14  S1  UNL     1      22.182   7.295  37.999  1.00  0.00    -0.007 SA
HETATM   15  C6  UNL     1      22.907   5.836  38.508  1.00  0.00     0.292 A
HETATM   16  O2  UNL     1      23.295   5.492  39.681  1.00  0.00    -0.260 OA
HETATM   17  N2  UNL     1      22.977   5.132  37.381  1.00  0.00    -0.296 N
HETATM   18  C7  UNL     1      22.530   5.652  36.277  1.00  0.00     0.178 A
ATOM     19  H2  UNL     1      23.376   4.194  37.383  1.00  0.00     0.171 HD
BRANCH  18  20
HETATM   20  O3  UNL     1      22.555   4.986  35.015  1.00  0.00    -0.344 OA
ATOM     21  H3  UNL     1      23.346   5.035  34.491  1.00  0.00     0.219 HD
ENDBRANCH  18  20
ENDBRANCH  11  13
ENDBRANCH   3   9
BRANCH   7  22
HETATM   22  C10 UNL     1      17.911  11.457  32.517  1.00  0.00     0.259 C
HETATM   23  O5  UNL     1      17.346  12.474  32.993  1.00  0.00    -0.270 OA
HETATM   24  N4  UNL     1      18.455  11.555  31.207  1.00  0.00    -0.362 N
HETATM   25  C11 UNL     1      18.368  12.776  30.435  1.00  0.00     0.149 C
ATOM     26  H4  UNL     1      18.918  10.743  30.800  1.00  0.00     0.162 HD
ENDBRANCH   7  22
TORSDOF 4
ENDMDL