MODEL 2
REMARK VINA RESULT: -5.472793801      2.526      3.920
REMARK  5 active torsions:
REMARK  status: ('A' for Active; 'I' for Inactive)
REMARK    1  A    between atoms: N1_2  and  C2_4
REMARK    2  A    between atoms: C5_9  and  C6_10
REMARK    3  A    between atoms: C6_10  and  O2_12
REMARK    4  A    between atoms: C9_16  and  C10_17
REMARK       I    between atoms: C10_17  and  N4_19
REMARK    5  A    between atoms: N5_21  and  N6_23
ROOT
HETATM    1  C2  UNL     1      19.046  11.903  35.200  1.00  0.00     0.118 A
HETATM    2  N2  UNL     1      20.179  12.167  35.869  1.00  0.00    -0.345 N
ATOM      3  H2  UNL     1      20.460  13.133  36.039  1.00  0.00     0.167 HD
HETATM    4  C3  UNL     1      20.956  11.140  36.324  1.00  0.00     0.025 A
HETATM    5  C4  UNL     1      22.192  11.472  37.055  1.00  0.00     0.069 C
HETATM    6  C5  UNL     1      20.627   9.827  36.125  1.00  0.00     0.087 A
HETATM    7  C8  UNL     1      19.452   9.569  35.431  1.00  0.00     0.084 A
HETATM    8  N3  UNL     1      19.075   8.194  35.203  1.00  0.00    -0.100 NA
HETATM    9  C9  UNL     1      18.670  10.600  34.973  1.00  0.00     0.102 A
ENDROOT
BRANCH   9  10
HETATM   10  C10 UNL     1      17.441  10.267  34.245  1.00  0.00     0.276 C
HETATM   11  O3  UNL     1      16.359  10.853  34.496  1.00  0.00    -0.266 OA
HETATM   12  N4  UNL     1      17.413   9.276  33.227  1.00  0.00    -0.251 N
HETATM   13  N5  UNL     1      17.362   9.595  32.006  1.00  0.00    -0.238 N
ATOM     14  H4  UNL     1      17.433   8.289  33.487  1.00  0.00     0.192 HD
ATOM     15  H5  UNL     1      17.342   8.870  31.288  1.00  0.00     0.208 HD
BRANCH  13  16
HETATM   16  N6  UNL     1      17.334  10.924  31.647  1.00  0.00    -0.261 N
HETATM   17  C11 UNL     1      18.340  11.664  31.440  1.00  0.00     0.216 C
HETATM   18  N7  UNL     1      18.179  13.021  31.075  1.00  0.00    -0.065 NA
HETATM   19  N8  UNL     1      19.648  11.147  31.568  1.00  0.00    -0.065 NA
ATOM     20  H6  UNL     1      16.415  11.353  31.539  1.00  0.00     0.190 HD
ENDBRANCH  13  16
ENDBRANCH   9  10
BRANCH   1  21
HETATM   21  N1  UNL     1      18.291  12.860  34.756  1.00  0.00    -0.380 N
HETATM   22  C1  UNL     1      17.768  13.833  35.717  1.00  0.00     0.147 C
ATOM     23  H1  UNL     1      18.067  12.932  33.764  1.00  0.00     0.160 HD
ENDBRANCH   1  21
BRANCH   6  24
HETATM   24  C6  UNL     1      21.403   8.690  36.579  1.00  0.00     0.296 C
HETATM   25  O1  UNL     1      21.211   8.163  37.699  1.00  0.00    -0.259 OA
BRANCH  24  26
HETATM   26  O2  UNL     1      22.407   8.112  35.807  1.00  0.00    -0.322 OA
HETATM   27  C7  UNL     1      22.388   6.764  35.405  1.00  0.00     0.213 C
ENDBRANCH  24  26
ENDBRANCH   6  24
TORSDOF 5
ENDMDL