MODEL 3
REMARK VINA RESULT: -5.048688819      3.694      5.726
REMARK  5 active torsions:
REMARK  status: ('A' for Active; 'I' for Inactive)
REMARK    1  A    between atoms: N1_1  and  C1_4
REMARK    2  A    between atoms: C2_7  and  C3_8
REMARK    3  A    between atoms: C4_17  and  N7_18
REMARK    4  A    between atoms: C8_22  and  N8_23
REMARK    5  A    between atoms: N8_23  and  C9_25
ROOT
HETATM    1  C1  UNL     1      19.378   8.402  35.216  1.00  0.00     0.678 A
HETATM    2  N2  UNL     1      19.219   9.127  34.120  1.00  0.00    -0.186 N
ATOM      3  H2  UNL     1      19.687   8.837  33.260  1.00  0.00     0.184 HD
HETATM    4  C2  UNL     1      18.438  10.267  34.110  1.00  0.00     0.126 A
HETATM    5  C4  UNL     1      17.827  10.624  35.278  1.00  0.00     0.110 A
HETATM    6  C8  UNL     1      18.020   9.823  36.428  1.00  0.00     0.146 A
HETATM    7  N9  UNL     1      18.791   8.730  36.366  1.00  0.00    -0.175 N
ATOM      8  H9  UNL     1      18.928   8.153  37.196  1.00  0.00     0.186 HD
ENDROOT
BRANCH   4   9
HETATM    9  C3  UNL     1      18.342  10.968  32.835  1.00  0.00     0.167 A
HETATM   10  N3  UNL     1      19.246  11.946  32.468  1.00  0.00    -0.267 N
HETATM   11  N4  UNL     1      18.912  12.382  31.290  1.00  0.00    -0.227 N
ATOM     12  H3  UNL     1      20.038  12.270  33.024  1.00  0.00     0.190 HD
HETATM   13  N5  UNL     1      17.824  11.739  30.854  1.00  0.00    -0.227 N
ATOM     14  H4  UNL     1      19.407  13.109  30.774  1.00  0.00     0.210 HD
HETATM   15  N6  UNL     1      17.547  10.920  31.822  1.00  0.00    -0.267 N
ATOM     16  H5  UNL     1      17.329  11.863  29.971  1.00  0.00     0.210 HD
ATOM     17  H6  UNL     1      16.753  10.281  31.783  1.00  0.00     0.190 HD
ENDBRANCH   4   9
BRANCH   5  18
HETATM   18  N7  UNL     1      17.003  11.804  35.398  1.00  0.00    -0.355 N
HETATM   19  C5  UNL     1      15.741  12.395  35.328  1.00  0.00     0.066 A
HETATM   20  C6  UNL     1      16.219  13.776  35.715  1.00  0.00     0.065 A
HETATM   21  C7  UNL     1      17.531  13.137  35.775  1.00  0.00     0.133 A
ENDBRANCH   5  18
BRANCH   1  22
HETATM   22  N1  UNL     1      20.129   7.327  35.181  1.00  0.00    -0.234 N
ATOM     23  H12 UNL     1      20.701   7.160  34.354  1.00  0.00     0.174 HD
ATOM     24  H11 UNL     1      20.128   6.684  35.973  1.00  0.00     0.174 HD
ENDBRANCH   1  22
BRANCH   6  25
HETATM   25  N8  UNL     1      17.490  10.098  37.534  1.00  0.00    -0.369 N
ATOM     26  H8  UNL     1      17.847  10.927  38.010  1.00  0.00     0.161 HD
BRANCH  25  27
HETATM   27  C9  UNL     1      16.450   9.389  38.204  1.00  0.00     0.087 C
HETATM   28  C10 UNL     1      16.263  10.014  39.566  1.00  0.00     0.051 C
HETATM   29  C11 UNL     1      15.154  11.040  39.579  1.00  0.00     0.169 C
HETATM   30  O1  UNL     1      13.991  10.382  39.181  1.00  0.00    -0.391 OA
HETATM   31  C12 UNL     1      14.107  10.206  37.801  1.00  0.00     0.169 C
HETATM   32  C13 UNL     1      15.197   9.235  37.427  1.00  0.00     0.051 C
ENDBRANCH  25  27
ENDBRANCH   6  25
TORSDOF 5
ENDMDL