MODEL 5
REMARK VINA RESULT: -5.044881446      1.660      2.152
REMARK  5 active torsions:
REMARK  status: ('A' for Active; 'I' for Inactive)
REMARK    1  A    between atoms: C2_4  and  S1_5
REMARK    2  A    between atoms: C2_4  and  N6_19
REMARK    3  A    between atoms: S1_5  and  C3_6
REMARK    4  A    between atoms: C3_6  and  C4_7
REMARK    5  A    between atoms: C6_11  and  N3_12
REMARK       I    between atoms: N7_22  and  C9_23
ROOT
HETATM    1  C1  UNL     1      18.138  12.485  36.831  1.00  0.00     0.148 C
HETATM    2  N1  UNL     1      18.821  11.446  36.113  1.00  0.00    -0.375 N
ATOM      3  H1  UNL     1      19.645  11.673  35.556  1.00  0.00     0.161 HD
HETATM    4  C2  UNL     1      18.402  10.233  36.166  1.00  0.00     0.138 C
ENDROOT
BRANCH   4   5
HETATM    5  S1  UNL     1      19.261   8.976  35.273  1.00  0.00    -0.088 SA
BRANCH   5   6
HETATM    6  C3  UNL     1      18.448   8.601  33.698  1.00  0.00     0.142 C
BRANCH   6   7
HETATM    7  C4  UNL     1      18.475   9.807  32.833  1.00  0.00     0.052 A
HETATM    8  C5  UNL     1      19.579  10.631  32.746  1.00  0.00     0.133 A
HETATM    9  N2  UNL     1      19.560  11.715  31.948  1.00  0.00    -0.199 N
HETATM   10  C6  UNL     1      18.484  12.044  31.210  1.00  0.00     0.690 A
ATOM     11  H2  UNL     1      20.389  12.308  31.901  1.00  0.00     0.183 HD
HETATM   12  N4  UNL     1      17.415  11.230  31.305  1.00  0.00    -0.132 N
HETATM   13  N5  UNL     1      17.406  10.158  32.082  1.00  0.00    -0.288 N
ATOM     14  H4  UNL     1      16.581  11.448  30.759  1.00  0.00     0.205 HD
ATOM     15  H5  UNL     1      16.567   9.580  32.115  1.00  0.00     0.187 HD
BRANCH  10  16
HETATM   16  N3  UNL     1      18.461  13.094  30.435  1.00  0.00    -0.233 N
ATOM     17  H32 UNL     1      18.712  13.024  29.449  1.00  0.00     0.174 HD
ATOM     18  H31 UNL     1      18.195  14.018  30.775  1.00  0.00     0.174 HD
ENDBRANCH  10  16
ENDBRANCH   6   7
ENDBRANCH   5   6
ENDBRANCH   4   5
BRANCH   4  19
HETATM   19  N6  UNL     1      17.255   9.933  36.945  1.00  0.00    -0.359 N
HETATM   20  C7  UNL     1      17.403   9.517  38.327  1.00  0.00     0.145 C
HETATM   21  C8  UNL     1      16.366  10.209  39.201  1.00  0.00     0.145 C
HETATM   22  N7  UNL     1      15.095  10.241  38.522  1.00  0.00    -0.353 N
HETATM   23  C9  UNL     1      14.016  10.993  39.059  1.00  0.00     0.184 C
HETATM   24  C10 UNL     1      14.918   9.502  37.285  1.00  0.00     0.145 C
HETATM   25  N8  UNL     1      14.243  12.022  39.781  1.00  0.00    -0.374 N
HETATM   26  N9  UNL     1      12.679  10.611  38.800  1.00  0.00    -0.064 NA
ATOM     27  H82 UNL     1      15.208  12.297  39.968  1.00  0.00     0.158 HD
ATOM     28  H81 UNL     1      13.469  12.562  40.167  1.00  0.00     0.158 HD
HETATM   29  C11 UNL     1      15.957  10.058  36.310  1.00  0.00     0.145 C
ENDBRANCH   4  19
TORSDOF 5
ENDMDL