MODEL 3
REMARK VINA RESULT: -5.815606447      2.237      3.255
REMARK  4 active torsions:
REMARK  status: ('A' for Active; 'I' for Inactive)
REMARK    1  A    between atoms: C4_9  and  N4_10
REMARK    2  A    between atoms: N4_10  and  C5_12
REMARK    3  A    between atoms: C5_12  and  S1_13
REMARK    4  A    between atoms: S1_13  and  C6_14
ROOT
HETATM    1  N4  UNL     1      15.082  12.335  35.741  1.00  0.00    -0.215 N
ATOM      2  H4  UNL     1      14.364  11.673  36.034  1.00  0.00     0.178 HD
ENDROOT
BRANCH   1   3
HETATM    3  C4  UNL     1      16.078  11.929  35.031  1.00  0.00     0.708 A
HETATM    4  N3  UNL     1      16.941  12.669  34.314  1.00  0.00    -0.019 N
HETATM    5  C3  UNL     1      17.833  11.830  33.721  1.00  0.00     0.720 A
ATOM      6  H3  UNL     1      16.930  13.685  34.229  1.00  0.00     0.203 HD
HETATM    7  N2  UNL     1      18.901  11.699  32.931  1.00  0.00    -0.196 N
HETATM    8  N8  UNL     1      17.470  10.600  34.108  1.00  0.00    -0.056 N
HETATM    9  C2  UNL     1      19.216  10.398  32.814  1.00  0.00     0.153 A
ATOM     10  H2  UNL     1      19.400  12.468  32.485  1.00  0.00     0.183 HD
HETATM   11  C1  UNL     1      18.311   9.676  33.561  1.00  0.00     0.172 A
HETATM   12  N1  UNL     1      18.266   8.276  33.724  1.00  0.00    -0.079 NA
HETATM   13  N7  UNL     1      16.415  10.633  34.897  1.00  0.00    -0.109 N
ATOM     14  H7  UNL     1      15.947   9.833  35.324  1.00  0.00     0.207 HD
ENDBRANCH   1   3
BRANCH   1  15
HETATM   15  C5  UNL     1      14.980  13.731  36.128  1.00  0.00     0.219 C
BRANCH  15  16
HETATM   16  S1  UNL     1      13.299  14.011  36.747  1.00  0.00    -0.090 SA
BRANCH  16  17
HETATM   17  C6  UNL     1      12.547  15.261  35.698  1.00  0.00     0.093 A
HETATM   18  N5  UNL     1      11.486  14.995  34.926  1.00  0.00    -0.291 N
HETATM   19  N6  UNL     1      10.935  15.911  34.157  1.00  0.00    -0.265 N
ATOM     20  H5  UNL     1      11.092  14.053  34.934  1.00  0.00     0.187 HD
HETATM   21  C7  UNL     1      11.433  17.154  34.127  1.00  0.00     0.266 A
ATOM     22  H6  UNL     1      10.127  15.672  33.582  1.00  0.00     0.190 HD
HETATM   23  O1  UNL     1      10.945  18.068  33.410  1.00  0.00    -0.266 OA
HETATM   24  C8  UNL     1      12.512  17.484  34.892  1.00  0.00     0.020 A
HETATM   25  C9  UNL     1      13.082  16.524  35.694  1.00  0.00    -0.011 A
HETATM   26  C12 UNL     1      13.306  18.752  35.095  1.00  0.00     0.045 C
HETATM   27  C10 UNL     1      14.253  17.103  36.446  1.00  0.00     0.042 C
HETATM   28  C11 UNL     1      13.785  18.563  36.520  1.00  0.00     0.009 C
ENDBRANCH  16  17
ENDBRANCH  15  16
ENDBRANCH   1  15
TORSDOF 4
ENDMDL