MODEL 1
REMARK VINA RESULT: -5.645334679      0.000      0.000
REMARK  5 active torsions:
REMARK  status: ('A' for Active; 'I' for Inactive)
REMARK    1  A    between atoms: C2_2  and  C3_3
REMARK    2  A    between atoms: C5_9  and  N3_10
REMARK    3  A    between atoms: N3_10  and  C6_12
REMARK    4  A    between atoms: C6_12  and  C7_13
REMARK    5  A    between atoms: C8_22  and  N8_23
ROOT
HETATM    1  C3  UNL     1      17.798  11.225  33.841  1.00  0.00     0.018 A
HETATM    2  N1  UNL     1      16.813  12.113  34.092  1.00  0.00    -0.344 N
ATOM      3  H1  UNL     1      16.666  12.877  33.433  1.00  0.00     0.167 HD
HETATM    4  C4  UNL     1      16.016  12.034  35.175  1.00  0.00     0.136 A
HETATM    5  N2  UNL     1      15.039  12.922  35.414  1.00  0.00    -0.324 N
ATOM      6  H2  UNL     1      14.890  13.686  34.755  1.00  0.00     0.169 HD
HETATM    7  C5  UNL     1      14.255  12.834  36.491  1.00  0.00     0.147 A
HETATM    8  C8  UNL     1      14.496  11.774  37.361  1.00  0.00     0.146 A
HETATM    9  N9  UNL     1      15.469  10.872  37.142  1.00  0.00    -0.335 N
ATOM     10  H9  UNL     1      15.621  10.108  37.800  1.00  0.00     0.168 HD
HETATM   11  C10 UNL     1      16.245  10.989  36.043  1.00  0.00     0.103 A
HETATM   12  C11 UNL     1      17.257  10.048  35.818  1.00  0.00     0.084 A
HETATM   13  N10 UNL     1      17.460   8.982  36.742  1.00  0.00    -0.099 NA
HETATM   14  C12 UNL     1      18.048  10.170  34.693  1.00  0.00    -0.013 A
HETATM   15  C13 UNL     1      19.134   9.170  34.441  1.00  0.00     0.052 C
ENDROOT
BRANCH   7  16
HETATM   16  N3  UNL     1      13.296  13.679  36.753  1.00  0.00    -0.366 N
ATOM     17  H3  UNL     1      12.533  13.437  37.385  1.00  0.00     0.161 HD
BRANCH  16  18
HETATM   18  C6  UNL     1      13.359  14.976  36.107  1.00  0.00     0.200 C
BRANCH  18  19
HETATM   19  C7  UNL     1      12.156  15.262  35.325  1.00  0.00     0.131 A
HETATM   20  N4  UNL     1      11.969  16.344  34.551  1.00  0.00    -0.271 N
HETATM   21  N5  UNL     1      10.760  16.267  33.994  1.00  0.00    -0.227 N
ATOM     22  H4  UNL     1      12.641  17.098  34.411  1.00  0.00     0.190 HD
HETATM   23  N6  UNL     1      10.191  15.154  34.410  1.00  0.00    -0.227 N
ATOM     24  H5  UNL     1      10.348  16.950  33.359  1.00  0.00     0.210 HD
HETATM   25  N7  UNL     1      11.043  14.536  35.225  1.00  0.00    -0.271 N
ATOM     26  H6  UNL     1       9.261  14.822  34.152  1.00  0.00     0.210 HD
ATOM     27  H7  UNL     1      10.872  13.648  35.698  1.00  0.00     0.190 HD
ENDBRANCH  18  19
ENDBRANCH  16  18
ENDBRANCH   7  16
BRANCH   8  28
HETATM   28  N8  UNL     1      13.748  11.665  38.417  1.00  0.00    -0.378 N
HETATM   29  C9  UNL     1      12.978  10.475  38.676  1.00  0.00     0.148 C
ATOM     30  H8  UNL     1      13.705  12.440  39.079  1.00  0.00     0.160 HD
ENDBRANCH   8  28
BRANCH   1  31
HETATM   31  C2  UNL     1      18.624  11.400  32.617  1.00  0.00     0.053 C
HETATM   32  C1  UNL     1      17.801  11.850  31.438  1.00  0.00     0.011 C
ENDBRANCH   1  31
TORSDOF 5
ENDMDL