MODEL 1
REMARK VINA RESULT: -5.184588675      0.000      0.000
REMARK  5 active torsions:
REMARK  status: ('A' for Active; 'I' for Inactive)
REMARK    1  A    between atoms: C2_2  and  N1_3
REMARK    2  A    between atoms: N1_3  and  C3_5
REMARK    3  A    between atoms: C5_10  and  N4_11
REMARK    4  A    between atoms: C7_17  and  S1_18
REMARK    5  A    between atoms: S1_18  and  N6_19
ROOT
HETATM    1  C3  UNL     1      19.271  10.961  31.904  1.00  0.00     0.132 A
HETATM    2  N2  UNL     1      18.528   9.972  32.458  1.00  0.00    -0.327 N
ATOM      3  H2  UNL     1      17.680   9.671  31.977  1.00  0.00     0.168 HD
HETATM    4  C4  UNL     1      18.861   9.371  33.613  1.00  0.00     0.153 A
HETATM    5  N3  UNL     1      18.052   8.330  34.169  1.00  0.00    -0.080 NA
HETATM    6  C5  UNL     1      20.005   9.787  34.250  1.00  0.00     0.172 A
HETATM    7  C6  UNL     1      20.814  10.793  33.743  1.00  0.00     0.102 A
HETATM    8  N5  UNL     1      21.955  11.377  34.149  1.00  0.00    -0.327 N
ATOM      9  H5  UNL     1      22.473  11.148  34.998  1.00  0.00     0.168 HD
HETATM   10  C7  UNL     1      22.297  12.312  33.249  1.00  0.00     0.225 A
HETATM   11  N7  UNL     1      21.367  12.307  32.283  1.00  0.00    -0.326 N
ATOM     12  H7  UNL     1      21.369  12.916  31.465  1.00  0.00     0.168 HD
HETATM   13  C8  UNL     1      20.424  11.373  32.555  1.00  0.00     0.108 A
ENDROOT
BRANCH  10  14
HETATM   14  S1  UNL     1      23.724  13.346  33.353  1.00  0.00     0.288 S
HETATM   15  O3  UNL     1      23.258  14.700  33.736  1.00  0.00    -0.198 OA
HETATM   16  O4  UNL     1      24.652  12.814  34.396  1.00  0.00    -0.198 OA
BRANCH  14  17
HETATM   17  N6  UNL     1      24.486  13.336  31.780  1.00  0.00    -0.322 N
ATOM     18  H62 UNL     1      24.596  14.144  31.167  1.00  0.00     0.169 HD
ATOM     19  H61 UNL     1      24.794  12.380  31.600  1.00  0.00     0.169 HD
ENDBRANCH  14  17
ENDBRANCH  10  14
BRANCH   6  20
HETATM   20  N4  UNL     1      20.436   9.202  35.485  1.00  0.00    -0.110 N
HETATM   21  O1  UNL     1      20.183   9.770  36.569  1.00  0.00    -0.532 OA
HETATM   22  O2  UNL     1      21.129   8.011  35.476  1.00  0.00    -0.532 OA
ENDBRANCH   6  20
BRANCH   1  23
HETATM   23  N1  UNL     1      18.901  11.489  30.810  1.00  0.00    -0.375 N
ATOM     24  H1  UNL     1      19.316  11.118  29.955  1.00  0.00     0.161 HD
BRANCH  23  25
HETATM   25  C2  UNL     1      17.955  12.556  30.664  1.00  0.00     0.116 C
HETATM   26  C1  UNL     1      18.510  13.621  29.720  1.00  0.00     0.026 C
ENDBRANCH  23  25
ENDBRANCH   1  23
TORSDOF 5
ENDMDL