MODEL 4
REMARK VINA RESULT: -5.184016265      5.088      6.974
REMARK  4 active torsions:
REMARK  status: ('A' for Active; 'I' for Inactive)
REMARK    1  A    between atoms: C2_2  and  C4_4
REMARK    2  A    between atoms: C4_4  and  N2_8
REMARK    3  A    between atoms: N2_8  and  C5_10
REMARK    4  A    between atoms: C9_19  and  C10_20
ROOT
HETATM    1  C5  UNL     1      20.291   8.409  35.317  1.00  0.00     0.107 C
HETATM    2  C6  UNL     1      21.585   8.829  35.547  1.00  0.00     0.077 C
HETATM    3  C7  UNL     1      22.152   9.981  35.041  1.00  0.00     0.118 C
HETATM    4  S1  UNL     1      23.668  10.238  35.593  1.00  0.00    -0.060 SA
HETATM    5  N3  UNL     1      21.627  10.886  34.182  1.00  0.00    -0.179 N
ATOM      6  H3  UNL     1      22.202  11.710  34.007  1.00  0.00     0.185 HD
HETATM    7  C8  UNL     1      20.435  10.851  33.516  1.00  0.00     0.709 A
HETATM    8  N4  UNL     1      20.021  11.784  32.638  1.00  0.00    -0.168 N
ATOM      9  H4  UNL     1      20.556  12.614  32.380  1.00  0.00     0.186 HD
HETATM   10  C9  UNL     1      18.807  11.477  32.146  1.00  0.00     0.202 A
HETATM   11  N6  UNL     1      18.475  10.315  32.750  1.00  0.00    -0.257 N
ATOM     12  H6  UNL     1      17.606   9.804  32.598  1.00  0.00     0.190 HD
HETATM   13  N7  UNL     1      19.446   9.940  33.568  1.00  0.00    -0.044 N
HETATM   14  C11 UNL     1      19.409   8.817  34.316  1.00  0.00     0.309 C
HETATM   15  O2  UNL     1      18.466   8.035  34.089  1.00  0.00    -0.263 OA
ENDROOT
BRANCH   1  16
HETATM   16  N2  UNL     1      19.821   7.435  36.233  1.00  0.00    -0.341 N
ATOM     17  H2  UNL     1      19.092   7.686  36.901  1.00  0.00     0.167 HD
BRANCH  16  18
HETATM   18  C4  UNL     1      20.349   6.115  36.236  1.00  0.00     0.078 C
HETATM   19  N1  UNL     1      20.389   5.507  37.371  1.00  0.00    -0.389 N
ATOM     20  H12 UNL     1      20.768   4.560  37.373  1.00  0.00     0.157 HD
ATOM     21  H11 UNL     1      20.051   5.978  38.210  1.00  0.00     0.157 HD
BRANCH  18  22
HETATM   22  C2  UNL     1      20.837   5.436  35.024  1.00  0.00     0.045 C
HETATM   23  C1  UNL     1      20.168   4.085  34.909  1.00  0.00     0.017 C
HETATM   24  C3  UNL     1      22.327   5.182  35.168  1.00  0.00     0.017 C
ENDBRANCH  18  22
ENDBRANCH  16  18
ENDBRANCH   1  16
BRANCH  10  25
HETATM   25  C10 UNL     1      18.003  12.210  31.179  1.00  0.00     0.300 C
HETATM   26  N5  UNL     1      18.567  13.253  30.410  1.00  0.00    -0.054 NA
HETATM   27  O1  UNL     1      16.792  11.932  31.007  1.00  0.00    -0.268 OA
ENDBRANCH  10  25
TORSDOF 4
ENDMDL