MODEL 3
REMARK VINA RESULT: -5.267145257      1.778      2.965
REMARK  6 active torsions:
REMARK  status: ('A' for Active; 'I' for Inactive)
REMARK    1  A    between atoms: C2_2  and  C4_4
REMARK    2  A    between atoms: C4_4  and  O1_5
REMARK    3  A    between atoms: C4_4  and  C5_7
REMARK       I    between atoms: C5_7  and  N1_9
REMARK    4  A    between atoms: N1_9  and  C6_11
REMARK    5  A    between atoms: C7_14  and  N3_15
REMARK    6  A    between atoms: C9_21  and  N5_22
ROOT
HETATM    1  C6  UNL     1      17.205  12.514  34.366  1.00  0.00     0.153 A
HETATM    2  N2  UNL     1      16.574  11.330  34.587  1.00  0.00    -0.174 N
ATOM      3  H2  UNL     1      16.629  10.587  33.891  1.00  0.00     0.186 HD
HETATM    4  C7  UNL     1      15.882  11.137  35.716  1.00  0.00     0.678 A
HETATM    5  N4  UNL     1      15.792  12.114  36.667  1.00  0.00    -0.186 N
ATOM      6  H4  UNL     1      15.258  11.938  37.518  1.00  0.00     0.184 HD
HETATM    7  C8  UNL     1      16.389  13.286  36.502  1.00  0.00     0.123 A
HETATM    8  C9  UNL     1      16.291  14.263  37.460  1.00  0.00     0.133 A
HETATM    9  N6  UNL     1      16.914  15.437  37.235  1.00  0.00    -0.337 N
ATOM     10  H6  UNL     1      16.849  16.171  37.939  1.00  0.00     0.168 HD
HETATM   11  C12 UNL     1      17.619  15.674  36.112  1.00  0.00     0.182 A
HETATM   12  N7  UNL     1      17.696  14.694  35.196  1.00  0.00    -0.347 N
ATOM     13  H7  UNL     1      18.232  14.876  34.348  1.00  0.00     0.167 HD
HETATM   14  C13 UNL     1      17.114  13.493  35.321  1.00  0.00     0.109 A
ENDROOT
BRANCH   1  15
HETATM   15  N1  UNL     1      17.854  12.680  33.297  1.00  0.00    -0.308 N
HETATM   16  C5  UNL     1      17.968  11.841  32.178  1.00  0.00     0.252 C
HETATM   17  O2  UNL     1      17.126  11.828  31.214  1.00  0.00    -0.270 OA
ATOM     18  H1  UNL     1      18.374  13.556  33.237  1.00  0.00     0.170 HD
BRANCH  16  19
HETATM   19  C4  UNL     1      19.098  10.900  32.044  1.00  0.00     0.213 C
BRANCH  19  20
HETATM   20  C2  UNL     1      20.179  11.168  33.073  1.00  0.00     0.015 C
HETATM   21  C1  UNL     1      21.502  11.495  32.467  1.00  0.00     0.012 C
HETATM   22  C3  UNL     1      20.214  10.038  34.052  1.00  0.00     0.012 C
ENDBRANCH  19  20
BRANCH  19  23
HETATM   23  O1  UNL     1      18.603   9.607  32.148  1.00  0.00    -0.386 OA
ATOM     24  H1  UNL     1      17.988   9.525  32.868  1.00  0.00     0.210 HD
ENDBRANCH  19  23
ENDBRANCH  16  19
ENDBRANCH   1  15
BRANCH   4  25
HETATM   25  N3  UNL     1      15.287  10.009  35.915  1.00  0.00    -0.234 N
ATOM     26  H32 UNL     1      15.847   9.165  36.035  1.00  0.00     0.174 HD
ATOM     27  H31 UNL     1      14.268   9.975  35.948  1.00  0.00     0.174 HD
ENDBRANCH   4  25
BRANCH   8  28
HETATM   28  N5  UNL     1      15.598  14.114  38.671  1.00  0.00    -0.374 N
HETATM   29  C10 UNL     1      16.270  13.621  39.839  1.00  0.00     0.150 C
HETATM   30  C11 UNL     1      14.201  14.454  38.755  1.00  0.00     0.150 C
ENDBRANCH   8  28
TORSDOF 6
ENDMDL