MODEL 4
REMARK VINA RESULT: -6.419814378      6.780      9.241
REMARK  5 active torsions:
REMARK  status: ('A' for Active; 'I' for Inactive)
REMARK    1  A    between atoms: N1_1  and  C1_4
REMARK    2  A    between atoms: C5_11  and  C6_12
REMARK    3  A    between atoms: C6_12  and  C7_13
REMARK    4  A    between atoms: C7_13  and  C8_14
REMARK    5  A    between atoms: C8_14  and  C9_15
ROOT
HETATM    1  C1  UNL     1      21.651  11.871  33.944  1.00  0.00     0.680 A
HETATM    2  N2  UNL     1      20.683  12.518  34.617  1.00  0.00    -0.155 N
ATOM      3  H2  UNL     1      20.509  13.508  34.441  1.00  0.00     0.187 HD
HETATM    4  C2  UNL     1      19.936  11.842  35.536  1.00  0.00     0.276 A
HETATM    5  O1  UNL     1      19.072  12.472  36.146  1.00  0.00    -0.267 OA
HETATM    6  C3  UNL     1      20.162  10.508  35.776  1.00  0.00     0.104 A
HETATM    7  C4  UNL     1      19.494   9.788  36.715  1.00  0.00     0.052 A
HETATM    8  C5  UNL     1      18.260  10.162  37.344  1.00  0.00     0.030 C
HETATM    9  N6  UNL     1      19.870   8.455  36.926  1.00  0.00    -0.351 N
ATOM     10  H6  UNL     1      19.371   7.918  37.636  1.00  0.00     0.166 HD
HETATM   11  C12 UNL     1      20.836   7.855  36.252  1.00  0.00     0.182 A
HETATM   12  N7  UNL     1      21.478   8.572  35.323  1.00  0.00    -0.337 N
ATOM     13  H7  UNL     1      22.223   8.126  34.789  1.00  0.00     0.168 HD
HETATM   14  C13 UNL     1      21.181   9.844  35.069  1.00  0.00     0.140 A
HETATM   15  N8  UNL     1      21.881  10.569  34.177  1.00  0.00    -0.176 N
ATOM     16  H8  UNL     1      22.624  10.106  33.651  1.00  0.00     0.186 HD
ENDROOT
BRANCH   8  17
HETATM   17  C6  UNL     1      17.208  10.705  36.849  1.00  0.00     0.002 C
BRANCH  17  18
HETATM   18  C7  UNL     1      16.349   9.963  35.883  1.00  0.00     0.002 C
BRANCH  18  19
HETATM   19  C8  UNL     1      16.226  10.417  34.684  1.00  0.00     0.035 C
BRANCH  19  20
HETATM   20  C9  UNL     1      17.197  10.512  33.619  1.00  0.00     0.103 A
HETATM   21  N3  UNL     1      17.343  11.675  32.917  1.00  0.00    -0.347 N
HETATM   22  C10 UNL     1      18.229  11.798  31.927  1.00  0.00     0.198 A
ATOM     23  H3  UNL     1      16.757  12.474  33.158  1.00  0.00     0.167 HD
HETATM   24  N4  UNL     1      19.016  10.768  31.584  1.00  0.00    -0.293 N
HETATM   25  N5  UNL     1      18.927   9.619  32.219  1.00  0.00    -0.264 N
ATOM     26  H4  UNL     1      19.690  10.876  30.824  1.00  0.00     0.187 HD
HETATM   27  C11 UNL     1      18.013   9.489  33.241  1.00  0.00     0.286 A
ATOM     28  H5  UNL     1      19.526   8.835  31.958  1.00  0.00     0.190 HD
HETATM   29  O2  UNL     1      17.976   8.370  33.807  1.00  0.00    -0.264 OA
ENDBRANCH  19  20
ENDBRANCH  18  19
ENDBRANCH  17  18
ENDBRANCH   8  17
BRANCH   1  30
HETATM   30  N1  UNL     1      22.329  12.552  33.083  1.00  0.00    -0.234 N
ATOM     31  H12 UNL     1      23.334  12.430  32.956  1.00  0.00     0.174 HD
ATOM     32  H11 UNL     1      21.819  13.233  32.520  1.00  0.00     0.174 HD
ENDBRANCH   1  30
TORSDOF 5
ENDMDL