MODEL 5
REMARK VINA RESULT: -5.306536171      2.107      2.759
REMARK  5 active torsions:
REMARK  status: ('A' for Active; 'I' for Inactive)
REMARK    1  A    between atoms: N1_1  and  C1_4
REMARK    2  A    between atoms: C3_8  and  C4_9
REMARK    3  A    between atoms: C4_9  and  S1_10
REMARK    4  A    between atoms: S1_10  and  C5_11
REMARK    5  A    between atoms: C11_21  and  N5_22
ROOT
HETATM    1  C1  UNL     1      22.968  12.587  33.674  1.00  0.00     0.692 A
HETATM    2  N2  UNL     1      22.173  11.774  34.423  1.00  0.00    -0.173 N
ATOM      3  H2  UNL     1      22.474  11.251  35.244  1.00  0.00     0.186 HD
HETATM    4  C2  UNL     1      20.940  11.769  33.914  1.00  0.00     0.153 A
HETATM    5  C3  UNL     1      19.633  11.260  34.075  1.00  0.00     0.016 A
HETATM    6  C10 UNL     1      18.915  11.810  33.058  1.00  0.00     0.064 A
HETATM    7  C11 UNL     1      17.589  11.699  32.661  1.00  0.00     0.114 A
HETATM    8  N6  UNL     1      17.144  12.386  31.553  1.00  0.00    -0.338 N
ATOM      9  H6  UNL     1      16.168  12.296  31.273  1.00  0.00     0.168 HD
HETATM   10  C12 UNL     1      17.944  13.156  30.847  1.00  0.00     0.183 A
HETATM   11  N7  UNL     1      19.218  13.265  31.225  1.00  0.00    -0.336 N
ATOM     12  H7  UNL     1      19.835  13.862  30.676  1.00  0.00     0.168 HD
HETATM   13  C13 UNL     1      19.729  12.632  32.288  1.00  0.00     0.145 A
HETATM   14  N8  UNL     1      20.947  12.570  32.852  1.00  0.00    -0.207 N
HETATM   15  N9  UNL     1      22.183  13.076  32.695  1.00  0.00    -0.122 N
ATOM     16  H9  UNL     1      22.475  13.720  31.960  1.00  0.00     0.206 HD
ENDROOT
BRANCH   5  17
HETATM   17  C4  UNL     1      19.315  10.327  35.140  1.00  0.00     0.123 C
BRANCH  17  18
HETATM   18  S1  UNL     1      19.332  11.337  36.705  1.00  0.00    -0.121 SA
BRANCH  18  19
HETATM   19  C5  UNL     1      18.698  12.980  36.405  1.00  0.00     0.059 A
HETATM   20  C6  UNL     1      17.338  13.126  36.200  1.00  0.00     0.074 A
HETATM   21  S2  UNL     1      16.808  14.730  35.939  1.00  0.00    -0.084 SA
HETATM   22  C7  UNL     1      18.067  15.873  35.980  1.00  0.00     0.115 A
HETATM   23  N3  UNL     1      17.891  17.276  35.795  1.00  0.00    -0.092 NA
HETATM   24  C8  UNL     1      19.329  15.333  36.218  1.00  0.00     0.128 A
HETATM   25  N4  UNL     1      20.412  16.287  36.250  1.00  0.00    -0.096 NA
HETATM   26  C9  UNL     1      19.602  14.018  36.409  1.00  0.00     0.215 A
HETATM   27  O1  UNL     1      20.834  13.733  36.619  1.00  0.00    -0.285 OA
ENDBRANCH  18  19
ENDBRANCH  17  18
ENDBRANCH   5  17
BRANCH   7  28
HETATM   28  N5  UNL     1      16.797  10.974  33.286  1.00  0.00    -0.385 N
ATOM     29  H52 UNL     1      16.152  10.377  32.768  1.00  0.00     0.157 HD
ATOM     30  H51 UNL     1      16.794  10.963  34.306  1.00  0.00     0.157 HD
ENDBRANCH   7  28
BRANCH   1  31
HETATM   31  N1  UNL     1      24.219  12.791  33.927  1.00  0.00    -0.233 N
ATOM     32  H12 UNL     1      24.665  13.352  34.653  1.00  0.00     0.174 HD
ATOM     33  H11 UNL     1      24.977  12.378  33.383  1.00  0.00     0.174 HD
ENDBRANCH   1  31
TORSDOF 5
ENDMDL