MODEL 3
REMARK VINA RESULT: -5.640966497      2.411      4.630
REMARK  4 active torsions:
REMARK  status: ('A' for Active; 'I' for Inactive)
REMARK    1  A    between atoms: N1_1  and  C1_4
REMARK    2  A    between atoms: C8_20  and  C9_21
REMARK    3  A    between atoms: C9_21  and  C10_22
REMARK    4  A    between atoms: C10_22  and  N5_23
ROOT
HETATM    1  C1  UNL     1      13.196   8.841  39.541  1.00  0.00     0.677 A
HETATM    2  N2  UNL     1      12.335   9.776  39.976  1.00  0.00    -0.181 N
ATOM      3  H2  UNL     1      11.616   9.522  40.653  1.00  0.00     0.185 HD
HETATM    4  C2  UNL     1      12.407  11.030  39.535  1.00  0.00     0.131 A
HETATM    5  S1  UNL     1      11.312  12.091  40.127  1.00  0.00    -0.059 SA
HETATM    6  C3  UNL     1      13.374  11.457  38.601  1.00  0.00     0.064 A
HETATM    7  C4  UNL     1      13.384  12.764  38.196  1.00  0.00     0.049 A
HETATM    8  N3  UNL     1      12.474  13.519  38.745  1.00  0.00    -0.398 N
ATOM      9  H31 UNL     1      12.481  14.493  38.443  1.00  0.00     0.156 HD
ATOM     10  H32 UNL     1      11.820  13.113  39.415  1.00  0.00     0.156 HD
HETATM   11  C5  UNL     1      14.284  13.323  37.273  1.00  0.00    -0.014 A
HETATM   12  C6  UNL     1      15.272  12.629  36.663  1.00  0.00     0.024 A
HETATM   13  S2  UNL     1      15.407  10.979  37.051  1.00  0.00    -0.073 SA
HETATM   14  C7  UNL     1      14.226  10.463  38.191  1.00  0.00     0.106 A
HETATM   15  N4  UNL     1      14.140   9.198  38.647  1.00  0.00    -0.185 N
ATOM     16  H4  UNL     1      14.801   8.499  38.309  1.00  0.00     0.185 HD
HETATM   17  C8  UNL     1      16.271  13.220  35.679  1.00  0.00     0.227 C
HETATM   18  N9  UNL     1      16.310  14.638  36.082  1.00  0.00    -0.066 N
ATOM     19  H91 UNL     1      17.046  15.163  35.609  1.00  0.00     0.278 HD
ATOM     20  H92 UNL     1      16.644  14.769  37.037  1.00  0.00     0.278 HD
HETATM   21  C13 UNL     1      15.009  15.193  35.868  1.00  0.00     0.237 C
HETATM   22  C14 UNL     1      14.087  14.775  36.969  1.00  0.00     0.069 C
ENDROOT
BRANCH  17  23
HETATM   23  C9  UNL     1      17.601  12.607  35.849  1.00  0.00     0.059 C
BRANCH  23  24
HETATM   24  C10 UNL     1      18.499  12.621  34.684  1.00  0.00     0.135 C
BRANCH  24  25
HETATM   25  N5  UNL     1      18.007  12.113  33.455  1.00  0.00    -0.315 N
HETATM   26  C11 UNL     1      17.651  12.829  32.354  1.00  0.00     0.202 A
HETATM   27  N6  UNL     1      17.209  11.983  31.410  1.00  0.00    -0.294 N
HETATM   28  N7  UNL     1      17.293  10.773  31.917  1.00  0.00    -0.272 N
ATOM     29  H6  UNL     1      16.874  12.231  30.480  1.00  0.00     0.187 HD
HETATM   30  C12 UNL     1      17.777  10.817  33.165  1.00  0.00     0.210 A
ATOM     31  H7  UNL     1      17.025   9.919  31.427  1.00  0.00     0.189 HD
HETATM   32  N8  UNL     1      17.995   9.647  33.937  1.00  0.00    -0.062 NA
ENDBRANCH  24  25
ENDBRANCH  23  24
ENDBRANCH  17  23
BRANCH   1  33
HETATM   33  N1  UNL     1      13.134   7.617  39.964  1.00  0.00    -0.234 N
ATOM     34  H12 UNL     1      12.782   6.883  39.351  1.00  0.00     0.174 HD
ATOM     35  H11 UNL     1      13.434   7.365  40.906  1.00  0.00     0.174 HD
ENDBRANCH   1  33
TORSDOF 4
ENDMDL