MODEL 4
REMARK VINA RESULT: -6.070552659      2.844      4.786
REMARK  5 active torsions:
REMARK  status: ('A' for Active; 'I' for Inactive)
REMARK    1  A    between atoms: C3_5  and  C4_6
REMARK    2  A    between atoms: C5_14  and  C6_15
REMARK    3  A    between atoms: C7_18  and  C8_19
REMARK    4  A    between atoms: C13_27  and  N8_28
REMARK    5  A    between atoms: C14_33  and  N10_34
ROOT
HETATM    1  C6  UNL     1      17.646  12.965  35.128  1.00  0.00     0.093 A
HETATM    2  N6  UNL     1      16.550  12.492  35.698  1.00  0.00    -0.336 N
ATOM      3  H6  UNL     1      15.903  11.922  35.153  1.00  0.00     0.168 HD
HETATM    4  C7  UNL     1      16.276  12.761  37.005  1.00  0.00     0.141 A
HETATM    5  N7  UNL     1      17.127  13.512  37.723  1.00  0.00    -0.335 N
ATOM      6  H7  UNL     1      16.921  13.712  38.702  1.00  0.00     0.168 HD
HETATM    7  C12 UNL     1      18.243  14.002  37.167  1.00  0.00     0.108 A
HETATM    8  C13 UNL     1      19.140  14.775  37.892  1.00  0.00     0.144 A
HETATM    9  N9  UNL     1      20.261  15.246  37.296  1.00  0.00    -0.175 N
ATOM     10  H9  UNL     1      20.916  15.814  37.835  1.00  0.00     0.186 HD
HETATM   11  C14 UNL     1      20.527  14.976  36.000  1.00  0.00     0.678 A
HETATM   12  N11 UNL     1      19.674  14.225  35.267  1.00  0.00    -0.187 N
ATOM     13  H11 UNL     1      19.881  14.025  34.289  1.00  0.00     0.184 HD
HETATM   14  C15 UNL     1      18.543  13.739  35.834  1.00  0.00     0.108 A
ENDROOT
BRANCH   1  15
HETATM   15  C5  UNL     1      17.965  12.699  33.704  1.00  0.00     0.094 A
HETATM   16  C3  UNL     1      18.588  11.569  33.241  1.00  0.00     0.110 A
HETATM   17  N1  UNL     1      18.675  11.710  31.906  1.00  0.00    -0.341 N
HETATM   18  C2  UNL     1      18.126  12.882  31.562  1.00  0.00     0.078 A
ATOM     19  H1  UNL     1      19.090  11.036  31.262  1.00  0.00     0.167 HD
HETATM   20  C1  UNL     1      18.005  13.443  30.165  1.00  0.00     0.089 C
HETATM   21  N12 UNL     1      17.690  13.492  32.672  1.00  0.00    -0.342 N
ATOM     22  H12 UNL     1      17.230  14.400  32.717  1.00  0.00     0.167 HD
BRANCH  16  23
HETATM   23  C4  UNL     1      19.073  10.411  34.031  1.00  0.00     0.163 A
HETATM   24  N2  UNL     1      20.083  10.354  34.875  1.00  0.00    -0.270 N
HETATM   25  N3  UNL     1      20.252   9.165  35.407  1.00  0.00    -0.225 N
ATOM     26  H2  UNL     1      20.676  11.155  35.094  1.00  0.00     0.190 HD
HETATM   27  N4  UNL     1      19.273   8.427  34.851  1.00  0.00    -0.005 NA
ATOM     28  H3  UNL     1      20.959   8.870  36.081  1.00  0.00     0.205 HD
HETATM   29  N5  UNL     1      18.547   9.151  34.020  1.00  0.00    -0.265 N
ATOM     30  H5  UNL     1      17.748   8.831  33.474  1.00  0.00     0.186 HD
ENDBRANCH  16  23
ENDBRANCH   1  15
BRANCH   4  31
HETATM   31  C8  UNL     1      15.081  12.232  37.647  1.00  0.00     0.118 A
HETATM   32  C9  UNL     1      13.987  12.973  37.990  1.00  0.00     0.043 A
HETATM   33  C10 UNL     1      13.038  12.131  38.585  1.00  0.00     0.027 A
HETATM   34  C11 UNL     1      13.640  10.888  38.565  1.00  0.00     0.142 A
HETATM   35  O1  UNL     1      14.832  10.996  38.007  1.00  0.00    -0.319 OA
ENDBRANCH   4  31
BRANCH   8  36
HETATM   36  N8  UNL     1      18.930  15.059  39.127  1.00  0.00    -0.383 N
ATOM     37  H82 UNL     1      17.977  15.270  39.428  1.00  0.00     0.157 HD
ATOM     38  H81 UNL     1      19.692  15.075  39.804  1.00  0.00     0.157 HD
ENDBRANCH   8  36
BRANCH  11  39
HETATM   39  N10 UNL     1      21.569  15.395  35.393  1.00  0.00    -0.234 N
ATOM     40 2H10 UNL     1      21.908  14.812  34.629  1.00  0.00     0.174 HD
ATOM     41 1H10 UNL     1      22.054  16.258  35.640  1.00  0.00     0.174 HD
ENDBRANCH  11  39
TORSDOF 5
ENDMDL