MODEL 5
REMARK VINA RESULT: -5.163117099      3.976      5.046
REMARK  7 active torsions:
REMARK  status: ('A' for Active; 'I' for Inactive)
REMARK    1  A    between atoms: N1_1  and  S1_4
REMARK    2  A    between atoms: S1_4  and  N2_5
REMARK    3  A    between atoms: S1_4  and  C1_9
REMARK    4  A    between atoms: C3_13  and  O2_14
REMARK    5  A    between atoms: O2_14  and  N4_15
REMARK    6  A    between atoms: C5_21  and  S2_22
REMARK    7  A    between atoms: S2_22  and  N6_23
ROOT
HETATM    1  C1  UNL     1      16.922  11.859  33.947  1.00  0.00     0.203 A
HETATM    2  N3  UNL     1      16.467  11.052  34.914  1.00  0.00    -0.327 N
ATOM      3  H3  UNL     1      16.703  10.063  34.993  1.00  0.00     0.168 HD
HETATM    4  C2  UNL     1      15.667  11.704  35.762  1.00  0.00     0.117 A
HETATM    5  C3  UNL     1      14.962  11.361  36.885  1.00  0.00     0.159 A
HETATM    6  C4  UNL     1      14.212  12.342  37.526  1.00  0.00     0.117 A
HETATM    7  N5  UNL     1      13.437  12.304  38.623  1.00  0.00    -0.330 N
ATOM      8  H5  UNL     1      13.264  11.482  39.201  1.00  0.00     0.168 HD
HETATM    9  C5  UNL     1      12.925  13.530  38.832  1.00  0.00     0.162 A
HETATM   10  N7  UNL     1      13.391  14.314  37.860  1.00  0.00    -0.320 N
ATOM     11  H7  UNL     1      13.173  15.306  37.756  1.00  0.00     0.169 HD
HETATM   12  C11 UNL     1      14.188  13.616  37.036  1.00  0.00     0.139 A
HETATM   13  N8  UNL     1      14.891  13.914  35.933  1.00  0.00    -0.325 N
ATOM     14  H8  UNL     1      14.863  14.869  35.577  1.00  0.00     0.169 HD
HETATM   15  C12 UNL     1      15.630  13.003  35.277  1.00  0.00     0.139 A
HETATM   16  N9  UNL     1      16.403  13.075  34.170  1.00  0.00    -0.317 N
ATOM     17  H9  UNL     1      16.562  13.909  33.604  1.00  0.00     0.169 HD
ENDROOT
BRANCH   1  18
HETATM   18  S1  UNL     1      17.991  11.450  32.625  1.00  0.00     0.163 S
HETATM   19  O1  UNL     1      17.970   9.987  32.375  1.00  0.00    -0.221 OA
BRANCH  18  20
HETATM   20  N1  UNL     1      17.468  12.168  31.346  1.00  0.00    -0.339 N
ATOM     21  H12 UNL     1      17.893  12.990  30.917  1.00  0.00     0.167 HD
ATOM     22  H11 UNL     1      16.638  11.670  31.025  1.00  0.00     0.167 HD
ENDBRANCH  18  20
BRANCH  18  23
HETATM   23  N2  UNL     1      19.598  11.961  32.893  1.00  0.00    -0.339 N
ATOM     24  H22 UNL     1      19.980  12.868  32.626  1.00  0.00     0.167 HD
ATOM     25  H21 UNL     1      20.093  11.202  33.361  1.00  0.00     0.167 HD
ENDBRANCH  18  23
ENDBRANCH   1  18
BRANCH   5  26
HETATM   26  O2  UNL     1      14.969  10.091  37.398  1.00  0.00    -0.240 OA
BRANCH  26  27
HETATM   27  N4  UNL     1      15.769   9.779  38.458  1.00  0.00    -0.305 N
ATOM     28  H42 UNL     1      16.157  10.536  39.020  1.00  0.00     0.184 HD
ATOM     29  H41 UNL     1      15.974   8.805  38.681  1.00  0.00     0.184 HD
ENDBRANCH  26  27
ENDBRANCH   5  26
BRANCH   9  30
HETATM   30  S2  UNL     1      11.820  14.010  40.175  1.00  0.00    -0.005 SA
BRANCH  30  31
HETATM   31  N6  UNL     1      10.862  12.627  40.623  1.00  0.00    -0.252 NA
HETATM   32  C6  UNL     1      10.618  12.512  42.027  1.00  0.00     0.103 C
HETATM   33  C7  UNL     1       9.485  11.549  42.262  1.00  0.00     0.015 C
HETATM   34  C8  UNL     1       8.207  12.223  41.794  1.00  0.00     0.002 C
HETATM   35  C9  UNL     1       8.436  12.979  40.506  1.00  0.00     0.015 C
HETATM   36  C10 UNL     1       9.677  12.463  39.814  1.00  0.00     0.103 C
ENDBRANCH  30  31
ENDBRANCH   9  30
TORSDOF 7
ENDMDL