MODEL 4
REMARK VINA RESULT: -5.668331278      4.483      5.363
REMARK  4 active torsions:
REMARK  status: ('A' for Active; 'I' for Inactive)
REMARK    1  A    between atoms: C6_9  and  N3_10
REMARK    2  A    between atoms: C9_18  and  S1_19
REMARK    3  A    between atoms: S1_19  and  C10_20
REMARK    4  A    between atoms: C13_24  and  C14_25
ROOT
HETATM    1  C1  UNL     1      19.405   8.841  35.372  1.00  0.00     0.070 C
HETATM    2  C2  UNL     1      18.877  10.190  35.031  1.00  0.00     0.032 A
HETATM    3  N1  UNL     1      18.777  11.264  35.850  1.00  0.00    -0.344 N
ATOM      4  H1  UNL     1      19.062  11.278  36.829  1.00  0.00     0.167 HD
HETATM    5  C3  UNL     1      18.253  12.301  35.191  1.00  0.00     0.126 A
HETATM    6  C4  UNL     1      17.995  11.910  33.894  1.00  0.00     0.078 A
HETATM    7  C5  UNL     1      18.387  10.583  33.792  1.00  0.00     0.086 A
HETATM    8  N2  UNL     1      18.289   9.803  32.618  1.00  0.00    -0.099 NA
HETATM    9  C6  UNL     1      17.445  12.777  32.964  1.00  0.00     0.117 A
HETATM   10  N4  UNL     1      17.156  14.034  33.342  1.00  0.00    -0.314 N
ATOM     11  H4  UNL     1      16.750  14.691  32.677  1.00  0.00     0.170 HD
HETATM   12  C7  UNL     1      17.412  14.423  34.627  1.00  0.00     0.186 A
HETATM   13  N5  UNL     1      17.947  13.569  35.520  1.00  0.00    -0.301 N
HETATM   14  C8  UNL     1      18.113  14.235  36.791  1.00  0.00     0.170 C
HETATM   15  C9  UNL     1      17.747  15.659  36.530  1.00  0.00     0.170 C
HETATM   16  N8  UNL     1      17.177  15.682  35.204  1.00  0.00    -0.346 N
ATOM     17  H8  UNL     1      16.694  16.466  34.768  1.00  0.00     0.163 HD
ENDROOT
BRANCH  15  18
HETATM   18  S1  UNL     1      16.476  16.251  37.706  1.00  0.00    -0.095 SA
BRANCH  18  19
HETATM   19  C10 UNL     1      15.055  16.816  36.758  1.00  0.00     0.046 A
HETATM   20  C11 UNL     1      14.014  16.106  36.234  1.00  0.00     0.054 A
HETATM   21  C12 UNL     1      13.079  16.787  35.557  1.00  0.00     0.070 A
HETATM   22  N6  UNL     1      11.917  16.151  34.948  1.00  0.00    -0.101 NA
HETATM   23  C13 UNL     1      13.246  18.144  35.446  1.00  0.00     0.095 A
HETATM   24  S2  UNL     1      14.701  18.416  36.291  1.00  0.00    -0.076 SA
BRANCH  23  25
HETATM   25  C14 UNL     1      12.360  19.107  34.751  1.00  0.00     0.273 C
HETATM   26  N7  UNL     1      12.663  19.431  33.402  1.00  0.00    -0.057 NA
HETATM   27  O1  UNL     1      11.387  19.626  35.304  1.00  0.00    -0.270 OA
ENDBRANCH  23  25
ENDBRANCH  18  19
ENDBRANCH  15  18
BRANCH   9  28
HETATM   28  N3  UNL     1      17.235  12.337  31.777  1.00  0.00    -0.385 N
ATOM     29  H32 UNL     1      17.226  12.939  30.953  1.00  0.00     0.157 HD
ATOM     30  H31 UNL     1      17.070  11.337  31.657  1.00  0.00     0.157 HD
ENDBRANCH   9  28
TORSDOF 4
ENDMDL