MODEL 5
REMARK VINA RESULT: -6.185493359      3.055      7.339
REMARK  5 active torsions:
REMARK  status: ('A' for Active; 'I' for Inactive)
REMARK    1  A    between atoms: C4_4  and  N1_5
REMARK    2  A    between atoms: N1_5  and  C5_7
REMARK    3  A    between atoms: C8_16  and  N5_17
REMARK    4  A    between atoms: C9_22  and  N7_23
REMARK    5  A    between atoms: N7_23  and  C10_25
REMARK       I    between atoms: N8_27  and  C12_28
ROOT
HETATM    1  C5  UNL     1      17.465  10.892  34.869  1.00  0.00     0.125 A
HETATM    2  N2  UNL     1      16.127  11.121  34.744  1.00  0.00    -0.338 N
ATOM      3  H2  UNL     1      15.733  11.102  33.803  1.00  0.00     0.168 HD
HETATM    4  C6  UNL     1      15.297  11.366  35.752  1.00  0.00     0.183 A
HETATM    5  N3  UNL     1      15.822  11.390  36.994  1.00  0.00    -0.337 N
ATOM      6  H3  UNL     1      15.208  11.579  37.786  1.00  0.00     0.168 HD
HETATM    7  C7  UNL     1      17.119  11.177  37.220  1.00  0.00     0.139 A
HETATM    8  N4  UNL     1      17.634  11.233  38.448  1.00  0.00    -0.176 N
ATOM      9  H4  UNL     1      17.012  11.424  39.233  1.00  0.00     0.186 HD
HETATM   10  C8  UNL     1      18.947  11.045  38.690  1.00  0.00     0.679 A
HETATM   11  N6  UNL     1      19.738  10.798  37.659  1.00  0.00    -0.176 N
ATOM     12  H6  UNL     1      20.731  10.658  37.848  1.00  0.00     0.186 HD
HETATM   13  C9  UNL     1      19.326  10.715  36.356  1.00  0.00     0.140 A
HETATM   14  C15 UNL     1      17.983  10.917  36.145  1.00  0.00     0.097 A
ENDROOT
BRANCH  13  15
HETATM   15  N7  UNL     1      20.249  10.284  35.405  1.00  0.00    -0.326 N
ATOM     16  H7  UNL     1      20.549  10.935  34.678  1.00  0.00     0.169 HD
BRANCH  15  17
HETATM   17  C10 UNL     1      20.792   8.957  35.412  1.00  0.00     0.124 A
HETATM   18  C11 UNL     1      20.208   7.740  35.254  1.00  0.00     0.151 A
HETATM   19  N8  UNL     1      21.149   6.750  35.327  1.00  0.00    -0.263 N
HETATM   20  C12 UNL     1      20.954   5.363  35.213  1.00  0.00     0.340 C
HETATM   21  C13 UNL     1      22.330   7.358  35.533  1.00  0.00     0.089 A
HETATM   22  N9  UNL     1      19.634   4.828  34.990  1.00  0.00    -0.039 NA
HETATM   23  O1  UNL     1      21.881   4.518  35.293  1.00  0.00    -0.250 OA
HETATM   24  C14 UNL     1      23.665   6.704  35.682  1.00  0.00     0.089 C
HETATM   25  N10 UNL     1      22.125   8.662  35.585  1.00  0.00    -0.331 N
ATOM     26  H10 UNL     1      22.857   9.357  35.733  1.00  0.00     0.168 HD
ENDBRANCH  15  17
ENDBRANCH  13  15
BRANCH  10  27
HETATM   27  N5  UNL     1      19.396  11.114  39.916  1.00  0.00    -0.234 N
ATOM     28  H52 UNL     1      18.780  11.056  40.727  1.00  0.00     0.174 HD
ATOM     29  H51 UNL     1      20.396  11.229  40.082  1.00  0.00     0.174 HD
ENDBRANCH  10  27
BRANCH   1  30
HETATM   30  N1  UNL     1      18.264  10.714  33.737  1.00  0.00    -0.327 N
ATOM     31  H1  UNL     1      18.656   9.788  33.564  1.00  0.00     0.169 HD
BRANCH  30  32
HETATM   32  C4  UNL     1      18.539  11.674  32.879  1.00  0.00     0.123 A
HETATM   33  C3  UNL     1      17.756  12.205  31.884  1.00  0.00     0.075 A
HETATM   34  C2  UNL     1      18.501  13.199  31.248  1.00  0.00     0.025 A
HETATM   35  C1  UNL     1      18.076  14.052  30.110  1.00  0.00     0.070 C
HETATM   36  N12 UNL     1      19.695  13.249  31.857  1.00  0.00    -0.304 N
HETATM   37  N11 UNL     1      19.699  12.358  32.801  1.00  0.00    -0.285 N
ATOM     38  H12 UNL     1      20.464  13.877  31.620  1.00  0.00     0.186 HD
ATOM     39  H11 UNL     1      20.494  12.193  33.418  1.00  0.00     0.188 HD
ENDBRANCH  30  32
ENDBRANCH   1  30
TORSDOF 5
ENDMDL