MODEL 1
REMARK VINA RESULT: -6.426641428      0.000      0.000
REMARK  5 active torsions:
REMARK  status: ('A' for Active; 'I' for Inactive)
REMARK    1  A    between atoms: C2_2  and  N1_4
REMARK    2  A    between atoms: C4_7  and  C5_8
REMARK    3  A    between atoms: C6_17  and  C7_18
REMARK    4  A    between atoms: C10_25  and  O1_26
REMARK    5  A    between atoms: C15_33  and  N9_34
ROOT
HETATM    1  N1  UNL     1      16.124  24.577  33.922  1.00  0.00    -0.272 N
HETATM    2  N2  UNL     1      14.861  24.847  34.035  1.00  0.00    -0.292 N
ATOM      3  H2  UNL     1      14.358  25.020  34.905  1.00  0.00     0.187 HD
HETATM    4  C4  UNL     1      14.321  24.859  32.761  1.00  0.00     0.113 A
HETATM    5  C6  UNL     1      15.313  24.582  31.848  1.00  0.00     0.085 A
HETATM    6  C15 UNL     1      16.463  24.404  32.614  1.00  0.00     0.132 A
ENDROOT
BRANCH   5   7
HETATM    7  C7  UNL     1      15.220  24.487  30.392  1.00  0.00     0.122 A
HETATM    8  N7  UNL     1      15.759  25.219  29.416  1.00  0.00    -0.342 N
HETATM    9  C8  UNL     1      15.430  24.807  28.187  1.00  0.00     0.060 A
ATOM     10  H7  UNL     1      16.368  26.019  29.591  1.00  0.00     0.167 HD
HETATM   11  C9  UNL     1      14.617  23.729  28.376  1.00  0.00     0.068 A
HETATM   12  C14 UNL     1      15.803  25.324  26.819  1.00  0.00     0.228 C
HETATM   13  N8  UNL     1      14.503  23.552  29.721  1.00  0.00    -0.341 N
HETATM   14  C10 UNL     1      14.049  23.000  27.203  1.00  0.00     0.203 C
ATOM     15  H8  UNL     1      13.952  22.817  30.164  1.00  0.00     0.167 HD
HETATM   16  C11 UNL     1      14.893  23.368  26.003  1.00  0.00     0.085 C
HETATM   17  C12 UNL     1      14.144  22.875  24.769  1.00  0.00     0.049 C
HETATM   18  C13 UNL     1      16.221  22.682  26.044  1.00  0.00     0.049 C
HETATM   19  O2  UNL     1      15.004  24.750  25.867  1.00  0.00    -0.372 OA
BRANCH  14  20
HETATM   20  O1  UNL     1      12.702  23.276  27.018  1.00  0.00    -0.386 OA
ATOM     21  H1  UNL     1      12.145  22.680  27.504  1.00  0.00     0.210 HD
ENDBRANCH  14  20
ENDBRANCH   5   7
BRANCH   4  22
HETATM   22  C5  UNL     1      12.913  25.132  32.515  1.00  0.00     0.166 A
HETATM   23  N3  UNL     1      12.152  26.210  32.619  1.00  0.00    -0.267 N
HETATM   24  N4  UNL     1      10.904  25.972  32.278  1.00  0.00    -0.227 N
ATOM     25  H3  UNL     1      12.494  27.120  32.927  1.00  0.00     0.190 HD
HETATM   26  N5  UNL     1      10.824  24.699  31.937  1.00  0.00    -0.227 N
ATOM     27  H4  UNL     1      10.138  26.647  32.278  1.00  0.00     0.210 HD
HETATM   28  N6  UNL     1      12.025  24.180  32.074  1.00  0.00    -0.267 N
ATOM     29  H5  UNL     1       9.987  24.208  31.624  1.00  0.00     0.210 HD
ATOM     30  H6  UNL     1      12.264  23.208  31.881  1.00  0.00     0.190 HD
ENDBRANCH   4  22
BRANCH   6  31
HETATM   31  N9  UNL     1      17.619  24.127  32.156  1.00  0.00    -0.383 N
ATOM     32  H92 UNL     1      18.090  24.628  31.402  1.00  0.00     0.157 HD
ATOM     33  H91 UNL     1      18.236  23.378  32.467  1.00  0.00     0.157 HD
ENDBRANCH   6  31
BRANCH   1  34
HETATM   34  C2  UNL     1      17.085  24.464  35.019  1.00  0.00     0.102 C
HETATM   35  C1  UNL     1      16.714  25.444  36.093  1.00  0.00     0.034 C
HETATM   36  C3  UNL     1      17.039  23.067  35.625  1.00  0.00     0.034 C
ENDBRANCH   1  34
TORSDOF 5
ENDMDL