MODEL 4
REMARK VINA RESULT: -5.116521914      3.096      5.314
REMARK  5 active torsions:
REMARK  status: ('A' for Active; 'I' for Inactive)
REMARK    1  A    between atoms: O1_2  and  C2_3
REMARK    2  A    between atoms: N1_9  and  C7_11
REMARK    3  A    between atoms: C9_14  and  O2_15
REMARK    4  A    between atoms: C11_20  and  C12_21
REMARK    5  A    between atoms: C15_29  and  O5_30
ROOT
HETATM    1  C7  UNL     1      14.087  13.482  37.250  1.00  0.00     0.094 A
HETATM    2  C8  UNL     1      14.037  12.188  37.714  1.00  0.00     0.111 A
HETATM    3  N2  UNL     1      13.217  11.782  38.800  1.00  0.00    -0.097 NA
HETATM    4  C9  UNL     1      14.852  11.258  37.052  1.00  0.00     0.120 A
HETATM    5  C10 UNL     1      15.661  11.611  35.995  1.00  0.00     0.088 A
HETATM    6  N3  UNL     1      16.448  10.736  35.348  1.00  0.00    -0.335 N
ATOM      7  H3  UNL     1      16.437   9.766  35.665  1.00  0.00     0.168 HD
HETATM    8  C11 UNL     1      17.253  11.044  34.311  1.00  0.00     0.175 A
HETATM    9  N5  UNL     1      17.264  12.324  33.897  1.00  0.00    -0.304 N
ATOM     10  H5  UNL     1      17.859  12.596  33.114  1.00  0.00     0.171 HD
HETATM   11  C13 UNL     1      16.501  13.246  34.502  1.00  0.00     0.262 A
HETATM   12  O4  UNL     1      16.521  14.429  34.108  1.00  0.00    -0.267 OA
HETATM   13  C14 UNL     1      15.664  12.935  35.579  1.00  0.00     0.097 A
HETATM   14  C15 UNL     1      14.891  13.887  36.184  1.00  0.00     0.112 A
ENDROOT
BRANCH   1  15
HETATM   15  N1  UNL     1      13.261  14.437  37.920  1.00  0.00    -0.354 N
HETATM   16  C6  UNL     1      13.702  15.163  38.890  1.00  0.00     0.029 C
HETATM   17  C3  UNL     1      12.926  16.149  39.613  1.00  0.00     0.045 C
HETATM   18  C5  UNL     1      15.095  15.141  39.458  1.00  0.00     0.069 C
HETATM   19  C2  UNL     1      11.715  16.195  40.045  1.00  0.00     0.154 C
HETATM   20  S1  UNL     1      14.141  17.504  39.812  1.00  0.00    -0.126 SA
HETATM   21  C4  UNL     1      15.623  16.554  39.323  1.00  0.00     0.085 C
ATOM     22  H1  UNL     1      12.291  14.548  37.622  1.00  0.00     0.166 HD
BRANCH  19  23
HETATM   23  O1  UNL     1      10.730  15.339  39.996  1.00  0.00    -0.366 OA
HETATM   24  C1  UNL     1       9.857  14.858  39.106  1.00  0.00     0.209 C
ENDBRANCH  19  23
ENDBRANCH   1  15
BRANCH  14  25
HETATM   25  O5  UNL     1      14.903  15.185  35.763  1.00  0.00    -0.357 OA
ATOM     26  H5  UNL     1      14.661  15.414  34.873  1.00  0.00     0.217 HD
ENDBRANCH  14  25
BRANCH   4  27
HETATM   27  O2  UNL     1      14.818   9.956  37.499  1.00  0.00    -0.357 OA
ATOM     28  H2  UNL     1      13.988   9.628  37.825  1.00  0.00     0.218 HD
ENDBRANCH   4  27
BRANCH   8  29
HETATM   29  C12 UNL     1      18.085  10.059  33.647  1.00  0.00     0.298 C
HETATM   30  N4  UNL     1      18.859   9.171  34.412  1.00  0.00    -0.054 NA
HETATM   31  O3  UNL     1      18.110  10.004  32.406  1.00  0.00    -0.268 OA
ENDBRANCH   8  29
TORSDOF 5
ENDMDL