MODEL 4
REMARK VINA RESULT: -5.995350960      6.364      9.295
REMARK  4 active torsions:
REMARK  status: ('A' for Active; 'I' for Inactive)
REMARK    1  A    between atoms: N1_1  and  C1_4
REMARK    2  A    between atoms: C7_18  and  C8_19
REMARK    3  A    between atoms: C8_19  and  S1_20
REMARK    4  A    between atoms: S1_20  and  C9_21
ROOT
HETATM    1  C1  UNL     1      10.535  20.263  33.727  1.00  0.00     0.129 A
HETATM    2  N2  UNL     1       9.397  19.544  33.625  1.00  0.00    -0.328 N
ATOM      3  H2  UNL     1       8.566  19.999  33.248  1.00  0.00     0.168 HD
HETATM    4  C2  UNL     1       9.311  18.255  33.996  1.00  0.00     0.143 A
HETATM    5  N3  UNL     1       8.120  17.498  33.891  1.00  0.00    -0.081 NA
HETATM    6  C3  UNL     1      10.445  17.653  34.501  1.00  0.00     0.101 A
HETATM    7  N4  UNL     1      10.442  16.293  34.917  1.00  0.00    -0.098 NA
HETATM    8  C4  UNL     1      11.636  18.329  34.631  1.00  0.00     0.039 A
HETATM    9  C5  UNL     1      12.775  17.760  35.128  1.00  0.00     0.122 A
HETATM   10  N5  UNL     1      13.907  18.460  35.234  1.00  0.00    -0.200 N
ATOM     11  H5  UNL     1      14.753  18.027  35.606  1.00  0.00     0.183 HD
HETATM   12  C6  UNL     1      13.913  19.743  34.843  1.00  0.00     0.689 A
HETATM   13  N6  UNL     1      14.908  20.663  34.843  1.00  0.00    -0.193 N
ATOM     14  H6  UNL     1      15.862  20.494  35.165  1.00  0.00     0.184 HD
HETATM   15  C7  UNL     1      14.458  21.825  34.359  1.00  0.00     0.052 A
HETATM   16  C12 UNL     1      13.120  21.625  34.042  1.00  0.00     0.142 A
HETATM   17  N10 UNL     1      12.825  20.381  34.339  1.00  0.00    -0.151 N
HETATM   18  C13 UNL     1      11.667  19.663  34.231  1.00  0.00     0.113 A
ENDROOT
BRANCH  15  19
HETATM   19  C8  UNL     1      15.251  23.093  34.195  1.00  0.00     0.141 C
BRANCH  19  20
HETATM   20  S1  UNL     1      14.267  24.184  33.097  1.00  0.00    -0.088 SA
BRANCH  20  21
HETATM   21  C9  UNL     1      15.037  24.202  31.468  1.00  0.00     0.150 A
HETATM   22  N7  UNL     1      14.364  23.816  30.369  1.00  0.00    -0.313 N
HETATM   23  C10 UNL     1      14.922  23.823  29.139  1.00  0.00     0.181 A
ATOM     24  H7  UNL     1      13.397  23.506  30.468  1.00  0.00     0.170 HD
HETATM   25  S2  UNL     1      14.083  23.348  27.821  1.00  0.00    -0.040 SA
HETATM   26  N8  UNL     1      16.198  24.226  28.988  1.00  0.00    -0.285 N
HETATM   27  C11 UNL     1      16.898  24.619  30.068  1.00  0.00     0.328 A
ATOM     28  H8  UNL     1      16.629  24.235  28.064  1.00  0.00     0.173 HD
HETATM   29  O1  UNL     1      18.096  25.008  29.980  1.00  0.00    -0.247 OA
HETATM   30  N9  UNL     1      16.315  24.604  31.297  1.00  0.00    -0.289 N
ATOM     31  H9  UNL     1      16.855  24.905  32.108  1.00  0.00     0.172 HD
ENDBRANCH  20  21
ENDBRANCH  19  20
ENDBRANCH  15  19
BRANCH   1  32
HETATM   32  N1  UNL     1      10.449  21.476  33.331  1.00  0.00    -0.384 N
ATOM     33  H12 UNL     1      10.730  21.822  32.413  1.00  0.00     0.157 HD
ATOM     34  H11 UNL     1      10.064  22.129  34.014  1.00  0.00     0.157 HD
ENDBRANCH   1  32
TORSDOF 4
ENDMDL