MODEL 1
REMARK VINA RESULT: -7.065413095      0.000      0.000
REMARK  6 active torsions:
REMARK  status: ('A' for Active; 'I' for Inactive)
REMARK    1  A    between atoms: C4_6  and  C5_7
REMARK       I    between atoms: C5_7  and  N2_9
REMARK    2  A    between atoms: C7_11  and  S1_12
REMARK    3  A    between atoms: S1_12  and  C8_13
REMARK    4  A    between atoms: C10_19  and  N5_20
REMARK    5  A    between atoms: C11_25  and  N7_26
REMARK    6  A    between atoms: C13_32  and  N9_33
ROOT
HETATM    1  C8  UNL     1      15.841  12.929  35.568  1.00  0.00     0.120 A
HETATM    2  N3  UNL     1      16.327  13.685  34.585  1.00  0.00    -0.331 N
ATOM      3  H3  UNL     1      16.249  14.702  34.613  1.00  0.00     0.168 HD
HETATM    4  C9  UNL     1      16.928  13.057  33.549  1.00  0.00     0.152 A
HETATM    5  N4  UNL     1      17.426  13.805  32.546  1.00  0.00    -0.174 N
ATOM      6  H4  UNL     1      17.338  14.820  32.594  1.00  0.00     0.186 HD
HETATM    7  C10 UNL     1      18.029  13.256  31.496  1.00  0.00     0.679 A
HETATM    8  N6  UNL     1      18.137  11.935  31.444  1.00  0.00    -0.175 N
ATOM      9  H6  UNL     1      18.602  11.525  30.633  1.00  0.00     0.186 HD
HETATM   10  C11 UNL     1      17.664  11.085  32.411  1.00  0.00     0.145 A
HETATM   11  C12 UNL     1      17.044  11.685  33.487  1.00  0.00     0.123 A
HETATM   12  N8  UNL     1      16.542  10.958  34.494  1.00  0.00    -0.334 N
ATOM     13  H8  UNL     1      16.618   9.941  34.467  1.00  0.00     0.168 HD
HETATM   14  C13 UNL     1      15.931  11.556  35.553  1.00  0.00     0.134 A
ENDROOT
BRANCH   1  15
HETATM   15  S1  UNL     1      15.038  13.767  36.950  1.00  0.00    -0.066 SA
BRANCH  15  16
HETATM   16  C7  UNL     1      14.759  15.462  36.482  1.00  0.00     0.041 A
HETATM   17  C6  UNL     1      13.559  15.939  35.968  1.00  0.00     0.140 A
HETATM   18  N2  UNL     1      13.703  17.232  35.733  1.00  0.00    -0.227 N
HETATM   19  C5  UNL     1      12.776  18.136  35.212  1.00  0.00     0.317 C
HETATM   20  N10 UNL     1      14.949  17.629  36.069  1.00  0.00    -0.301 N
HETATM   21  O1  UNL     1      13.068  19.354  35.050  1.00  0.00    -0.261 OA
HETATM   22  C14 UNL     1      15.588  16.559  36.522  1.00  0.00     0.128 A
ATOM     23  H10 UNL     1      15.328  18.573  35.990  1.00  0.00     0.186 HD
BRANCH  19  24
HETATM   24  C4  UNL     1      11.434  17.728  34.831  1.00  0.00     0.219 A
HETATM   25  N1  UNL     1      10.881  16.508  34.925  1.00  0.00    -0.340 N
HETATM   26  C3  UNL     1       9.624  16.554  34.466  1.00  0.00     0.122 A
ATOM     27  H1  UNL     1      11.346  15.675  35.289  1.00  0.00     0.167 HD
HETATM   28  C2  UNL     1       9.391  17.864  34.072  1.00  0.00     0.067 A
HETATM   29  C1  UNL     1       8.119  18.412  33.488  1.00  0.00     0.078 C
HETATM   30  O2  UNL     1      10.495  18.517  34.310  1.00  0.00    -0.292 OA
ENDBRANCH  19  24
ENDBRANCH  15  16
ENDBRANCH   1  15
BRANCH  14  31
HETATM   31  N9  UNL     1      15.439  10.895  36.535  1.00  0.00    -0.383 N
ATOM     32  H92 UNL     1      14.650  10.256  36.431  1.00  0.00     0.157 HD
ATOM     33  H91 UNL     1      15.852  11.011  37.461  1.00  0.00     0.157 HD
ENDBRANCH  14  31
BRANCH   7  34
HETATM   34  N5  UNL     1      18.493  14.026  30.555  1.00  0.00    -0.234 N
ATOM     35  H52 UNL     1      18.062  14.074  29.632  1.00  0.00     0.174 HD
ATOM     36  H51 UNL     1      19.315  14.601  30.740  1.00  0.00     0.174 HD
ENDBRANCH   7  34
BRANCH  10  37
HETATM   37  N7  UNL     1      17.810   9.820  32.284  1.00  0.00    -0.383 N
ATOM     38  H72 UNL     1      17.036   9.167  32.159  1.00  0.00     0.157 HD
ATOM     39  H71 UNL     1      18.742   9.406  32.305  1.00  0.00     0.157 HD
ENDBRANCH  10  37
TORSDOF 6
ENDMDL