MODEL 5
REMARK VINA RESULT: -5.821319721      2.849      6.014
REMARK  13 active torsions:
REMARK  status: ('A' for Active; 'I' for Inactive)
REMARK    1  A    between atoms: C2_2  and  C3_4
REMARK    2  A    between atoms: C3_4  and  N1_5
REMARK    3  A    between atoms: C3_4  and  C4_9
REMARK       I    between atoms: C4_9  and  N2_11
REMARK    4  A    between atoms: N2_11  and  C5_13
REMARK    5  A    between atoms: C11_25  and  C12_26
REMARK    6  A    between atoms: C12_26  and  C13_27
REMARK    7  A    between atoms: C13_27  and  C14_28
REMARK    8  A    between atoms: C14_28  and  C15_29
REMARK    9  A    between atoms: C15_29  and  N7_30
REMARK   10  A    between atoms: C16_34  and  O3_35
REMARK   11  A    between atoms: C16_34  and  C17_37
REMARK   12  A    between atoms: C17_37  and  N8_38
REMARK   13  A    between atoms: C18_48  and  O4_49
ROOT
HETATM    1  C5  UNL     1     -24.577   3.675   8.675  1.00  0.00     0.069 C
HETATM    2  C6  UNL     1     -25.263   4.462   9.449  1.00  0.00     0.058 A
HETATM    3  C7  UNL     1     -25.760   5.717   9.334  1.00  0.00     0.101 A
HETATM    4  C8  UNL     1     -25.951   6.494   8.145  1.00  0.00     0.104 C
HETATM    5  N3  UNL     1     -26.179   7.169   7.204  1.00  0.00    -0.191 NA
HETATM    6  C9  UNL     1     -26.250   6.176  10.582  1.00  0.00     0.139 A
HETATM    7  N4  UNL     1     -26.817   7.448  10.777  1.00  0.00    -0.081 NA
HETATM    8  N5  UNL     1     -26.053   5.200  11.435  1.00  0.00    -0.329 N
ATOM      9  H5  UNL     1     -26.308   5.230  12.422  1.00  0.00     0.168 HD
HETATM   10  C10 UNL     1     -25.458   4.139  10.814  1.00  0.00     0.117 A
HETATM   11  N6  UNL     1     -25.015   3.103  11.403  1.00  0.00    -0.367 N
ATOM     12  H6  UNL     1     -25.213   2.948  12.392  1.00  0.00     0.161 HD
HETATM   13  C11 UNL     1     -24.223   2.141  10.653  1.00  0.00     0.128 C
HETATM   14  C16 UNL     1     -24.523   2.228   9.210  1.00  0.00     0.178 C
ENDROOT
BRANCH   1  15
HETATM   15  N2  UNL     1     -24.057   3.867   7.417  1.00  0.00    -0.325 N
HETATM   16  C4  UNL     1     -23.209   4.344   6.467  1.00  0.00     0.260 C
HETATM   17  O2  UNL     1     -22.180   5.058   6.458  1.00  0.00    -0.270 OA
ATOM     18  H2  UNL     1     -24.700   3.315   6.850  1.00  0.00     0.169 HD
BRANCH  16  19
HETATM   19  C3  UNL     1     -23.453   3.999   4.962  1.00  0.00     0.343 C
BRANCH  19  20
HETATM   20  C2  UNL     1     -24.764   3.350   4.802  1.00  0.00     0.162 C
HETATM   21  C1  UNL     1     -25.953   4.115   4.382  1.00  0.00     0.093 C
HETATM   22  O1  UNL     1     -24.881   2.159   5.017  1.00  0.00    -0.296 OA
ENDBRANCH  19  20
BRANCH  19  23
HETATM   23  N1  UNL     1     -22.377   3.282   4.398  1.00  0.00    -0.060 N
ATOM     24  H13 UNL     1     -22.060   2.553   5.038  1.00  0.00     0.275 HD
ATOM     25  H12 UNL     1     -22.701   2.703   3.623  1.00  0.00     0.275 HD
ATOM     26  H11 UNL     1     -21.592   3.864   4.105  1.00  0.00     0.275 HD
ENDBRANCH  19  23
ENDBRANCH  16  19
ENDBRANCH   1  15
BRANCH  14  27
HETATM   27  O3  UNL     1     -23.487   1.524   8.558  1.00  0.00    -0.377 OA
ATOM     28  H3  UNL     1     -23.658   0.590   8.610  1.00  0.00     0.211 HD
ENDBRANCH  14  27
BRANCH  14  29
HETATM   29  C17 UNL     1     -25.812   1.477   8.908  1.00  0.00     0.289 C
HETATM   30  N9  UNL     1     -26.227   0.568   9.920  1.00  0.00    -0.282 N
HETATM   31  N10 UNL     1     -27.393   0.206  10.132  1.00  0.00    -0.232 N
ATOM     32  H9  UNL     1     -25.502   0.181  10.523  1.00  0.00     0.184 HD
HETATM   33  N11 UNL     1     -28.403   0.723   9.322  1.00  0.00    -0.013 NA
ATOM     34  H10 UNL     1     -27.608  -0.454  10.879  1.00  0.00     0.205 HD
HETATM   35  N12 UNL     1     -28.230   2.068   8.991  1.00  0.00    -0.088 NA
HETATM   36  C18 UNL     1     -26.924   2.298   8.390  1.00  0.00     0.290 C
BRANCH  29  37
HETATM   37  N8  UNL     1     -25.436   0.569   7.772  1.00  0.00    -0.044 N
ATOM     38  H83 UNL     1     -24.520   0.759   7.366  1.00  0.00     0.277 HD
ATOM     39  H82 UNL     1     -25.234  -0.391   8.050  1.00  0.00     0.277 HD
ATOM     40  H81 UNL     1     -26.215   0.664   7.120  1.00  0.00     0.277 HD
ENDBRANCH  29  37
BRANCH  36  41
HETATM   41  O4  UNL     1     -27.160   2.085   6.999  1.00  0.00    -0.374 OA
ATOM     42  H4  UNL     1     -27.484   1.212   6.814  1.00  0.00     0.212 HD
ENDBRANCH  36  41
ENDBRANCH  14  29
BRANCH  13  43
HETATM   43  C12 UNL     1     -22.807   2.342  11.088  1.00  0.00     0.029 C
BRANCH  43  44
HETATM   44  C13 UNL     1     -22.029   1.203  11.624  1.00  0.00     0.004 C
BRANCH  44  45
HETATM   45  C14 UNL     1     -22.879   0.152  12.291  1.00  0.00     0.027 C
BRANCH  45  46
HETATM   46  C15 UNL     1     -22.242  -0.350  13.572  1.00  0.00     0.229 C
BRANCH  46  47
HETATM   47  N7  UNL     1     -20.869  -0.775  13.324  1.00  0.00    -0.079 N
ATOM     48  H73 UNL     1     -20.728  -1.759  13.552  1.00  0.00     0.274 HD
ATOM     49  H72 UNL     1     -20.660  -0.819  12.326  1.00  0.00     0.274 HD
ATOM     50  H71 UNL     1     -20.216  -0.172  13.824  1.00  0.00     0.274 HD
ENDBRANCH  46  47
ENDBRANCH  45  46
ENDBRANCH  44  45
ENDBRANCH  43  44
ENDBRANCH  13  43
TORSDOF 13
ENDMDL