MODEL 3
REMARK VINA RESULT: -5.146289482      2.199      5.432
REMARK  16 active torsions:
REMARK  status: ('A' for Active; 'I' for Inactive)
REMARK    1  A    between atoms: N1_1  and  C1_5
REMARK    2  A    between atoms: C1_5  and  C2_6
REMARK    3  A    between atoms: C2_6  and  C3_7
REMARK    4  A    between atoms: C3_7  and  C4_8
REMARK    5  A    between atoms: C4_8  and  O2_10
REMARK    6  A    between atoms: O2_10  and  C5_11
REMARK    7  A    between atoms: C6_12  and  N2_13
REMARK    8  A    between atoms: C9_19  and  O3_20
REMARK    9  A    between atoms: C10_24  and  N5_25
REMARK   10  A    between atoms: C12_30  and  N6_31
REMARK   11  A    between atoms: C13_35  and  O4_36
REMARK   12  A    between atoms: O4_36  and  C14_37
REMARK   13  A    between atoms: C15_39  and  C16_40
REMARK   14  A    between atoms: C16_40  and  N7_41
REMARK   15  A    between atoms: C17_45  and  N8_46
REMARK   16  A    between atoms: C19_51  and  N9_52
ROOT
HETATM    1  C5  UNL     1     -24.443   1.767   9.614  1.00  0.00     0.187 C
HETATM    2  C6  UNL     1     -24.846   0.886  10.772  1.00  0.00     0.147 C
HETATM    3  C10 UNL     1     -23.806   1.015  11.852  1.00  0.00     0.210 C
HETATM    4  C11 UNL     1     -23.521   2.456  12.234  1.00  0.00     0.070 C
HETATM    5  C12 UNL     1     -23.053   3.149  11.004  1.00  0.00     0.217 C
HETATM    6  C13 UNL     1     -24.262   3.190  10.050  1.00  0.00     0.186 C
ENDROOT
BRANCH   6   7
HETATM    7  O4  UNL     1     -25.316   3.668  10.826  1.00  0.00    -0.349 OA
BRANCH   7   8
HETATM    8  C14 UNL     1     -26.141   4.543  10.147  1.00  0.00     0.291 C
HETATM    9  O5  UNL     1     -26.138   5.842  10.651  1.00  0.00    -0.350 OA
HETATM   10  C15 UNL     1     -26.589   6.659   9.644  1.00  0.00     0.180 C
HETATM   11  C17 UNL     1     -27.804   6.175   8.931  1.00  0.00     0.216 C
HETATM   12  C18 UNL     1     -28.518   5.065   9.622  1.00  0.00     0.073 C
HETATM   13  C19 UNL     1     -27.574   4.080  10.322  1.00  0.00     0.240 C
BRANCH  10  14
HETATM   14  C16 UNL     1     -26.760   8.101  10.142  1.00  0.00     0.263 C
BRANCH  14  15
HETATM   15  N7  UNL     1     -25.603   8.854   9.659  1.00  0.00    -0.077 N
ATOM     16  H73 UNL     1     -25.136   9.388  10.391  1.00  0.00     0.274 HD
ATOM     17  H72 UNL     1     -24.813   8.260   9.408  1.00  0.00     0.274 HD
ATOM     18  H71 UNL     1     -25.931   9.433   8.886  1.00  0.00     0.274 HD
ENDBRANCH  14  15
ENDBRANCH  10  14
BRANCH  11  19
HETATM   19  N8  UNL     1     -27.538   5.782   7.559  1.00  0.00    -0.072 N
ATOM     20  H83 UNL     1     -27.084   6.537   7.046  1.00  0.00     0.274 HD
ATOM     21  H82 UNL     1     -26.797   5.083   7.517  1.00  0.00     0.274 HD
ATOM     22  H81 UNL     1     -28.372   5.459   7.068  1.00  0.00     0.274 HD
ENDBRANCH  11  19
BRANCH  13  23
HETATM   23  N9  UNL     1     -27.895   4.203  11.755  1.00  0.00    -0.070 N
ATOM     24  H93 UNL     1     -27.927   5.170  12.077  1.00  0.00     0.274 HD
ATOM     25  H92 UNL     1     -28.862   3.961  11.971  1.00  0.00     0.274 HD
ATOM     26  H91 UNL     1     -27.218   3.634  12.263  1.00  0.00     0.274 HD
ENDBRANCH  13  23
ENDBRANCH   7   8
ENDBRANCH   6   7
BRANCH   1  27
HETATM   27  O2  UNL     1     -25.116   1.557   8.436  1.00  0.00    -0.311 OA
BRANCH  27  28
HETATM   28  C4  UNL     1     -25.240   2.403   7.365  1.00  0.00     0.259 C
HETATM   29  O1  UNL     1     -26.412   2.772   7.177  1.00  0.00    -0.265 OA
BRANCH  28  30
HETATM   30  C3  UNL     1     -24.062   2.782   6.578  1.00  0.00     0.113 C
BRANCH  30  31
HETATM   31  C2  UNL     1     -24.041   4.270   6.269  1.00  0.00     0.037 C
BRANCH  31  32
HETATM   32  C1  UNL     1     -24.353   4.545   4.831  1.00  0.00     0.230 C
BRANCH  32  33
HETATM   33  N1  UNL     1     -25.755   4.436   4.522  1.00  0.00    -0.079 N
ATOM     34  H13 UNL     1     -26.234   3.859   5.212  1.00  0.00     0.274 HD
ATOM     35  H12 UNL     1     -26.232   5.323   4.684  1.00  0.00     0.274 HD
ATOM     36  H11 UNL     1     -25.934   4.095   3.578  1.00  0.00     0.274 HD
ENDBRANCH  32  33
ENDBRANCH  31  32
ENDBRANCH  30  31
ENDBRANCH  28  30
ENDBRANCH  27  28
ENDBRANCH   1  27
BRANCH   5  37
HETATM   37  N6  UNL     1     -22.482   4.441  11.211  1.00  0.00    -0.072 N
ATOM     38  H63 UNL     1     -23.145   5.165  10.932  1.00  0.00     0.274 HD
ATOM     39  H62 UNL     1     -22.412   4.637  12.209  1.00  0.00     0.274 HD
ATOM     40  H61 UNL     1     -21.581   4.598  10.758  1.00  0.00     0.274 HD
ENDBRANCH   5  37
BRANCH   2  41
HETATM   41  N2  UNL     1     -26.166   0.899  11.131  1.00  0.00    -0.353 N
HETATM   42  C7  UNL     1     -26.811   0.678  12.170  1.00  0.00     0.173 C
HETATM   43  N3  UNL     1     -28.276   0.773  12.254  1.00  0.00    -0.358 N
HETATM   44  N4  UNL     1     -26.447   0.309  13.492  1.00  0.00    -0.335 N
HETATM   45  C8  UNL     1     -28.710   0.001  13.391  1.00  0.00     0.176 C
ATOM     46  H3  UNL     1     -28.880   1.295  11.619  1.00  0.00     0.162 HD
HETATM   47  C9  UNL     1     -27.468  -0.673  13.899  1.00  0.00     0.238 C
ATOM     48  H4  UNL     1     -25.655   0.647  14.038  1.00  0.00     0.165 HD
ATOM     49  H2  UNL     1     -26.772   1.154  10.351  1.00  0.00     0.163 HD
BRANCH  47  50
HETATM   50  O3  UNL     1     -27.467  -0.886  15.258  1.00  0.00    -0.375 OA
ATOM     51  H3  UNL     1     -27.349  -0.094  15.770  1.00  0.00     0.212 HD
ENDBRANCH  47  50
ENDBRANCH   2  41
BRANCH   3  52
HETATM   52  N5  UNL     1     -22.534   0.536  11.245  1.00  0.00    -0.073 N
ATOM     53  H53 UNL     1     -22.059  -0.177  11.800  1.00  0.00     0.274 HD
ATOM     54  H52 UNL     1     -22.668  -0.032  10.408  1.00  0.00     0.274 HD
ATOM     55  H51 UNL     1     -21.972   1.372  11.086  1.00  0.00     0.274 HD
ENDBRANCH   3  52
TORSDOF 16
ENDMDL