MODEL 1
REMARK VINA RESULT: -5.042599355      0.000      0.000
REMARK  17 active torsions:
REMARK  status: ('A' for Active; 'I' for Inactive)
REMARK    1  A    between atoms: N1_1  and  C1_5
REMARK    2  A    between atoms: C1_5  and  C2_6
REMARK    3  A    between atoms: C2_6  and  O1_7
REMARK    4  A    between atoms: O1_7  and  C3_8
REMARK    5  A    between atoms: C4_9  and  N2_10
REMARK    6  A    between atoms: C5_14  and  N3_15
REMARK    7  A    between atoms: C7_20  and  N4_21
REMARK    8  A    between atoms: C8_25  and  O2_26
REMARK    9  A    between atoms: O2_26  and  C9_27
REMARK   10  A    between atoms: C10_29  and  O4_30
REMARK   11  A    between atoms: O4_30  and  C11_31
REMARK   12  A    between atoms: C12_32  and  N5_33
REMARK   13  A    between atoms: C14_38  and  N6_39
REMARK   14  A    between atoms: C15_43  and  O5_44
REMARK   15  A    between atoms: C16_46  and  N7_47
REMARK   16  A    between atoms: C17_51  and  N8_52
REMARK   17  A    between atoms: C19_57  and  N9_58
ROOT
HETATM    1  C9  UNL     1     -28.001  -2.328  11.746  1.00  0.00     0.294 C
HETATM    2  O3  UNL     1     -26.970  -1.766  10.965  1.00  0.00    -0.327 OA
HETATM    3  C10 UNL     1     -27.137  -0.453  10.655  1.00  0.00     0.293 C
HETATM    4  C17 UNL     1     -28.576  -0.005  10.558  1.00  0.00     0.240 C
HETATM    5  C18 UNL     1     -29.448  -1.111  10.079  1.00  0.00     0.075 C
HETATM    6  C19 UNL     1     -29.332  -2.289  11.024  1.00  0.00     0.240 C
ENDROOT
BRANCH   1   7
HETATM    7  O2  UNL     1     -27.680  -3.617  11.972  1.00  0.00    -0.349 OA
BRANCH   7   8
HETATM    8  C8  UNL     1     -26.832  -3.969  12.954  1.00  0.00     0.186 C
HETATM    9  C3  UNL     1     -25.930  -5.082  12.453  1.00  0.00     0.185 C
HETATM   10  C4  UNL     1     -26.012  -6.348  13.242  1.00  0.00     0.245 C
HETATM   11  C5  UNL     1     -27.355  -6.733  13.756  1.00  0.00     0.218 C
HETATM   12  C6  UNL     1     -28.208  -5.608  14.264  1.00  0.00     0.070 C
HETATM   13  C7  UNL     1     -27.402  -4.353  14.277  1.00  0.00     0.217 C
BRANCH   9  14
HETATM   14  O1  UNL     1     -24.588  -4.657  12.519  1.00  0.00    -0.379 OA
BRANCH  14  15
HETATM   15  C2  UNL     1     -23.863  -4.867  11.390  1.00  0.00     0.195 C
BRANCH  15  16
HETATM   16  C1  UNL     1     -24.491  -4.547  10.084  1.00  0.00     0.255 C
BRANCH  16  17
HETATM   17  N1  UNL     1     -24.549  -3.153   9.768  1.00  0.00    -0.077 N
ATOM     18  H13 UNL     1     -23.610  -2.755   9.759  1.00  0.00     0.274 HD
ATOM     19  H12 UNL     1     -24.805  -3.023   8.789  1.00  0.00     0.274 HD
ATOM     20  H11 UNL     1     -25.160  -2.601  10.369  1.00  0.00     0.274 HD
ENDBRANCH  16  17
ENDBRANCH  15  16
ENDBRANCH  14  15
ENDBRANCH   9  14
BRANCH  10  21
HETATM   21  N2  UNL     1     -24.972  -6.435  14.263  1.00  0.00    -0.070 N
ATOM     22  H23 UNL     1     -24.771  -5.518  14.662  1.00  0.00     0.274 HD
ATOM     23  H22 UNL     1     -25.317  -6.905  15.101  1.00  0.00     0.274 HD
ATOM     24  H21 UNL     1     -24.122  -6.879  13.915  1.00  0.00     0.274 HD
ENDBRANCH  10  21
BRANCH  11  25
HETATM   25  N3  UNL     1     -27.248  -7.701  14.865  1.00  0.00    -0.073 N
ATOM     26  H33 UNL     1     -26.786  -7.290  15.677  1.00  0.00     0.274 HD
ATOM     27  H32 UNL     1     -28.158  -7.893  15.282  1.00  0.00     0.274 HD
ATOM     28  H31 UNL     1     -26.785  -8.559  14.565  1.00  0.00     0.274 HD
ENDBRANCH  11  25
BRANCH  13  29
HETATM   29  N4  UNL     1     -28.098  -3.239  14.937  1.00  0.00    -0.072 N
ATOM     30  H43 UNL     1     -28.833  -2.861  14.339  1.00  0.00     0.274 HD
ATOM     31  H42 UNL     1     -28.671  -3.574  15.711  1.00  0.00     0.274 HD
ATOM     32  H41 UNL     1     -27.460  -2.504  15.244  1.00  0.00     0.274 HD
ENDBRANCH  13  29
ENDBRANCH   7   8
ENDBRANCH   1   7
BRANCH   6  33
HETATM   33  N9  UNL     1     -29.647  -3.539  10.367  1.00  0.00    -0.070 N
ATOM     34  H93 UNL     1     -28.810  -3.965   9.970  1.00  0.00     0.274 HD
ATOM     35  H92 UNL     1     -29.890  -4.258  11.048  1.00  0.00     0.274 HD
ATOM     36  H91 UNL     1     -30.377  -3.439   9.662  1.00  0.00     0.274 HD
ENDBRANCH   6  33
BRANCH   3  37
HETATM   37  O4  UNL     1     -26.540   0.383  11.594  1.00  0.00    -0.349 OA
BRANCH  37  38
HETATM   38  C11 UNL     1     -25.351  -0.122  12.112  1.00  0.00     0.188 C
HETATM   39  C12 UNL     1     -25.154   0.396  13.483  1.00  0.00     0.216 C
HETATM   40  C13 UNL     1     -23.784   0.469  14.018  1.00  0.00     0.070 C
HETATM   41  C14 UNL     1     -22.648   0.268  13.092  1.00  0.00     0.216 C
HETATM   42  C15 UNL     1     -22.986  -0.553  11.871  1.00  0.00     0.181 C
HETATM   43  C16 UNL     1     -24.172   0.161  11.243  1.00  0.00     0.244 C
BRANCH  39  44
HETATM   44  N5  UNL     1     -25.929  -0.492  14.373  1.00  0.00    -0.072 N
ATOM     45  H53 UNL     1     -26.863  -0.141  14.583  1.00  0.00     0.274 HD
ATOM     46  H52 UNL     1     -26.219  -1.361  13.926  1.00  0.00     0.274 HD
ATOM     47  H51 UNL     1     -25.353  -0.635  15.203  1.00  0.00     0.274 HD
ENDBRANCH  39  44
BRANCH  41  48
HETATM   48  N6  UNL     1     -21.527  -0.380  13.751  1.00  0.00    -0.072 N
ATOM     49  H63 UNL     1     -20.711  -0.423  13.141  1.00  0.00     0.274 HD
ATOM     50  H62 UNL     1     -21.141   0.206  14.492  1.00  0.00     0.274 HD
ATOM     51  H61 UNL     1     -21.779  -1.305  14.100  1.00  0.00     0.274 HD
ENDBRANCH  41  48
BRANCH  42  52
HETATM   52  O5  UNL     1     -23.420  -1.819  12.266  1.00  0.00    -0.391 OA
ATOM     53  H5  UNL     1     -23.711  -2.308  11.505  1.00  0.00     0.210 HD
ENDBRANCH  42  52
BRANCH  43  54
HETATM   54  N7  UNL     1     -23.836   1.560  11.189  1.00  0.00    -0.070 N
ATOM     55  H73 UNL     1     -24.363   2.087  11.885  1.00  0.00     0.274 HD
ATOM     56  H72 UNL     1     -22.891   1.722  11.537  1.00  0.00     0.274 HD
ATOM     57  H71 UNL     1     -23.956   1.962  10.259  1.00  0.00     0.274 HD
ENDBRANCH  43  54
ENDBRANCH  37  38
ENDBRANCH   3  37
BRANCH   4  58
HETATM   58  N8  UNL     1     -29.004   0.605  11.774  1.00  0.00    -0.070 N
ATOM     59  H83 UNL     1     -28.755   0.040  12.586  1.00  0.00     0.274 HD
ATOM     60  H82 UNL     1     -28.456   1.437  11.991  1.00  0.00     0.274 HD
ATOM     61  H81 UNL     1     -30.003   0.808  11.749  1.00  0.00     0.274 HD
ENDBRANCH   4  58
TORSDOF 17
ENDMDL