MODEL 1
REMARK VINA RESULT: -5.738236449      0.000      0.000
REMARK  16 active torsions:
REMARK  status: ('A' for Active; 'I' for Inactive)
REMARK    1  A    between atoms: N1_1  and  C1_5
REMARK    2  A    between atoms: C1_5  and  C2_6
REMARK    3  A    between atoms: C1_5  and  C3_9
REMARK    4  A    between atoms: C2_6  and  O1_7
REMARK    5  A    between atoms: C3_9  and  O2_10
REMARK    6  A    between atoms: C3_9  and  C4_12
REMARK    7  A    between atoms: C4_12  and  O3_13
REMARK    8  A    between atoms: C4_12  and  C5_15
REMARK    9  A    between atoms: C5_15  and  O4_16
REMARK   10  A    between atoms: O4_16  and  N2_17
REMARK   11  A    between atoms: N3_20  and  C8_21
REMARK   12  A    between atoms: C8_21  and  N4_22
REMARK   13  A    between atoms: C8_21  and  C9_26
REMARK   14  A    between atoms: C9_26  and  C10_27
REMARK   15  A    between atoms: C17_45  and  N9_46
REMARK   16  A    between atoms: C18_50  and  O6_51
ROOT
HETATM    1  N2  UNL     1     -24.895   2.668   8.707  1.00  0.00    -0.256 N
HETATM    2  C6  UNL     1     -23.967   1.667   8.333  1.00  0.00     0.197 C
HETATM    3  C7  UNL     1     -23.734   0.565   9.319  1.00  0.00     0.084 C
HETATM    4  N3  UNL     1     -23.785   0.950  10.660  1.00  0.00    -0.333 N
HETATM    5  C17 UNL     1     -24.279   2.231  10.975  1.00  0.00     0.335 C
HETATM    6  C18 UNL     1     -25.438   2.497  10.006  1.00  0.00     0.291 C
ENDROOT
BRANCH   4   7
HETATM    7  C8  UNL     1     -23.352   0.083  11.660  1.00  0.00     0.292 C
BRANCH   7   8
HETATM    8  N4  UNL     1     -21.938  -0.193  11.584  1.00  0.00    -0.058 N
ATOM      9  H43 UNL     1     -21.765  -1.098  11.147  1.00  0.00     0.276 HD
ATOM     10  H42 UNL     1     -21.483   0.411  10.900  1.00  0.00     0.276 HD
ATOM     11  H41 UNL     1     -21.475  -0.131  12.492  1.00  0.00     0.276 HD
ENDBRANCH   7   8
BRANCH   7  12
HETATM   12  C9  UNL     1     -24.118  -1.199  11.776  1.00  0.00     0.130 C
BRANCH  12  13
HETATM   13  C10 UNL     1     -25.506  -0.993  12.355  1.00  0.00     0.086 A
HETATM   14  N5  UNL     1     -26.585  -0.900  11.700  1.00  0.00    -0.316 N
HETATM   15  C11 UNL     1     -27.714  -0.708  12.552  1.00  0.00     0.444 A
ATOM     16  H5  UNL     1     -26.640  -0.955  10.683  1.00  0.00     0.165 HD
HETATM   17  N6  UNL     1     -28.361   0.503  12.152  1.00  0.00    -0.013 N
HETATM   18  N7  UNL     1     -28.643  -1.836  12.469  1.00  0.00    -0.013 N
HETATM   19  C16 UNL     1     -27.151  -0.710  13.904  1.00  0.00     0.310 A
HETATM   20  C12 UNL     1     -29.431   0.901  12.986  1.00  0.00     0.238 C
ATOM     21  H62 UNL     1     -27.681   1.257  12.065  1.00  0.00     0.282 HD
ATOM     22  H61 UNL     1     -28.673   0.435  11.183  1.00  0.00     0.282 HD
HETATM   23  C13 UNL     1     -30.492  -0.172  13.040  1.00  0.00     0.029 C
HETATM   24  C14 UNL     1     -30.708  -0.804  11.675  1.00  0.00     0.029 C
HETATM   25  C15 UNL     1     -29.540  -1.721  11.331  1.00  0.00     0.238 C
ATOM     26  H72 UNL     1     -28.145  -2.727  12.459  1.00  0.00     0.282 HD
ATOM     27  H71 UNL     1     -29.163  -1.953  13.339  1.00  0.00     0.282 HD
HETATM   28  O5  UNL     1     -27.687  -0.592  15.030  1.00  0.00    -0.266 OA
HETATM   29  N8  UNL     1     -25.754  -0.886  13.735  1.00  0.00    -0.311 N
ATOM     30  H8  UNL     1     -25.057  -0.928  14.478  1.00  0.00     0.170 HD
ENDBRANCH  12  13
ENDBRANCH   7  12
ENDBRANCH   4   7
BRANCH   5  31
HETATM   31  N9  UNL     1     -24.710   2.324  12.334  1.00  0.00    -0.054 N
ATOM     32  H93 UNL     1     -25.245   1.500  12.609  1.00  0.00     0.277 HD
ATOM     33  H92 UNL     1     -23.925   2.229  12.978  1.00  0.00     0.277 HD
ATOM     34  H91 UNL     1     -25.234   3.181  12.514  1.00  0.00     0.277 HD
ENDBRANCH   5  31
BRANCH   6  35
HETATM   35  O6  UNL     1     -26.185   1.296  10.000  1.00  0.00    -0.371 OA
ATOM     36  H6  UNL     1     -26.087   0.895  10.856  1.00  0.00     0.212 HD
ENDBRANCH   6  35
BRANCH   1  37
HETATM   37  O4  UNL     1     -24.585   3.896   8.328  1.00  0.00    -0.277 OA
BRANCH  37  38
HETATM   38  C5  UNL     1     -25.575   4.827   8.511  1.00  0.00     0.235 C
BRANCH  38  39
HETATM   39  C4  UNL     1     -25.041   6.090   9.196  1.00  0.00     0.175 C
BRANCH  39  40
HETATM   40  C3  UNL     1     -25.770   6.274  10.484  1.00  0.00     0.181 C
BRANCH  40  41
HETATM   41  C1  UNL     1     -27.219   5.874  10.457  1.00  0.00     0.237 C
BRANCH  41  42
HETATM   42  N1  UNL     1     -27.408   4.926  11.580  1.00  0.00    -0.070 N
ATOM     43  H13 UNL     1     -27.512   5.379  12.488  1.00  0.00     0.274 HD
ATOM     44  H12 UNL     1     -28.315   4.460  11.577  1.00  0.00     0.274 HD
ATOM     45  H11 UNL     1     -26.615   4.287  11.527  1.00  0.00     0.274 HD
ENDBRANCH  41  42
BRANCH  41  46
HETATM   46  C2  UNL     1     -28.206   6.959  10.692  1.00  0.00     0.199 C
BRANCH  46  47
HETATM   47  O1  UNL     1     -27.757   7.846  11.654  1.00  0.00    -0.399 OA
ATOM     48  H1  UNL     1     -28.457   8.096  12.246  1.00  0.00     0.209 HD
ENDBRANCH  46  47
ENDBRANCH  41  46
ENDBRANCH  40  41
BRANCH  40  49
HETATM   49  O2  UNL     1     -25.150   5.456  11.459  1.00  0.00    -0.391 OA
ATOM     50  H2  UNL     1     -25.178   5.944  12.274  1.00  0.00     0.210 HD
ENDBRANCH  40  49
ENDBRANCH  39  40
BRANCH  39  51
HETATM   51  O3  UNL     1     -25.148   7.175   8.348  1.00  0.00    -0.391 OA
ATOM     52  H3  UNL     1     -24.492   7.182   7.662  1.00  0.00     0.210 HD
ENDBRANCH  39  51
ENDBRANCH  38  39
ENDBRANCH  37  38
ENDBRANCH   1  37
TORSDOF 16
ENDMDL