MODEL 5
REMARK VINA RESULT: -5.773796076      5.467      8.200
REMARK  13 active torsions:
REMARK  status: ('A' for Active; 'I' for Inactive)
REMARK    1  A    between atoms: C1_4  and  C2_6
REMARK    2  A    between atoms: C3_8  and  O2_9
REMARK    3  A    between atoms: O2_9  and  C4_10
REMARK    4  A    between atoms: C5_11  and  N3_12
REMARK    5  A    between atoms: C7_17  and  N4_18
REMARK    6  A    between atoms: C8_22  and  O3_23
REMARK    7  A    between atoms: O3_23  and  C9_24
REMARK    8  A    between atoms: C10_26  and  C11_27
REMARK    9  A    between atoms: C11_27  and  N5_28
REMARK   10  A    between atoms: C14_34  and  N6_35
REMARK   11  A    between atoms: C15_39  and  N7_40
REMARK   12  A    between atoms: C16_44  and  N8_45
REMARK   13  A    between atoms: C18_50  and  N9_51
ROOT
HETATM    1  C4  UNL     1     -25.543   4.712   8.980  1.00  0.00     0.188 C
HETATM    2  C5  UNL     1     -26.134   5.401   7.745  1.00  0.00     0.216 C
HETATM    3  C6  UNL     1     -25.931   6.904   7.864  1.00  0.00     0.070 C
HETATM    4  C7  UNL     1     -25.844   7.314   9.343  1.00  0.00     0.216 C
HETATM    5  C8  UNL     1     -26.876   6.525  10.080  1.00  0.00     0.188 C
HETATM    6  C15 UNL     1     -26.262   5.116  10.226  1.00  0.00     0.245 C
ENDROOT
BRANCH   1   7
HETATM    7  O2  UNL     1     -25.616   3.368   8.832  1.00  0.00    -0.350 OA
BRANCH   7   8
HETATM    8  C3  UNL     1     -24.754   2.643   9.627  1.00  0.00     0.291 C
HETATM    9  O1  UNL     1     -25.426   2.040  10.710  1.00  0.00    -0.345 OA
HETATM   10  C2  UNL     1     -24.414   1.803  11.665  1.00  0.00     0.211 C
HETATM   11  C18 UNL     1     -23.493   0.716  11.190  1.00  0.00     0.122 C
HETATM   12  C17 UNL     1     -22.936   1.036   9.806  1.00  0.00     0.066 C
HETATM   13  C16 UNL     1     -24.010   1.577   8.903  1.00  0.00     0.240 C
BRANCH  10  14
HETATM   14  C1  UNL     1     -25.050   1.408  12.919  1.00  0.00     0.118 C
HETATM   15  N1  UNL     1     -26.313   1.204  12.972  1.00  0.00    -0.389 N
ATOM     16  H12 UNL     1     -26.757   0.929  13.847  1.00  0.00     0.157 HD
ATOM     17  H11 UNL     1     -26.863   1.324  12.121  1.00  0.00     0.157 HD
HETATM   18  N2  UNL     1     -24.285   1.242  14.101  1.00  0.00    -0.085 NA
ENDBRANCH  10  14
BRANCH  11  19
HETATM   19  N9  UNL     1     -22.362   0.588  12.067  1.00  0.00    -0.359 N
HETATM   20  C19 UNL     1     -21.968  -0.503  12.628  1.00  0.00     0.197 C
HETATM   21  N10 UNL     1     -22.588  -1.765  12.474  1.00  0.00    -0.067 NA
HETATM   22  N11 UNL     1     -20.818  -0.410  13.452  1.00  0.00    -0.067 NA
ATOM     23  H9  UNL     1     -21.825   1.433  12.263  1.00  0.00     0.162 HD
ENDBRANCH  11  19
BRANCH  13  24
HETATM   24  N8  UNL     1     -24.919   0.433   8.618  1.00  0.00    -0.070 N
ATOM     25  H83 UNL     1     -24.419  -0.364   8.224  1.00  0.00     0.274 HD
ATOM     26  H82 UNL     1     -25.256  -0.011   9.471  1.00  0.00     0.274 HD
ATOM     27  H81 UNL     1     -25.683   0.740   8.017  1.00  0.00     0.274 HD
ENDBRANCH  13  24
ENDBRANCH   7   8
ENDBRANCH   1   7
BRANCH   2  28
HETATM   28  N3  UNL     1     -27.487   5.005   7.493  1.00  0.00    -0.072 N
ATOM     29  H33 UNL     1     -27.749   4.205   8.067  1.00  0.00     0.274 HD
ATOM     30  H32 UNL     1     -28.146   5.693   7.859  1.00  0.00     0.274 HD
ATOM     31  H31 UNL     1     -27.661   4.820   6.504  1.00  0.00     0.274 HD
ENDBRANCH   2  28
BRANCH   6  32
HETATM   32  N7  UNL     1     -25.382   5.191  11.377  1.00  0.00    -0.070 N
ATOM     33  H73 UNL     1     -25.757   4.658  12.161  1.00  0.00     0.274 HD
ATOM     34  H72 UNL     1     -24.523   4.665  11.217  1.00  0.00     0.274 HD
ATOM     35  H71 UNL     1     -25.177   6.152  11.652  1.00  0.00     0.274 HD
ENDBRANCH   6  32
BRANCH   5  36
HETATM   36  O3  UNL     1     -27.070   6.961  11.368  1.00  0.00    -0.350 OA
BRANCH  36  37
HETATM   37  C9  UNL     1     -28.422   7.277  11.603  1.00  0.00     0.291 C
HETATM   38  O4  UNL     1     -28.749   8.484  10.916  1.00  0.00    -0.352 OA
HETATM   39  C10 UNL     1     -30.003   8.843  11.338  1.00  0.00     0.150 C
HETATM   40  C12 UNL     1     -31.039   7.884  10.809  1.00  0.00     0.036 C
HETATM   41  C13 UNL     1     -30.497   6.569  10.381  1.00  0.00     0.040 C
HETATM   42  C14 UNL     1     -29.286   6.158  11.187  1.00  0.00     0.238 C
BRANCH  39  43
HETATM   43  C11 UNL     1     -30.147   9.015  12.844  1.00  0.00     0.261 C
BRANCH  43  44
HETATM   44  N5  UNL     1     -31.402   8.451  13.259  1.00  0.00    -0.077 N
ATOM     45  H53 UNL     1     -31.798   7.823  12.558  1.00  0.00     0.274 HD
ATOM     46  H52 UNL     1     -31.294   7.772  14.012  1.00  0.00     0.274 HD
ATOM     47  H51 UNL     1     -32.039   9.208  13.506  1.00  0.00     0.274 HD
ENDBRANCH  43  44
ENDBRANCH  39  43
BRANCH  42  48
HETATM   48  N6  UNL     1     -29.733   5.274  12.251  1.00  0.00    -0.070 N
ATOM     49  H63 UNL     1     -28.933   4.956  12.798  1.00  0.00     0.274 HD
ATOM     50  H62 UNL     1     -30.236   5.808  12.959  1.00  0.00     0.274 HD
ATOM     51  H61 UNL     1     -30.292   4.473  11.957  1.00  0.00     0.274 HD
ENDBRANCH  42  48
ENDBRANCH  36  37
ENDBRANCH   5  36
BRANCH   4  52
HETATM   52  N4  UNL     1     -25.926   8.737   9.497  1.00  0.00    -0.072 N
ATOM     53  H43 UNL     1     -25.796   9.016  10.470  1.00  0.00     0.274 HD
ATOM     54  H42 UNL     1     -25.116   9.205   9.089  1.00  0.00     0.274 HD
ATOM     55  H41 UNL     1     -26.799   9.104   9.116  1.00  0.00     0.274 HD
ENDBRANCH   4  52
TORSDOF 13
ENDMDL