MODEL 2
REMARK VINA RESULT: -6.050905855      2.143      3.804
REMARK  15 active torsions:
REMARK  status: ('A' for Active; 'I' for Inactive)
REMARK    1  A    between atoms: N1_1  and  C1_5
REMARK    2  A    between atoms: C1_5  and  N2_6
REMARK    3  A    between atoms: C1_5  and  C2_10
REMARK       I    between atoms: C2_10  and  N3_12
REMARK    4  A    between atoms: N3_12  and  C3_14
REMARK    5  A    between atoms: C3_14  and  C4_15
REMARK    6  A    between atoms: C3_14  and  C8_23
REMARK    7  A    between atoms: C4_15  and  C5_16
REMARK    8  A    between atoms: C8_23  and  O2_24
REMARK    9  A    between atoms: C8_23  and  N6_26
REMARK   10  A    between atoms: C10_31  and  N9_32
REMARK   11  A    between atoms: N9_32  and  C11_34
REMARK   12  A    between atoms: C13_36  and  C14_37
REMARK   13  A    between atoms: C14_37  and  O3_38
REMARK   14  A    between atoms: C15_40  and  O4_41
REMARK   15  A    between atoms: C16_43  and  N10_44
ROOT
HETATM    1  N6  UNL     1     -28.040  -1.974  13.523  1.00  0.00    -0.227 N
HETATM    2  N7  UNL     1     -27.837  -1.193  14.583  1.00  0.00    -0.015 NA
HETATM    3  N8  UNL     1     -27.099  -0.149  14.227  1.00  0.00    -0.277 N
ATOM      4  H8  UNL     1     -26.802   0.598  14.854  1.00  0.00     0.184 HD
HETATM    5  C9  UNL     1     -26.797  -0.224  12.906  1.00  0.00     0.135 A
HETATM    6  C10 UNL     1     -26.073   0.587  12.059  1.00  0.00     0.134 A
HETATM    7  N11 UNL     1     -25.959   0.223  10.770  1.00  0.00    -0.337 N
ATOM      8  H11 UNL     1     -25.431   0.801  10.116  1.00  0.00     0.168 HD
HETATM    9  C17 UNL     1     -26.545  -0.906  10.353  1.00  0.00     0.183 A
HETATM   10  N12 UNL     1     -27.247  -1.690  11.180  1.00  0.00    -0.336 N
ATOM     11  H12 UNL     1     -27.673  -2.539  10.808  1.00  0.00     0.168 HD
HETATM   12  C18 UNL     1     -27.413  -1.402  12.482  1.00  0.00     0.156 A
ENDROOT
BRANCH   1  13
HETATM   13  C8  UNL     1     -28.793  -3.207  13.481  1.00  0.00     0.264 C
BRANCH  13  14
HETATM   14  C3  UNL     1     -28.202  -4.312  14.263  1.00  0.00     0.140 C
BRANCH  14  15
HETATM   15  N3  UNL     1     -28.055  -3.993  15.652  1.00  0.00    -0.349 N
HETATM   16  C2  UNL     1     -28.953  -4.175  16.702  1.00  0.00     0.276 C
HETATM   17  O1  UNL     1     -30.071  -4.686  16.553  1.00  0.00    -0.269 OA
ATOM     18  H3  UNL     1     -27.163  -3.571  15.910  1.00  0.00     0.163 HD
BRANCH  16  19
HETATM   19  C1  UNL     1     -28.585  -3.746  18.074  1.00  0.00     0.468 C
BRANCH  19  20
HETATM   20  N1  UNL     1     -29.725  -3.252  18.822  1.00  0.00    -0.042 N
ATOM     21  H13 UNL     1     -29.629  -2.264  19.059  1.00  0.00     0.277 HD
ATOM     22  H12 UNL     1     -30.563  -3.186  18.244  1.00  0.00     0.277 HD
ATOM     23  H11 UNL     1     -29.877  -3.829  19.649  1.00  0.00     0.277 HD
ENDBRANCH  19  20
BRANCH  19  24
HETATM   24  N2  UNL     1     -27.545  -2.723  18.016  1.00  0.00    -0.042 N
ATOM     25  H23 UNL     1     -27.636  -2.134  17.189  1.00  0.00     0.277 HD
ATOM     26  H22 UNL     1     -27.677  -2.004  18.727  1.00  0.00     0.277 HD
ATOM     27  H21 UNL     1     -26.625  -3.158  18.077  1.00  0.00     0.277 HD
ENDBRANCH  19  24
ENDBRANCH  16  19
ENDBRANCH  14  15
BRANCH  14  28
HETATM   28  C4  UNL     1     -27.023  -5.008  13.620  1.00  0.00     0.088 C
BRANCH  28  29
HETATM   29  C5  UNL     1     -27.070  -6.490  13.803  1.00  0.00     0.027 A
HETATM   30  C6  UNL     1     -26.187  -7.408  13.239  1.00  0.00     0.114 A
HETATM   31  N4  UNL     1     -26.514  -8.641  13.618  1.00  0.00    -0.360 N
HETATM   32  C7  UNL     1     -27.598  -8.547  14.422  1.00  0.00     0.180 A
ATOM     33  H4  UNL     1     -26.035  -9.501  13.351  1.00  0.00     0.166 HD
HETATM   34  N5  UNL     1     -27.911  -7.245  14.518  1.00  0.00    -0.355 N
ATOM     35  H5  UNL     1     -28.690  -6.880  15.065  1.00  0.00     0.166 HD
ENDBRANCH  28  29
ENDBRANCH  14  28
ENDBRANCH  13  14
BRANCH  13  36
HETATM   36  O2  UNL     1     -30.112  -2.990  13.943  1.00  0.00    -0.373 OA
ATOM     37  H2  UNL     1     -30.117  -2.201  14.474  1.00  0.00     0.212 HD
ENDBRANCH  13  36
ENDBRANCH   1  13
BRANCH   6  38
HETATM   38  N9  UNL     1     -25.520   1.667  12.493  1.00  0.00    -0.367 N
ATOM     39  H9  UNL     1     -26.109   2.437  12.812  1.00  0.00     0.161 HD
BRANCH  38  40
HETATM   40  C11 UNL     1     -24.098   1.808  12.536  1.00  0.00     0.116 C
HETATM   41  C12 UNL     1     -23.483   0.726  13.399  1.00  0.00     0.036 C
HETATM   42  C13 UNL     1     -22.698  -0.139  12.468  1.00  0.00     0.042 C
HETATM   43  C15 UNL     1     -22.191   0.886  11.454  1.00  0.00     0.156 C
HETATM   44  C16 UNL     1     -23.475   1.627  11.144  1.00  0.00     0.234 C
BRANCH  42  45
HETATM   45  C14 UNL     1     -21.559  -0.866  13.126  1.00  0.00     0.171 C
BRANCH  45  46
HETATM   46  O3  UNL     1     -21.712  -2.230  12.790  1.00  0.00    -0.400 OA
ATOM     47  H3  UNL     1     -22.647  -2.398  12.774  1.00  0.00     0.209 HD
ENDBRANCH  45  46
ENDBRANCH  42  45
BRANCH  43  48
HETATM   48  O4  UNL     1     -21.622   0.301  10.351  1.00  0.00    -0.393 OA
ATOM     49  H4  UNL     1     -21.024  -0.402  10.576  1.00  0.00     0.210 HD
ENDBRANCH  43  48
BRANCH  44  50
HETATM   50  N10 UNL     1     -23.240   2.879  10.498  1.00  0.00    -0.071 N
ATOM     51 3H10 UNL     1     -22.311   3.239  10.715  1.00  0.00     0.274 HD
ATOM     52 2H10 UNL     1     -23.135   2.763   9.490  1.00  0.00     0.274 HD
ATOM     53 1H10 UNL     1     -23.963   3.564  10.719  1.00  0.00     0.274 HD
ENDBRANCH  44  50
ENDBRANCH  38  40
ENDBRANCH   6  38
TORSDOF 15
ENDMDL