MODEL 4
REMARK VINA RESULT: -4.621108875      1.749      5.233
REMARK  17 active torsions:
REMARK  status: ('A' for Active; 'I' for Inactive)
REMARK    1  A    between atoms: C2_2  and  C4_4
REMARK    2  A    between atoms: C4_4  and  N1_5
REMARK    3  A    between atoms: C4_4  and  C5_9
REMARK    4  A    between atoms: C5_9  and  C6_10
REMARK    5  A    between atoms: C6_10  and  O1_11
REMARK    6  A    between atoms: C6_10  and  N2_13
REMARK    7  A    between atoms: N2_13  and  C7_15
REMARK    8  A    between atoms: C8_17  and  O3_18
REMARK    9  A    between atoms: O3_18  and  C9_19
REMARK   10  A    between atoms: C10_20  and  N3_21
REMARK   11  A    between atoms: C12_26  and  N4_27
REMARK   12  A    between atoms: C13_31  and  N5_32
REMARK   13  A    between atoms: C15_37  and  C16_38
REMARK   14  A    between atoms: C16_38  and  N8_39
REMARK   15  A    between atoms: C16_38  and  N9_43
REMARK   16  A    between atoms: C17_47  and  N10_48
REMARK   17  A    between atoms: C19_53  and  N11_54
ROOT
HETATM    1  O3  UNL     1     -28.820   0.858  11.132  1.00  0.00    -0.351 OA
ENDROOT
BRANCH   1   2
HETATM    2  C8  UNL     1     -28.191  -0.216  11.786  1.00  0.00     0.293 C
HETATM    3  O2  UNL     1     -27.096   0.175  12.486  1.00  0.00    -0.333 OA
HETATM    4  C7  UNL     1     -26.962  -0.399  13.772  1.00  0.00     0.252 C
HETATM    5  C19 UNL     1     -27.241  -1.867  13.741  1.00  0.00     0.233 C
HETATM    6  C18 UNL     1     -28.589  -2.226  13.136  1.00  0.00     0.075 C
HETATM    7  C17 UNL     1     -29.215  -1.014  12.523  1.00  0.00     0.240 C
BRANCH   4   8
HETATM    8  N2  UNL     1     -25.719  -0.045  14.258  1.00  0.00    -0.369 N
ATOM      9  H2  UNL     1     -25.570  -0.243  15.247  1.00  0.00     0.158 HD
BRANCH   8  10
HETATM   10  C6  UNL     1     -24.655   0.531  13.616  1.00  0.00     0.217 C
BRANCH  10  11
HETATM   11  C5  UNL     1     -23.279   0.148  14.013  1.00  0.00     0.086 C
BRANCH  11  12
HETATM   12  C4  UNL     1     -22.598  -0.672  12.894  1.00  0.00     0.191 C
BRANCH  12  13
HETATM   13  C2  UNL     1     -22.959  -0.139  11.533  1.00  0.00     0.008 C
HETATM   14  C1  UNL     1     -21.686   0.428  10.930  1.00  0.00     0.011 C
HETATM   15  C3  UNL     1     -23.474  -1.182  10.592  1.00  0.00     0.011 C
ENDBRANCH  12  13
BRANCH  12  16
HETATM   16  N1  UNL     1     -21.160  -0.576  13.045  1.00  0.00    -0.075 N
ATOM     17  H13 UNL     1     -20.791  -1.234  13.731  1.00  0.00     0.274 HD
ATOM     18  H12 UNL     1     -20.653  -0.926  12.232  1.00  0.00     0.274 HD
ATOM     19  H11 UNL     1     -20.931   0.394  13.265  1.00  0.00     0.274 HD
ENDBRANCH  12  16
ENDBRANCH  11  12
ENDBRANCH  10  11
BRANCH  10  20
HETATM   20  O1  UNL     1     -24.764   1.948  13.492  1.00  0.00    -0.377 OA
ATOM     21  H1  UNL     1     -24.729   2.361  14.348  1.00  0.00     0.212 HD
ENDBRANCH  10  20
ENDBRANCH   8  10
ENDBRANCH   4   8
BRANCH   5  22
HETATM   22  N11 UNL     1     -26.191  -2.520  12.973  1.00  0.00    -0.071 N
ATOM     23 3H11 UNL     1     -26.560  -3.084  12.207  1.00  0.00     0.274 HD
ATOM     24 2H11 UNL     1     -25.649  -1.862  12.413  1.00  0.00     0.274 HD
ATOM     25 1H11 UNL     1     -25.610  -3.061  13.614  1.00  0.00     0.274 HD
ENDBRANCH   5  22
BRANCH   7  26
HETATM   26  N10 UNL     1     -30.077  -0.273  13.391  1.00  0.00    -0.070 N
ATOM     27 3H10 UNL     1     -30.667   0.354  12.843  1.00  0.00     0.274 HD
ATOM     28 2H10 UNL     1     -30.786  -0.891  13.787  1.00  0.00     0.274 HD
ATOM     29 1H10 UNL     1     -29.616   0.249  14.137  1.00  0.00     0.274 HD
ENDBRANCH   7  26
ENDBRANCH   1   2
BRANCH   1  30
HETATM   30  C9  UNL     1     -28.306   2.095  11.509  1.00  0.00     0.165 C
HETATM   31  C10 UNL     1     -29.393   2.978  12.043  1.00  0.00     0.215 C
HETATM   32  C11 UNL     1     -29.127   4.422  11.964  1.00  0.00     0.070 C
HETATM   33  C12 UNL     1     -27.721   4.834  11.677  1.00  0.00     0.208 C
HETATM   34  C13 UNL     1     -26.915   3.998  10.788  1.00  0.00     0.124 C
HETATM   35  C15 UNL     1     -27.474   2.641  10.419  1.00  0.00     0.099 C
BRANCH  31  36
HETATM   36  N3  UNL     1     -30.637   2.573  11.415  1.00  0.00    -0.072 N
ATOM     37  H33 UNL     1     -31.375   3.269  11.512  1.00  0.00     0.274 HD
ATOM     38  H32 UNL     1     -30.585   2.573  10.396  1.00  0.00     0.274 HD
ATOM     39  H31 UNL     1     -30.895   1.665  11.800  1.00  0.00     0.274 HD
ENDBRANCH  31  36
BRANCH  33  40
HETATM   40  N4  UNL     1     -27.833   6.187  11.113  1.00  0.00    -0.073 N
ATOM     41  H43 UNL     1     -28.552   6.761  11.554  1.00  0.00     0.274 HD
ATOM     42  H42 UNL     1     -27.046   6.796  11.339  1.00  0.00     0.274 HD
ATOM     43  H41 UNL     1     -27.972   6.042  10.113  1.00  0.00     0.274 HD
ENDBRANCH  33  40
BRANCH  34  44
HETATM   44  N5  UNL     1     -25.555   3.798  11.180  1.00  0.00    -0.360 N
HETATM   45  C14 UNL     1     -24.480   3.768  10.556  1.00  0.00     0.197 C
HETATM   46  N6  UNL     1     -23.274   3.539  11.306  1.00  0.00    -0.067 NA
HETATM   47  N7  UNL     1     -24.340   3.925   9.178  1.00  0.00    -0.067 NA
ATOM     48  H5  UNL     1     -25.443   3.649  12.183  1.00  0.00     0.162 HD
ENDBRANCH  34  44
BRANCH  35  49
HETATM   49  C16 UNL     1     -28.021   2.560   9.030  1.00  0.00     0.386 C
BRANCH  49  50
HETATM   50  N8  UNL     1     -27.607   1.254   8.486  1.00  0.00    -0.050 N
ATOM     51  H83 UNL     1     -27.529   0.527   9.197  1.00  0.00     0.276 HD
ATOM     52  H82 UNL     1     -28.329   0.805   7.922  1.00  0.00     0.276 HD
ATOM     53  H81 UNL     1     -26.738   1.412   7.974  1.00  0.00     0.276 HD
ENDBRANCH  49  50
BRANCH  49  54
HETATM   54  N9  UNL     1     -27.562   3.534   8.103  1.00  0.00    -0.050 N
ATOM     55  H93 UNL     1     -28.138   4.373   8.175  1.00  0.00     0.276 HD
ATOM     56  H92 UNL     1     -26.660   3.899   8.410  1.00  0.00     0.276 HD
ATOM     57  H91 UNL     1     -27.499   3.245   7.127  1.00  0.00     0.276 HD
ENDBRANCH  49  54
ENDBRANCH  35  49
ENDBRANCH   1  30
TORSDOF 17
ENDMDL