MODEL 2
REMARK VINA RESULT: -6.017812114      1.054      1.153
REMARK  13 active torsions:
REMARK  status: ('A' for Active; 'I' for Inactive)
REMARK    1  A    between atoms: O1_2  and  C2_3
REMARK    2  A    between atoms: C2_3  and  C3_4
REMARK    3  A    between atoms: C2_3  and  N1_8
REMARK    4  A    between atoms: C3_4  and  C4_5
REMARK    5  A    between atoms: N1_8  and  C6_10
REMARK    6  A    between atoms: C6_10  and  C7_11
REMARK    7  A    between atoms: C7_11  and  O3_13
REMARK    8  A    between atoms: C7_11  and  N2_15
REMARK    9  A    between atoms: N2_15  and  C9_17
REMARK   10  A    between atoms: N4_25  and  C12_27
REMARK   11  A    between atoms: C12_27  and  N5_28
REMARK   12  A    between atoms: C12_27  and  O6_32
REMARK   13  A    between atoms: C13_38  and  N8_39
ROOT
HETATM    1  C6  UNL     1     -24.761   4.191   9.992  1.00  0.00     0.248 C
HETATM    2  N6  UNL     1     -26.017   3.372  10.072  1.00  0.00    -0.296 N
ATOM      3  H6  UNL     1     -26.094   2.453   9.636  1.00  0.00     0.183 HD
HETATM    4  N7  UNL     1     -27.031   3.925  10.752  1.00  0.00    -0.291 N
ATOM      5  H7  UNL     1     -27.422   3.438  11.558  1.00  0.00     0.184 HD
HETATM    6  C13 UNL     1     -27.566   5.180  10.364  1.00  0.00     0.403 C
HETATM    7  N9  UNL     1     -26.419   6.071  10.158  1.00  0.00    -0.313 N
ATOM      8  H9  UNL     1     -26.458   7.053  10.430  1.00  0.00     0.166 HD
HETATM    9  C14 UNL     1     -25.224   5.507   9.554  1.00  0.00     0.276 C
HETATM   10  O7  UNL     1     -24.714   6.246   8.688  1.00  0.00    -0.268 OA
ENDROOT
BRANCH   1  11
HETATM   11  N1  UNL     1     -23.991   3.511   8.938  1.00  0.00    -0.358 N
ATOM     12  H1  UNL     1     -22.983   3.635   8.842  1.00  0.00     0.159 HD
BRANCH  11  13
HETATM   13  C2  UNL     1     -24.730   2.676   8.064  1.00  0.00     0.225 C
BRANCH  13  14
HETATM   14  O1  UNL     1     -24.703   1.309   8.386  1.00  0.00    -0.371 OA
HETATM   15  C1  UNL     1     -25.440   0.579   7.505  1.00  0.00     0.204 C
ENDBRANCH  13  14
BRANCH  13  16
HETATM   16  C3  UNL     1     -24.052   2.700   6.681  1.00  0.00     0.131 C
BRANCH  16  17
HETATM   17  C4  UNL     1     -23.778   4.012   6.143  1.00  0.00     0.127 C
HETATM   18  C5  UNL     1     -24.727   4.588   5.133  1.00  0.00     0.091 C
HETATM   19  O2  UNL     1     -22.828   4.677   6.460  1.00  0.00    -0.298 OA
ENDBRANCH  16  17
ENDBRANCH  13  16
ENDBRANCH  11  13
ENDBRANCH   1  11
BRANCH   1  20
HETATM   20  C7  UNL     1     -24.036   4.019  11.263  1.00  0.00     0.180 C
HETATM   21  C8  UNL     1     -22.501   4.145  11.066  1.00  0.00     0.076 C
BRANCH  20  22
HETATM   22  O3  UNL     1     -24.297   5.336  11.917  1.00  0.00    -0.367 OA
ATOM     23  H3  UNL     1     -23.518   5.428  12.453  1.00  0.00     0.212 HD
ENDBRANCH  20  22
BRANCH  20  24
HETATM   24  N2  UNL     1     -24.305   3.129  12.276  1.00  0.00    -0.376 N
ATOM     25  H2  UNL     1     -24.948   3.500  12.976  1.00  0.00     0.157 HD
BRANCH  24  26
HETATM   26  C9  UNL     1     -23.895   1.860  12.544  1.00  0.00     0.163 C
HETATM   27  C10 UNL     1     -23.138   0.974  11.628  1.00  0.00     0.196 C
HETATM   28  S1  UNL     1     -22.933  -0.423  12.786  1.00  0.00     0.234 S
HETATM   29  O4  UNL     1     -22.855  -1.708  12.068  1.00  0.00    -0.206 OA
HETATM   30  O5  UNL     1     -21.776  -0.147  13.686  1.00  0.00    -0.206 OA
HETATM   31  N3  UNL     1     -24.442  -0.186  13.607  1.00  0.00    -0.272 N
HETATM   32  C11 UNL     1     -25.039   0.945  12.992  1.00  0.00     0.113 C
ATOM     33  H3  UNL     1     -24.821  -0.743  14.372  1.00  0.00     0.180 HD
HETATM   34  N4  UNL     1     -26.275   1.241  12.812  1.00  0.00    -0.329 N
ATOM     35  H4  UNL     1     -26.445   2.133  12.346  1.00  0.00     0.165 HD
BRANCH  34  36
HETATM   36  C12 UNL     1     -27.435   0.516  13.162  1.00  0.00     0.424 C
BRANCH  36  37
HETATM   37  N5  UNL     1     -28.595   1.400  13.117  1.00  0.00    -0.035 N
ATOM     38  H53 UNL     1     -28.830   1.678  12.164  1.00  0.00     0.279 HD
ATOM     39  H52 UNL     1     -29.461   0.912  13.344  1.00  0.00     0.279 HD
ATOM     40  H51 UNL     1     -28.434   2.203  13.725  1.00  0.00     0.279 HD
ENDBRANCH  36  37
BRANCH  36  41
HETATM   41  O6  UNL     1     -27.368  -0.058  14.426  1.00  0.00    -0.355 OA
ATOM     42  H6  UNL     1     -27.136  -0.979  14.411  1.00  0.00     0.213 HD
ENDBRANCH  36  41
ENDBRANCH  34  36
ENDBRANCH  24  26
ENDBRANCH  20  24
ENDBRANCH   1  20
BRANCH   6  43
HETATM   43  N8  UNL     1     -28.307   5.746  11.499  1.00  0.00    -0.039 N
ATOM     44  H83 UNL     1     -29.311   5.790  11.327  1.00  0.00     0.279 HD
ATOM     45  H82 UNL     1     -28.328   5.119  12.304  1.00  0.00     0.279 HD
ATOM     46  H81 UNL     1     -27.909   6.658  11.726  1.00  0.00     0.279 HD
ENDBRANCH   6  43
TORSDOF 13
ENDMDL