MODEL 5
REMARK VINA RESULT: -4.864136262      2.086      2.438
REMARK  15 active torsions:
REMARK  status: ('A' for Active; 'I' for Inactive)
REMARK    1  A    between atoms: N1_1  and  C1_5
REMARK    2  A    between atoms: C1_5  and  C2_6
REMARK    3  A    between atoms: C2_6  and  C3_7
REMARK    4  A    between atoms: C3_7  and  O1_8
REMARK    5  A    between atoms: O1_8  and  N2_9
REMARK    6  A    between atoms: C5_11  and  C6_12
REMARK    7  A    between atoms: C6_12  and  O2_13
REMARK       I    between atoms: N4_24  and  C13_26
REMARK    8  A    between atoms: C13_26  and  C14_28
REMARK    9  A    between atoms: C14_28  and  O5_29
REMARK   10  A    between atoms: C14_28  and  C15_31
REMARK   11  A    between atoms: C15_31  and  N5_32
REMARK   12  A    between atoms: C16_38  and  O6_39
REMARK   13  A    between atoms: C17_41  and  O7_42
REMARK   14  A    between atoms: N7_44  and  C18_45
REMARK   15  A    between atoms: C18_45  and  N8_46
ROOT
HETATM    1  N2  UNL     1     -23.442   2.166  10.690  1.00  0.00    -0.119 NA
HETATM    2  C4  UNL     1     -23.135   2.032   9.304  1.00  0.00     0.167 C
HETATM    3  C5  UNL     1     -24.194   2.592   8.379  1.00  0.00     0.124 C
HETATM    4  N3  UNL     1     -24.745   1.562   7.517  1.00  0.00    -0.353 N
ATOM      5  H3  UNL     1     -24.257   0.666   7.478  1.00  0.00     0.163 HD
HETATM    6  C7  UNL     1     -25.897   1.709   6.737  1.00  0.00     0.217 C
HETATM    7  O3  UNL     1     -25.990   1.092   5.639  1.00  0.00    -0.274 OA
HETATM    8  C8  UNL     1     -27.058   2.563   7.112  1.00  0.00     0.103 C
HETATM    9  C9  UNL     1     -27.849   2.034   8.263  1.00  0.00     0.010 C
HETATM   10  C10 UNL     1     -28.075   0.564   8.185  1.00  0.00     0.008 C
HETATM   11  C11 UNL     1     -27.525  -0.187   9.370  1.00  0.00     0.076 C
HETATM   12  C12 UNL     1     -27.896   0.463  10.662  1.00  0.00     0.081 C
HETATM   13  N4  UNL     1     -29.190   0.586  10.845  1.00  0.00    -0.315 N
ATOM     14  H4  UNL     1     -29.807   0.237  10.111  1.00  0.00     0.170 HD
HETATM   15  C13 UNL     1     -29.784   1.160  11.974  1.00  0.00     0.253 C
HETATM   16  O4  UNL     1     -30.012   2.410  11.938  1.00  0.00    -0.270 OA
HETATM   17  N6  UNL     1     -26.990   0.922  11.629  1.00  0.00    -0.350 N
ATOM     18  H6  UNL     1     -27.179   1.847  12.017  1.00  0.00     0.163 HD
HETATM   19  C16 UNL     1     -25.827   0.246  12.140  1.00  0.00     0.264 C
HETATM   20  C17 UNL     1     -24.671   1.190  12.374  1.00  0.00     0.259 C
HETATM   21  N7  UNL     1     -23.629   1.000  11.390  1.00  0.00    -0.168 NA
ENDROOT
BRANCH  15  22
HETATM   22  C14 UNL     1     -30.165   0.418  13.203  1.00  0.00     0.235 C
BRANCH  22  23
HETATM   23  O5  UNL     1     -29.031   0.142  13.966  1.00  0.00    -0.384 OA
ATOM     24  H5  UNL     1     -29.254   0.131  14.889  1.00  0.00     0.210 HD
ENDBRANCH  22  23
BRANCH  22  25
HETATM   25  C15 UNL     1     -30.774  -0.913  12.823  1.00  0.00     0.271 C
BRANCH  25  26
HETATM   26  N5  UNL     1     -29.993  -2.027  13.307  1.00  0.00    -0.076 N
ATOM     27  H53 UNL     1     -30.102  -2.844  12.706  1.00  0.00     0.274 HD
ATOM     28  H52 UNL     1     -28.995  -1.862  13.178  1.00  0.00     0.274 HD
ATOM     29  H51 UNL     1     -30.207  -2.253  14.279  1.00  0.00     0.274 HD
ENDBRANCH  25  26
ENDBRANCH  22  25
ENDBRANCH  15  22
BRANCH  19  30
HETATM   30  O6  UNL     1     -25.448  -0.857  11.385  1.00  0.00    -0.373 OA
ATOM     31  H6  UNL     1     -26.164  -1.250  10.899  1.00  0.00     0.212 HD
ENDBRANCH  19  30
BRANCH  20  32
HETATM   32  O7  UNL     1     -24.204   1.000  13.668  1.00  0.00    -0.375 OA
ATOM     33  H7  UNL     1     -23.290   1.255  13.699  1.00  0.00     0.211 HD
ENDBRANCH  20  32
BRANCH  21  34
HETATM   34  C18 UNL     1     -22.438   0.421  11.964  1.00  0.00     0.342 C
BRANCH  34  35
HETATM   35  N8  UNL     1     -22.489  -1.024  11.955  1.00  0.00    -0.066 N
ATOM     36  H83 UNL     1     -21.680  -1.428  12.427  1.00  0.00     0.275 HD
ATOM     37  H82 UNL     1     -23.222  -1.374  12.571  1.00  0.00     0.275 HD
ATOM     38  H81 UNL     1     -22.590  -1.391  11.009  1.00  0.00     0.275 HD
ENDBRANCH  34  35
ENDBRANCH  21  34
BRANCH   1  39
HETATM   39  O1  UNL     1     -22.645   2.990  11.364  1.00  0.00    -0.288 OA
BRANCH  39  40
HETATM   40  C3  UNL     1     -22.597   4.273  10.877  1.00  0.00     0.197 C
BRANCH  40  41
HETATM   41  C2  UNL     1     -23.493   5.142  11.730  1.00  0.00     0.055 C
BRANCH  41  42
HETATM   42  C1  UNL     1     -24.790   5.397  11.002  1.00  0.00     0.231 C
BRANCH  42  43
HETATM   43  N1  UNL     1     -25.728   4.318  11.139  1.00  0.00    -0.079 N
ATOM     44  H13 UNL     1     -26.103   4.043  10.231  1.00  0.00     0.274 HD
ATOM     45  H12 UNL     1     -25.253   3.451  11.391  1.00  0.00     0.274 HD
ATOM     46  H11 UNL     1     -26.479   4.527  11.796  1.00  0.00     0.274 HD
ENDBRANCH  42  43
ENDBRANCH  41  42
ENDBRANCH  40  41
ENDBRANCH  39  40
ENDBRANCH   1  39
BRANCH   3  47
HETATM   47  C6  UNL     1     -23.489   3.574   7.433  1.00  0.00     0.190 C
BRANCH  47  48
HETATM   48  O2  UNL     1     -24.153   4.807   7.617  1.00  0.00    -0.399 OA
ATOM     49  H2  UNL     1     -23.500   5.471   7.432  1.00  0.00     0.209 HD
ENDBRANCH  47  48
ENDBRANCH   3  47
TORSDOF 15
ENDMDL