MODEL 4
REMARK VINA RESULT: -6.580993752      2.343      6.138
REMARK  10 active torsions:
REMARK  status: ('A' for Active; 'I' for Inactive)
REMARK    1  A    between atoms: N1_1  and  C1_4
REMARK    2  A    between atoms: N5_14  and  C4_15
REMARK    3  A    between atoms: C4_15  and  C5_16
REMARK    4  A    between atoms: C5_16  and  C6_17
REMARK    5  A    between atoms: C6_17  and  C7_23
REMARK    6  A    between atoms: N6_18  and  N7_20
REMARK       I    between atoms: C7_23  and  N8_25
REMARK       I    between atoms: N8_25  and  C8_27
REMARK       I    between atoms: C8_27  and  N9_28
REMARK       I    between atoms: C8_27  and  N10_32
REMARK    7  A    between atoms: N10_32  and  C9_35
REMARK    8  A    between atoms: C10_37  and  C11_38
REMARK    9  A    between atoms: C11_38  and  O4_39
REMARK   10  A    between atoms: C12_41  and  O5_42
ROOT
HETATM    1  C7  UNL     1     -24.176  -0.159  12.477  1.00  0.00     0.268 C
HETATM    2  O2  UNL     1     -24.662  -1.004  11.653  1.00  0.00    -0.266 OA
HETATM    3  N8  UNL     1     -25.050   0.503  13.374  1.00  0.00    -0.306 N
ATOM      4  H8  UNL     1     -24.681   1.180  14.041  1.00  0.00     0.166 HD
HETATM    5  C8  UNL     1     -26.460   0.218  13.342  1.00  0.00     0.488 C
HETATM    6  N9  UNL     1     -26.853  -0.510  14.536  1.00  0.00    -0.032 N
ATOM      7  H91 UNL     1     -27.853  -0.711  14.513  1.00  0.00     0.278 HD
ATOM      8  H92 UNL     1     -26.584  -0.018  15.388  1.00  0.00     0.278 HD
ATOM      9  H93 UNL     1     -26.297  -1.355  14.667  1.00  0.00     0.278 HD
HETATM   10  N10 UNL     1     -27.261   1.403  13.143  1.00  0.00     0.006 N
ATOM     11 1H10 UNL     1     -26.944   1.912  12.319  1.00  0.00     0.285 HD
ATOM     12 2H10 UNL     1     -27.058   2.095  13.865  1.00  0.00     0.285 HD
ENDROOT
BRANCH   1  13
HETATM   13  C6  UNL     1     -22.741   0.089  12.459  1.00  0.00     0.094 C
HETATM   14  N6  UNL     1     -22.009  -0.757  13.134  1.00  0.00    -0.306 N
ATOM     15  H6  UNL     1     -22.486  -1.510  13.630  1.00  0.00     0.186 HD
BRANCH  13  16
HETATM   16  C5  UNL     1     -22.175   1.209  11.708  1.00  0.00     0.086 C
BRANCH  16  17
HETATM   17  C4  UNL     1     -23.034   1.704  10.574  1.00  0.00     0.158 C
BRANCH  17  18
HETATM   18  N5  UNL     1     -23.691   2.955  10.900  1.00  0.00    -0.259 N
HETATM   19  N4  UNL     1     -23.201   3.939  11.612  1.00  0.00    -0.238 N
HETATM   20  N3  UNL     1     -24.103   4.929  11.711  1.00  0.00    -0.278 N
ATOM     21  H4  UNL     1     -22.270   3.952  12.030  1.00  0.00     0.208 HD
HETATM   22  C3  UNL     1     -25.213   4.563  11.037  1.00  0.00     0.164 A
ATOM     23  H3  UNL     1     -23.972   5.807  12.212  1.00  0.00     0.189 HD
HETATM   24  C2  UNL     1     -26.430   5.174  10.804  1.00  0.00     0.291 A
HETATM   25  C15 UNL     1     -24.932   3.316  10.532  1.00  0.00     0.172 A
HETATM   26  N2  UNL     1     -27.349   4.524  10.067  1.00  0.00    -0.154 N
HETATM   27  O1  UNL     1     -26.703   6.315  11.258  1.00  0.00    -0.265 OA
HETATM   28  C1  UNL     1     -27.060   3.296   9.576  1.00  0.00     0.680 A
ATOM     29  H2  UNL     1     -28.256   4.953   9.879  1.00  0.00     0.187 HD
HETATM   30  N12 UNL     1     -25.879   2.689   9.795  1.00  0.00    -0.173 N
ATOM     31  H12 UNL     1     -25.699   1.763   9.408  1.00  0.00     0.186 HD
BRANCH  28  32
HETATM   32  N1  UNL     1     -27.984   2.723   8.873  1.00  0.00    -0.234 N
ATOM     33  H12 UNL     1     -28.971   2.902   9.057  1.00  0.00     0.174 HD
ATOM     34  H11 UNL     1     -27.669   2.091   8.137  1.00  0.00     0.174 HD
ENDBRANCH  28  32
ENDBRANCH  17  18
ENDBRANCH  16  17
ENDBRANCH  13  16
BRANCH  14  35
HETATM   35  N7  UNL     1     -20.633  -0.700  13.222  1.00  0.00    -0.345 N
ATOM     36  H72 UNL     1     -20.109  -0.959  12.386  1.00  0.00     0.176 HD
ATOM     37  H71 UNL     1     -20.121  -0.419  14.058  1.00  0.00     0.176 HD
ENDBRANCH  14  35
ENDBRANCH   1  13
BRANCH  10  38
HETATM   38  C9  UNL     1     -28.663   1.162  13.069  1.00  0.00     0.419 C
HETATM   39  O3  UNL     1     -29.019   0.040  12.327  1.00  0.00    -0.342 OA
HETATM   40  C10 UNL     1     -30.360  -0.208  12.626  1.00  0.00     0.178 C
HETATM   41  C12 UNL     1     -31.320   0.147  11.557  1.00  0.00     0.167 C
HETATM   42  C13 UNL     1     -30.990   1.346  10.731  1.00  0.00     0.157 C
HETATM   43  N11 UNL     1     -30.348   2.412  11.428  1.00  0.00    -0.355 N
HETATM   44  C14 UNL     1     -29.282   2.323  12.370  1.00  0.00     0.274 C
ATOM     45  H11 UNL     1     -30.693   3.351  11.228  1.00  0.00     0.162 HD
HETATM   46  O6  UNL     1     -28.750   3.438  12.681  1.00  0.00    -0.269 OA
BRANCH  40  47
HETATM   47  C11 UNL     1     -30.461  -1.726  12.839  1.00  0.00     0.198 C
BRANCH  47  48
HETATM   48  O4  UNL     1     -29.405  -2.161  13.621  1.00  0.00    -0.398 OA
ATOM     49  H4  UNL     1     -28.834  -2.722  13.108  1.00  0.00     0.209 HD
ENDBRANCH  47  48
ENDBRANCH  40  47
BRANCH  41  50
HETATM   50  O5  UNL     1     -32.592   0.301  12.156  1.00  0.00    -0.391 OA
ATOM     51  H5  UNL     1     -33.247   0.134  11.489  1.00  0.00     0.210 HD
ENDBRANCH  41  50
ENDBRANCH  10  38
TORSDOF 10
ENDMDL