MODEL 3
REMARK VINA RESULT: -7.562222853      0.932      1.550
REMARK  7 active torsions:
REMARK  status: ('A' for Active; 'I' for Inactive)
REMARK    1  A    between atoms: N1_2  and  C3_4
REMARK    2  A    between atoms: C3_4  and  C4_5
REMARK    3  A    between atoms: C4_5  and  O1_6
REMARK    4  A    between atoms: C4_5  and  N2_8
REMARK    5  A    between atoms: C7_11  and  C8_12
REMARK       I    between atoms: C8_12  and  N3_14
REMARK    6  A    between atoms: N3_14  and  C9_16
REMARK    7  A    between atoms: C9_16  and  C10_17
ROOT
HETATM    1  N2  UNL     1      44.194  51.199  31.961  1.00  0.00    -0.363 N
HETATM    2  C5  UNL     1      43.441  50.290  32.767  1.00  0.00     0.125 C
HETATM    3  C6  UNL     1      44.486  49.617  33.681  1.00  0.00     0.034 C
HETATM    4  C7  UNL     1      44.914  50.656  34.657  1.00  0.00     0.081 C
HETATM    5  C13 UNL     1      45.397  51.900  34.019  1.00  0.00     0.034 C
HETATM    6  C14 UNL     1      45.136  52.131  32.595  1.00  0.00     0.125 C
ENDROOT
BRANCH   1   7
HETATM    7  C4  UNL     1      44.092  51.246  30.563  1.00  0.00     0.153 C
BRANCH   7   8
HETATM    8  C3  UNL     1      44.741  50.380  29.554  1.00  0.00     0.222 C
HETATM    9  C15 UNL     1      45.223  51.285  28.451  1.00  0.00     0.050 C
HETATM   10  C16 UNL     1      44.241  51.501  27.338  1.00  0.00     0.003 C
HETATM   11  C17 UNL     1      44.031  50.105  26.733  1.00  0.00     0.000 C
HETATM   12  C18 UNL     1      43.258  49.336  27.751  1.00  0.00     0.003 C
HETATM   13  C19 UNL     1      43.735  49.363  29.139  1.00  0.00     0.050 C
BRANCH   8  14
HETATM   14  N1  UNL     1      45.917  49.804  30.151  1.00  0.00     0.097 N
HETATM   15  C1  UNL     1      47.140  50.236  29.520  1.00  0.00     0.310 C
HETATM   16  C2  UNL     1      45.897  48.401  30.320  1.00  0.00     0.310 C
ENDBRANCH   8  14
ENDBRANCH   7   8
BRANCH   7  17
HETATM   17  O1  UNL     1      43.312  52.183  30.109  1.00  0.00    -0.347 OA
ATOM     18  H1  UNL     1      42.478  51.904  29.749  1.00  0.00     0.219 HD
ENDBRANCH   7  17
ENDBRANCH   1   7
BRANCH   4  19
HETATM   19  C8  UNL     1      45.939  50.068  35.594  1.00  0.00     0.221 C
HETATM   20  O2  UNL     1      46.609  49.073  35.225  1.00  0.00    -0.273 OA
HETATM   21  N3  UNL     1      46.131  50.641  36.871  1.00  0.00    -0.360 N
ATOM     22  H3  UNL     1      45.580  51.450  37.159  1.00  0.00     0.162 HD
BRANCH  21  23
HETATM   23  C9  UNL     1      47.115  50.073  37.766  1.00  0.00     0.133 C
BRANCH  23  24
HETATM   24  C10 UNL     1      46.482  49.074  38.720  1.00  0.00     0.081 A
HETATM   25  C11 UNL     1      47.332  47.956  39.234  1.00  0.00     0.091 A
HETATM   26  C12 UNL     1      46.967  49.096  40.173  1.00  0.00     0.249 A
HETATM   27  F1  UNL     1      47.972  50.024  40.460  1.00  0.00    -0.206 F
HETATM   28  F2  UNL     1      46.044  48.861  41.159  1.00  0.00    -0.206 F
ENDBRANCH  23  24
ENDBRANCH  21  23
ENDBRANCH   4  19
TORSDOF 7
ENDMDL