MODEL 3
REMARK VINA RESULT: -7.399784031      1.274      1.658
REMARK  5 active torsions:
REMARK  status: ('A' for Active; 'I' for Inactive)
REMARK    1  A    between atoms: C4_4  and  C5_5
REMARK    2  A    between atoms: C5_5  and  S1_6
REMARK    3  A    between atoms: S1_6  and  N1_9
REMARK    4  A    between atoms: C14_20  and  C15_21
REMARK    5  A    between atoms: C15_21  and  C16_22
ROOT
HETATM    1  C1  UNL     1      43.311  51.640  31.982  1.00  0.00     0.010 C
HETATM    2  C2  UNL     1      44.126  50.821  32.945  1.00  0.00    -0.017 C
HETATM    3  C3  UNL     1      45.099  51.718  33.733  1.00  0.00     0.016 C
HETATM    4  C4  UNL     1      46.071  50.676  34.264  1.00  0.00    -0.009 C
HETATM    5  C11 UNL     1      47.454  51.255  33.980  1.00  0.00     0.017 C
HETATM    6  C12 UNL     1      47.835  50.667  32.656  1.00  0.00     0.081 C
HETATM    7  C13 UNL     1      47.323  49.248  32.787  1.00  0.00     0.255 C
HETATM    8  F1  UNL     1      47.156  48.776  31.487  1.00  0.00    -0.205 F
HETATM    9  F2  UNL     1      48.265  48.580  33.474  1.00  0.00    -0.205 F
HETATM   10  C14 UNL     1      45.993  49.461  33.469  1.00  0.00     0.057 C
HETATM   11  C17 UNL     1      45.109  49.923  32.250  1.00  0.00     0.025 C
ENDROOT
BRANCH   4  12
HETATM   12  C5  UNL     1      45.859  50.573  35.749  1.00  0.00     0.168 C
BRANCH  12  13
HETATM   13  S1  UNL     1      47.281  50.746  36.738  1.00  0.00     0.212 S
HETATM   14  O1  UNL     1      48.432  49.933  36.147  1.00  0.00    -0.211 OA
HETATM   15  O2  UNL     1      47.811  52.087  36.986  1.00  0.00    -0.211 OA
BRANCH  13  16
HETATM   16  N1  UNL     1      47.016  50.018  38.308  1.00  0.00    -0.211 NA
HETATM   17  C6  UNL     1      46.481  48.701  38.230  1.00  0.00     0.107 C
HETATM   18  C7  UNL     1      46.808  47.947  39.507  1.00  0.00     0.015 C
HETATM   19  C8  UNL     1      46.732  48.848  40.721  1.00  0.00     0.002 C
HETATM   20  C9  UNL     1      47.595  50.068  40.622  1.00  0.00     0.015 C
HETATM   21  C10 UNL     1      48.106  50.202  39.202  1.00  0.00     0.107 C
ENDBRANCH  13  16
ENDBRANCH  12  13
ENDBRANCH   4  12
BRANCH  10  22
HETATM   22  C15 UNL     1      45.311  48.250  33.920  1.00  0.00     0.060 C
BRANCH  22  23
HETATM   23  C16 UNL     1      45.988  47.014  34.241  1.00  0.00     0.251 C
HETATM   24  N2  UNL     1      46.568  46.112  33.273  1.00  0.00    -0.058 NA
HETATM   25  O3  UNL     1      46.148  46.577  35.445  1.00  0.00    -0.272 OA
ENDBRANCH  22  23
ENDBRANCH  10  22
TORSDOF 5
ENDMDL