MODEL 3
REMARK VINA RESULT: -7.457572179      1.709      2.185
REMARK  5 active torsions:
REMARK  status: ('A' for Active; 'I' for Inactive)
REMARK    1  A    between atoms: C5_5  and  C6_6
REMARK       I    between atoms: C6_6  and  N1_8
REMARK    2  A    between atoms: N2_17  and  C13_18
REMARK    3  A    between atoms: C13_18  and  C14_19
REMARK       I    between atoms: C14_19  and  N3_21
REMARK    4  A    between atoms: N3_21  and  C15_23
REMARK    5  A    between atoms: C15_23  and  C16_24
ROOT
HETATM    1  C1  UNL     1      51.902  49.447  34.502  1.00  0.00     0.015 C
HETATM    2  C2  UNL     1      50.382  49.296  34.463  1.00  0.00     0.020 C
HETATM    3  C3  UNL     1      49.906  48.865  33.111  1.00  0.00     0.012 C
HETATM    4  C4  UNL     1      49.106  49.900  32.375  1.00  0.00     0.036 C
HETATM    5  C5  UNL     1      47.933  50.429  33.217  1.00  0.00     0.180 C
HETATM    6  N2  UNL     1      48.479  50.887  34.448  1.00  0.00    -0.351 N
HETATM    7  C20 UNL     1      49.803  50.632  34.779  1.00  0.00     0.069 C
ENDROOT
BRANCH   5   8
HETATM    8  C6  UNL     1      47.336  51.552  32.478  1.00  0.00     0.243 C
HETATM    9  O1  UNL     1      48.083  52.590  32.374  1.00  0.00    -0.271 OA
HETATM   10  N1  UNL     1      46.053  51.630  31.875  1.00  0.00    -0.340 N
HETATM   11  C7  UNL     1      45.743  52.864  31.180  1.00  0.00     0.127 C
HETATM   12  C11 UNL     1      45.054  50.608  31.917  1.00  0.00     0.155 C
HETATM   13  C8  UNL     1      45.116  52.650  29.838  1.00  0.00     0.026 C
HETATM   14  C9  UNL     1      44.115  51.525  29.845  1.00  0.00     0.083 C
HETATM   15  C10 UNL     1      43.791  51.082  31.246  1.00  0.00     0.263 C
HETATM   16  F1  UNL     1      42.986  49.937  31.098  1.00  0.00    -0.204 F
HETATM   17  F2  UNL     1      43.069  51.966  31.979  1.00  0.00    -0.204 F
HETATM   18  C12 UNL     1      44.637  50.215  33.320  1.00  0.00     0.038 C
ENDBRANCH   5   8
BRANCH   6  19
HETATM   19  C13 UNL     1      47.545  50.995  35.480  1.00  0.00     0.165 C
BRANCH  19  20
HETATM   20  C14 UNL     1      47.244  49.818  36.288  1.00  0.00     0.256 C
HETATM   21  O2  UNL     1      46.635  48.847  35.805  1.00  0.00    -0.267 OA
HETATM   22  N3  UNL     1      47.645  49.761  37.647  1.00  0.00    -0.356 N
ATOM     23  H3  UNL     1      48.147  50.552  38.051  1.00  0.00     0.162 HD
BRANCH  22  24
HETATM   24  C15 UNL     1      47.359  48.612  38.472  1.00  0.00     0.132 C
BRANCH  24  25
HETATM   25  C16 UNL     1      47.360  48.937  39.937  1.00  0.00    -0.028 A
HETATM   26  C17 UNL     1      47.884  50.316  40.308  1.00  0.00     0.016 C
HETATM   27  C18 UNL     1      47.356  47.929  40.997  1.00  0.00     0.011 A
HETATM   28  C19 UNL     1      46.058  48.510  40.631  1.00  0.00     0.011 A
ENDBRANCH  24  25
ENDBRANCH  22  24
ENDBRANCH  19  20
ENDBRANCH   6  19
TORSDOF 5
ENDMDL