MODEL 5
REMARK VINA RESULT: -6.445470690      3.014      4.713
REMARK  5 active torsions:
REMARK  status: ('A' for Active; 'I' for Inactive)
REMARK       I    between atoms: C1_2  and  N1_3
REMARK       I    between atoms: C1_2  and  N2_11
REMARK    1  A    between atoms: N1_3  and  C2_5
REMARK    2  A    between atoms: N2_11  and  C6_12
REMARK    3  A    between atoms: N2_11  and  C12_20
REMARK    4  A    between atoms: C6_12  and  C7_13
REMARK    5  A    between atoms: C7_13  and  N3_14
ROOT
HETATM    1  O1  UNL     1      51.787  52.381  34.840  1.00  0.00    -0.247 OA
HETATM    2  C1  UNL     1      51.995  51.282  35.454  1.00  0.00     0.319 C
HETATM    3  N1  UNL     1      50.954  50.635  36.148  1.00  0.00    -0.335 N
ATOM      4  H1  UNL     1      51.113  49.756  36.642  1.00  0.00     0.164 HD
HETATM    5  N2  UNL     1      53.292  50.735  35.418  1.00  0.00    -0.328 N
ENDROOT
BRANCH   5   6
HETATM    6  C6  UNL     1      53.607  49.505  36.063  1.00  0.00     0.158 C
BRANCH   6   7
HETATM    7  C7  UNL     1      53.375  48.308  35.189  1.00  0.00     0.292 C
BRANCH   7   8
HETATM    8  N3  UNL     1      54.564  47.643  34.798  1.00  0.00     0.094 N
HETATM    9  C8  UNL     1      55.061  46.679  35.748  1.00  0.00     0.298 C
HETATM   10  C9  UNL     1      56.274  46.013  35.084  1.00  0.00     0.198 C
HETATM   11  O2  UNL     1      55.869  45.238  34.016  1.00  0.00    -0.388 OA
HETATM   12  C10 UNL     1      54.648  45.645  33.486  1.00  0.00     0.198 C
HETATM   13  C11 UNL     1      54.605  47.166  33.457  1.00  0.00     0.298 C
ENDBRANCH   7   8
ENDBRANCH   6   7
ENDBRANCH   5   6
BRANCH   5  14
HETATM   14  C12 UNL     1      54.313  51.505  34.678  1.00  0.00     0.089 C
HETATM   15  C13 UNL     1      54.378  51.009  33.248  1.00  0.00     0.025 C
HETATM   16  C14 UNL     1      54.591  52.139  32.268  1.00  0.00     0.002 C
HETATM   17  C15 UNL     1      56.019  52.614  32.223  1.00  0.00     0.000 C
HETATM   18  C16 UNL     1      56.329  53.678  33.218  1.00  0.00     0.000 C
HETATM   19  C17 UNL     1      57.159  53.112  34.377  1.00  0.00     0.000 C
HETATM   20  C18 UNL     1      56.287  52.763  35.564  1.00  0.00     0.002 C
HETATM   21  C19 UNL     1      55.629  51.412  35.399  1.00  0.00     0.025 C
ENDBRANCH   5  14
BRANCH   3  22
HETATM   22  C2  UNL     1      49.632  51.272  36.133  1.00  0.00     0.125 C
HETATM   23  C3  UNL     1      48.563  50.289  35.638  1.00  0.00     0.068 C
HETATM   24  C4  UNL     1      47.790  50.545  36.909  1.00  0.00     0.208 C
HETATM   25  F1  UNL     1      47.478  49.355  37.537  1.00  0.00    -0.246 F
HETATM   26  C5  UNL     1      49.003  51.268  37.487  1.00  0.00     0.226 C
HETATM   27  F2  UNL     1      48.716  52.543  37.920  1.00  0.00    -0.244 F
ENDBRANCH   3  22
TORSDOF 5
ENDMDL