MODEL 4
REMARK VINA RESULT: -7.041010421      5.836      9.248
REMARK  5 active torsions:
REMARK  status: ('A' for Active; 'I' for Inactive)
REMARK    1  A    between atoms: C3_3  and  C4_4
REMARK       I    between atoms: C4_4  and  N1_6
REMARK    2  A    between atoms: N1_6  and  C5_8
REMARK    3  A    between atoms: N2_10  and  C7_11
REMARK    4  A    between atoms: N3_22  and  C16_23
REMARK    5  A    between atoms: C16_23  and  C17_24
ROOT
HETATM    1  C1  UNL     1      53.096  51.540  33.168  1.00  0.00     0.013 C
HETATM    2  C2  UNL     1      52.692  50.555  33.759  1.00  0.00    -0.097 C
HETATM    3  C3  UNL     1      52.185  49.354  34.462  1.00  0.00     0.107 C
HETATM    4  C13 UNL     1      52.240  48.147  33.596  1.00  0.00     0.034 C
HETATM    5  C14 UNL     1      53.469  47.961  32.780  1.00  0.00     0.022 C
HETATM    6  C15 UNL     1      54.471  47.243  33.707  1.00  0.00     0.127 C
HETATM    7  N3  UNL     1      54.871  48.223  34.652  1.00  0.00    -0.373 N
HETATM    8  C20 UNL     1      54.131  48.402  35.802  1.00  0.00     0.065 C
HETATM    9  C21 UNL     1      52.906  49.230  35.786  1.00  0.00     0.077 C
ENDROOT
BRANCH   3  10
HETATM   10  C4  UNL     1      50.751  49.582  34.792  1.00  0.00     0.239 C
HETATM   11  O1  UNL     1      50.376  49.314  35.964  1.00  0.00    -0.272 OA
HETATM   12  N1  UNL     1      49.794  50.073  33.876  1.00  0.00    -0.352 N
ATOM     13  H1  UNL     1      50.047  50.304  32.916  1.00  0.00     0.163 HD
BRANCH  12  14
HETATM   14  C5  UNL     1      48.445  50.235  34.354  1.00  0.00     0.141 C
HETATM   15  C6  UNL     1      47.426  49.264  33.822  1.00  0.00     0.299 C
HETATM   16  N2  UNL     1      46.489  50.399  33.812  1.00  0.00     0.097 N
HETATM   17  C12 UNL     1      47.664  51.211  33.456  1.00  0.00     0.299 C
BRANCH  16  18
HETATM   18  C7  UNL     1      45.504  50.296  32.780  1.00  0.00     0.229 C
HETATM   19  C8  UNL     1      45.184  51.687  32.232  1.00  0.00     0.042 C
HETATM   20  C9  UNL     1      43.690  51.783  32.140  1.00  0.00     0.081 C
HETATM   21  C10 UNL     1      43.214  50.335  32.311  1.00  0.00     0.245 C
HETATM   22  F1  UNL     1      43.401  49.728  31.091  1.00  0.00    -0.206 F
HETATM   23  F2  UNL     1      41.922  50.373  32.740  1.00  0.00    -0.206 F
HETATM   24  C11 UNL     1      44.192  49.809  33.341  1.00  0.00     0.114 C
ENDBRANCH  16  18
ENDBRANCH  12  14
ENDBRANCH   3  10
BRANCH   7  25
HETATM   25  C16 UNL     1      55.918  49.083  34.277  1.00  0.00     0.067 C
BRANCH  25  26
HETATM   26  C17 UNL     1      56.379  50.000  35.394  1.00  0.00     0.024 A
HETATM   27  C18 UNL     1      57.523  50.936  34.986  1.00  0.00     0.010 A
HETATM   28  C19 UNL     1      56.139  51.483  35.296  1.00  0.00     0.010 A
ENDBRANCH  25  26
ENDBRANCH   7  25
TORSDOF 5
ENDMDL