MODEL 4
REMARK VINA RESULT: -6.923572041      5.071      6.799
REMARK  6 active torsions:
REMARK  status: ('A' for Active; 'I' for Inactive)
REMARK    1  A    between atoms: C2_2  and  C3_3
REMARK    2  A    between atoms: C11_13  and  C13_15
REMARK       I    between atoms: C13_15  and  N2_17
REMARK    3  A    between atoms: N2_17  and  S1_19
REMARK    4  A    between atoms: S1_19  and  N3_22
REMARK    5  A    between atoms: N3_22  and  C15_24
REMARK    6  A    between atoms: C15_24  and  C16_25
ROOT
HETATM    1  C3  UNL     1      55.299  50.135  34.483  1.00  0.00     0.009 C
HETATM    2  N1  UNL     1      55.319  50.678  35.650  1.00  0.00    -0.388 N
ATOM      3  H1  UNL     1      56.049  50.510  36.343  1.00  0.00     0.159 HD
HETATM    4  C4  UNL     1      54.196  51.545  35.865  1.00  0.00     0.083 C
HETATM    5  C5  UNL     1      54.728  52.981  35.693  1.00  0.00     0.032 C
HETATM    6  C6  UNL     1      53.280  51.297  34.716  1.00  0.00     0.035 C
HETATM    7  C7  UNL     1      54.124  50.564  33.732  1.00  0.00     0.043 C
HETATM    8  C8  UNL     1      53.270  49.445  33.191  1.00  0.00     0.016 C
HETATM    9  C9  UNL     1      51.866  49.710  33.690  1.00  0.00    -0.000 C
HETATM   10  C10 UNL     1      51.150  50.501  32.666  1.00  0.00     0.011 C
HETATM   11  C11 UNL     1      52.129  50.377  34.988  1.00  0.00     0.048 C
HETATM   12  C12 UNL     1      52.586  49.240  35.941  1.00  0.00     0.026 C
ENDROOT
BRANCH  11  13
HETATM   13  C13 UNL     1      51.000  51.005  35.654  1.00  0.00     0.241 C
HETATM   14  O1  UNL     1      50.930  52.289  35.546  1.00  0.00    -0.272 OA
HETATM   15  N2  UNL     1      49.976  50.424  36.402  1.00  0.00    -0.237 N
ATOM     16  H2  UNL     1      49.990  49.410  36.509  1.00  0.00     0.183 HD
BRANCH  15  17
HETATM   17  S1  UNL     1      48.686  51.288  37.162  1.00  0.00     0.323 S
HETATM   18  O2  UNL     1      48.522  52.583  36.369  1.00  0.00    -0.182 OA
HETATM   19  O3  UNL     1      49.184  51.715  38.539  1.00  0.00    -0.182 OA
BRANCH  17  20
HETATM   20  N3  UNL     1      47.230  50.429  37.235  1.00  0.00    -0.293 N
HETATM   21  C14 UNL     1      46.249  50.698  36.257  1.00  0.00     0.164 C
BRANCH  20  22
HETATM   22  C15 UNL     1      47.254  49.153  37.838  1.00  0.00     0.207 C
BRANCH  22  23
HETATM   23  C16 UNL     1      46.579  49.056  39.190  1.00  0.00     0.371 C
HETATM   24  F1  UNL     1      46.453  47.764  39.635  1.00  0.00    -0.213 F
HETATM   25  F2  UNL     1      47.320  49.769  40.120  1.00  0.00    -0.213 F
ENDBRANCH  22  23
ENDBRANCH  20  22
ENDBRANCH  17  20
ENDBRANCH  15  17
ENDBRANCH  11  13
BRANCH   1  26
HETATM   26  C2  UNL     1      56.375  49.205  34.065  1.00  0.00     0.015 C
HETATM   27  C1  UNL     1      57.213  48.672  34.916  1.00  0.00     0.013 C
ENDBRANCH   1  26
TORSDOF 6
ENDMDL