MODEL 5
REMARK VINA RESULT: -7.168977049      4.067      5.265
REMARK  6 active torsions:
REMARK  status: ('A' for Active; 'I' for Inactive)
REMARK    1  A    between atoms: C2_2  and  C3_4
REMARK    2  A    between atoms: C3_4  and  N1_5
REMARK       I    between atoms: N1_5  and  C4_7
REMARK    3  A    between atoms: C4_7  and  C5_9
REMARK    4  A    between atoms: N2_13  and  C9_14
REMARK       I    between atoms: N3_17  and  C12_18
REMARK    5  A    between atoms: C12_18  and  C13_20
REMARK    6  A    between atoms: C13_20  and  C14_21
ROOT
HETATM    1  C5  UNL     1      45.992  50.456  36.075  1.00  0.00     0.116 C
HETATM    2  C6  UNL     1      46.065  51.519  34.999  1.00  0.00     0.024 C
HETATM    3  C7  UNL     1      44.883  51.289  34.084  1.00  0.00     0.046 C
HETATM    4  C8  UNL     1      44.591  49.832  33.849  1.00  0.00     0.063 C
HETATM    5  N2  UNL     1      45.597  48.937  34.206  1.00  0.00    -0.365 N
HETATM    6  C20 UNL     1      46.282  49.131  35.413  1.00  0.00     0.077 C
ENDROOT
BRANCH   5   7
HETATM    7  C9  UNL     1      46.099  48.014  33.290  1.00  0.00     0.125 C
HETATM    8  C10 UNL     1      47.424  48.560  32.741  1.00  0.00     0.048 C
HETATM    9  C11 UNL     1      47.902  47.774  31.568  1.00  0.00     0.128 C
HETATM   10  N3  UNL     1      47.908  46.357  31.851  1.00  0.00    -0.349 N
HETATM   11  C12 UNL     1      48.898  45.564  31.223  1.00  0.00     0.220 C
HETATM   12  C18 UNL     1      46.962  45.763  32.722  1.00  0.00     0.165 C
HETATM   13  O2  UNL     1      48.916  44.332  31.461  1.00  0.00    -0.273 OA
HETATM   14  C19 UNL     1      46.390  46.646  33.794  1.00  0.00     0.211 C
HETATM   15  F2  UNL     1      45.174  46.064  34.178  1.00  0.00    -0.245 F
BRANCH  11  16
HETATM   16  C13 UNL     1      49.906  46.140  30.296  1.00  0.00     0.111 C
BRANCH  16  17
HETATM   17  C14 UNL     1      51.286  46.140  30.874  1.00  0.00    -0.043 C
HETATM   18  C15 UNL     1      52.029  47.307  30.209  1.00  0.00     0.015 C
HETATM   19  C16 UNL     1      51.299  46.436  32.360  1.00  0.00     0.015 C
HETATM   20  C17 UNL     1      52.064  44.895  30.568  1.00  0.00     0.015 C
ENDBRANCH  16  17
ENDBRANCH  11  16
ENDBRANCH   5   7
BRANCH   1  21
HETATM   21  C4  UNL     1      46.930  50.727  37.196  1.00  0.00     0.226 C
HETATM   22  N1  UNL     1      46.920  49.906  38.321  1.00  0.00    -0.358 N
ATOM     23  H1  UNL     1      46.252  49.135  38.301  1.00  0.00     0.162 HD
HETATM   24  O1  UNL     1      47.697  51.695  37.078  1.00  0.00    -0.273 OA
BRANCH  22  25
HETATM   25  C3  UNL     1      47.723  50.001  39.498  1.00  0.00     0.159 C
BRANCH  25  26
HETATM   26  C2  UNL     1      47.275  49.229  40.682  1.00  0.00     0.183 C
HETATM   27  C1  UNL     1      46.255  48.171  40.234  1.00  0.00     0.046 C
HETATM   28  F1  UNL     1      48.276  48.536  41.301  1.00  0.00    -0.248 F
ENDBRANCH  25  26
ENDBRANCH  22  25
ENDBRANCH   1  21
TORSDOF 6
ENDMDL