MODEL 2
REMARK VINA RESULT: -6.453783368      1.804      2.300
REMARK  6 active torsions:
REMARK  status: ('A' for Active; 'I' for Inactive)
REMARK    1  A    between atoms: C2_2  and  C3_4
REMARK       I    between atoms: N1_7  and  C6_8
REMARK    2  A    between atoms: C6_8  and  C7_10
REMARK    3  A    between atoms: C7_10  and  O2_11
REMARK    4  A    between atoms: O2_11  and  C8_12
REMARK    5  A    between atoms: C11_15  and  N2_16
REMARK    6  A    between atoms: C15_23  and  C16_24
ROOT
HETATM    1  C3  UNL     1      55.662  49.874  35.271  1.00  0.00     0.034 C
HETATM    2  C4  UNL     1      54.711  48.770  34.844  1.00  0.00     0.030 C
HETATM    3  C5  UNL     1      53.389  49.066  35.527  1.00  0.00     0.126 C
HETATM    4  N1  UNL     1      53.019  50.449  35.503  1.00  0.00    -0.350 N
HETATM    5  C6  UNL     1      51.655  50.788  35.328  1.00  0.00     0.243 C
HETATM    6  O1  UNL     1      51.301  51.982  35.303  1.00  0.00    -0.271 OA
HETATM    7  C14 UNL     1      53.974  51.541  35.650  1.00  0.00     0.133 C
HETATM    8  C15 UNL     1      55.143  51.147  34.708  1.00  0.00     0.041 C
ENDROOT
BRANCH   5   9
HETATM    9  C7  UNL     1      50.624  49.715  35.171  1.00  0.00     0.271 C
BRANCH   9  10
HETATM   10  O2  UNL     1      49.902  49.587  36.358  1.00  0.00    -0.377 OA
BRANCH  10  11
HETATM   11  C8  UNL     1      48.670  50.177  36.300  1.00  0.00     0.122 C
HETATM   12  C9  UNL     1      47.623  49.504  37.133  1.00  0.00     0.034 C
HETATM   13  C10 UNL     1      46.354  50.274  37.144  1.00  0.00     0.035 C
HETATM   14  C11 UNL     1      45.901  50.789  35.829  1.00  0.00     0.183 C
HETATM   15  C12 UNL     1      46.990  51.260  34.924  1.00  0.00     0.035 C
HETATM   16  C13 UNL     1      48.126  50.242  34.870  1.00  0.00     0.034 C
BRANCH  14  17
HETATM   17  N2  UNL     1      45.029  51.947  36.089  1.00  0.00    -0.075 N
ATOM     18  H23 UNL     1      44.181  51.701  36.600  1.00  0.00     0.274 HD
ATOM     19  H22 UNL     1      45.416  52.591  36.777  1.00  0.00     0.274 HD
ATOM     20  H21 UNL     1      44.837  52.390  35.190  1.00  0.00     0.274 HD
ENDBRANCH  14  17
ENDBRANCH  10  11
ENDBRANCH   9  10
ENDBRANCH   5   9
BRANCH   8  21
HETATM   21  C16 UNL     1      54.521  51.078  33.352  1.00  0.00     0.229 C
HETATM   22  F1  UNL     1      55.354  50.878  32.306  1.00  0.00    -0.255 F
ENDBRANCH   8  21
BRANCH   1  23
HETATM   23  C2  UNL     1      57.073  49.576  35.104  1.00  0.00    -0.016 C
HETATM   24  C1  UNL     1      57.929  50.566  34.844  1.00  0.00     0.027 C
HETATM   25 BR1  UNL     1      57.872  47.845  35.236  1.00  0.00    -0.056 Br
ENDBRANCH   1  23
TORSDOF 6
ENDMDL