MODEL 3
REMARK VINA RESULT: -7.024891070      0.988      1.373
REMARK  6 active torsions:
REMARK  status: ('A' for Active; 'I' for Inactive)
REMARK    1  A    between atoms: C2_2  and  C5_5
REMARK       I    between atoms: N1_9  and  C9_10
REMARK    2  A    between atoms: C9_10  and  C10_12
REMARK    3  A    between atoms: C10_12  and  C11_13
REMARK    4  A    between atoms: C11_13  and  C12_15
REMARK    5  A    between atoms: C12_15  and  C13_17
REMARK    6  A    between atoms: C13_17  and  C14_19
ROOT
HETATM    1  C5  UNL     1      53.424  49.040  35.236  1.00  0.00     0.011 C
HETATM    2  C6  UNL     1      53.706  50.211  36.104  1.00  0.00     0.009 C
HETATM    3  C7  UNL     1      53.446  51.540  35.404  1.00  0.00     0.020 C
HETATM    4  C8  UNL     1      52.027  51.668  34.932  1.00  0.00     0.126 C
HETATM    5  N1  UNL     1      51.607  50.355  34.440  1.00  0.00    -0.351 N
HETATM    6  C9  UNL     1      50.248  49.977  34.419  1.00  0.00     0.226 C
HETATM    7  O1  UNL     1      49.975  48.836  33.982  1.00  0.00    -0.273 OA
HETATM    8  C15 UNL     1      52.670  49.483  33.982  1.00  0.00     0.131 C
ENDROOT
BRANCH   6   9
HETATM    9  C10 UNL     1      49.151  50.847  34.879  1.00  0.00     0.182 C
BRANCH   9  10
HETATM   10  C11 UNL     1      48.623  50.478  36.209  1.00  0.00     0.153 C
HETATM   11  O2  UNL     1      49.208  50.778  37.222  1.00  0.00    -0.296 OA
BRANCH  10  12
HETATM   12  C12 UNL     1      47.347  49.718  36.369  1.00  0.00     0.172 C
HETATM   13 BR1  UNL     1      45.989  50.612  35.313  1.00  0.00    -0.080 Br
BRANCH  12  14
HETATM   14  C13 UNL     1      46.895  49.718  37.808  1.00  0.00     0.292 C
HETATM   15  F1  UNL     1      45.544  49.956  37.934  1.00  0.00    -0.236 F
BRANCH  14  16
HETATM   16  C14 UNL     1      47.207  48.414  38.430  1.00  0.00     0.210 C
HETATM   17  O3  UNL     1      46.934  47.314  37.875  1.00  0.00    -0.646 OA
HETATM   18  O4  UNL     1      47.818  48.384  39.661  1.00  0.00    -0.646 OA
ENDBRANCH  14  16
ENDBRANCH  12  14
ENDBRANCH  10  12
ENDBRANCH   9  10
ENDBRANCH   6   9
BRANCH   1  19
HETATM   19  C2  UNL     1      54.636  48.223  34.881  1.00  0.00    -0.046 C
HETATM   20  C1  UNL     1      54.511  47.728  33.455  1.00  0.00     0.015 C
HETATM   21  C3  UNL     1      54.678  46.999  35.769  1.00  0.00     0.015 C
HETATM   22  C4  UNL     1      55.926  48.961  35.011  1.00  0.00     0.015 C
ENDBRANCH   1  19
TORSDOF 6
ENDMDL