MODEL 3
REMARK VINA RESULT: -7.490426764      3.032      7.140
REMARK  5 active torsions:
REMARK  status: ('A' for Active; 'I' for Inactive)
REMARK    1  A    between atoms: C2_2  and  C3_3
REMARK    2  A    between atoms: C2_2  and  C10_19
REMARK       I    between atoms: C3_3  and  N1_5
REMARK    3  A    between atoms: C5_7  and  N2_8
REMARK    4  A    between atoms: N2_8  and  S1_10
REMARK    5  A    between atoms: C10_19  and  C12_21
ROOT
HETATM    1  C3  UNL     1      44.657  51.348  33.434  1.00  0.00     0.224 C
HETATM    2  O1  UNL     1      45.028  52.457  33.995  1.00  0.00    -0.273 OA
HETATM    3  N1  UNL     1      45.243  50.198  33.989  1.00  0.00    -0.344 N
HETATM    4  C4  UNL     1      46.197  50.314  35.096  1.00  0.00     0.152 C
HETATM    5  C5  UNL     1      47.540  49.907  34.612  1.00  0.00     0.116 C
HETATM    6  C7  UNL     1      47.473  48.774  33.645  1.00  0.00     0.108 C
HETATM    7  C8  UNL     1      46.224  47.978  33.850  1.00  0.00     0.261 C
HETATM    8  F1  UNL     1      46.238  46.991  32.852  1.00  0.00    -0.204 F
HETATM    9  F2  UNL     1      46.162  47.409  35.081  1.00  0.00    -0.204 F
HETATM   10  C9  UNL     1      44.987  48.826  33.601  1.00  0.00     0.204 C
ENDROOT
BRANCH   1  11
HETATM   11  C2  UNL     1      43.705  51.480  32.330  1.00  0.00     0.078 C
HETATM   12  C1  UNL     1      42.475  50.638  32.416  1.00  0.00     0.020 C
BRANCH  11  13
HETATM   13  C10 UNL     1      44.372  51.426  31.010  1.00  0.00    -0.002 C
HETATM   14  C11 UNL     1      45.854  51.629  30.997  1.00  0.00     0.011 C
BRANCH  13  15
HETATM   15  C12 UNL     1      44.066  50.174  30.205  1.00  0.00    -0.010 C
HETATM   16  C13 UNL     1      45.376  49.434  30.057  1.00  0.00     0.005 C
HETATM   17  C14 UNL     1      45.323  48.225  29.189  1.00  0.00     0.000 C
HETATM   18  C15 UNL     1      44.576  48.410  27.917  1.00  0.00     0.000 C
HETATM   19  C16 UNL     1      43.276  49.164  28.118  1.00  0.00     0.000 C
HETATM   20  C17 UNL     1      43.521  50.472  28.856  1.00  0.00     0.005 C
ENDBRANCH  13  15
ENDBRANCH  11  13
ENDBRANCH   1  11
BRANCH   5  21
HETATM   21  N2  UNL     1      48.481  49.662  35.691  1.00  0.00    -0.313 N
ATOM     22  H2  UNL     1      48.514  48.793  36.225  1.00  0.00     0.172 HD
BRANCH  21  23
HETATM   23  S1  UNL     1      49.536  50.999  35.973  1.00  0.00     0.223 S
HETATM   24  C6  UNL     1      48.701  52.049  37.171  1.00  0.00     0.185 C
HETATM   25  O2  UNL     1      50.823  50.576  36.568  1.00  0.00    -0.206 OA
HETATM   26  O3  UNL     1      49.663  51.790  34.722  1.00  0.00    -0.206 OA
ENDBRANCH  21  23
ENDBRANCH   5  21
TORSDOF 5
ENDMDL