MODEL 3
REMARK VINA RESULT: -5.770947115      1.582      3.274
REMARK  3 active torsions:
REMARK  status: ('A' for Active; 'I' for Inactive)
REMARK    1  A    between atoms: O1_1  and  N1_3
REMARK    2  A    between atoms: C7_12  and  N3_13
REMARK    3  A    between atoms: N3_13  and  O2_14
ROOT
HETATM    1  N1  UNL     1       6.617   9.603  47.097  1.00  0.00    -0.273 N
ATOM      2  H1  UNL     1       6.098   9.744  47.964  1.00  0.00     0.193 HD
HETATM    3  C1  UNL     1       6.371  10.382  46.135  1.00  0.00     0.066 C
HETATM    4  C2  UNL     1       6.992  10.363  44.806  1.00  0.00     0.065 C
HETATM    5  C3  UNL     1       6.040   9.706  43.853  1.00  0.00     0.014 C
HETATM    6  C4  UNL     1       4.804  10.500  43.571  1.00  0.00     0.031 C
HETATM    7  C5  UNL     1       4.917  11.958  43.829  1.00  0.00     0.275 C
HETATM    8  N2  UNL     1       5.773  12.301  44.951  1.00  0.00     0.116 N
HETATM    9  C6  UNL     1       7.105  11.868  44.542  1.00  0.00     0.285 C
HETATM   10  C7  UNL     1       5.416  11.492  46.097  1.00  0.00     0.389 C
ENDROOT
BRANCH   1  11
HETATM   11  O1  UNL     1       7.528   8.580  47.063  1.00  0.00    -0.290 OA
ATOM     12  H1  UNL     1       8.341   8.595  46.570  1.00  0.00     0.244 HD
ENDBRANCH   1  11
BRANCH  10  13
HETATM   13  N3  UNL     1       5.360  12.265  47.303  1.00  0.00    -0.061 NA
BRANCH  13  14
HETATM   14  O2  UNL     1       4.986  11.588  48.378  1.00  0.00    -0.294 OA
ATOM     15  H2  UNL     1       4.102  11.243  48.343  1.00  0.00     0.238 HD
ENDBRANCH  13  14
ENDBRANCH  10  13
TORSDOF 3
ENDMDL