MODEL 3
REMARK VINA RESULT: -5.717919561      2.317      2.711
REMARK  0 active torsions:
REMARK  status: ('A' for Active; 'I' for Inactive)
ROOT
HETATM    1  C1  UNL     1       6.690   4.943  39.873  1.00  0.00     0.048 C
HETATM    2  C2  UNL     1       7.087   5.438  41.027  1.00  0.00     0.076 C
HETATM    3  O1  UNL     1       7.029   4.793  42.278  1.00  0.00    -0.317 OA
HETATM    4  C3  UNL     1       7.706   5.614  43.137  1.00  0.00     0.207 C
HETATM    5  C4  UNL     1       7.186   6.998  42.706  1.00  0.00     0.112 C
HETATM    6  C5  UNL     1       7.687   6.794  41.262  1.00  0.00     0.176 C
HETATM    7  C6  UNL     1       7.302   7.831  40.328  1.00  0.00     0.054 C
HETATM    8  N1  UNL     1       9.117   6.689  41.564  1.00  0.00    -0.035 N
ATOM      9  H11 UNL     1       9.577   7.583  41.735  1.00  0.00     0.280 HD
ATOM     10  H12 UNL     1       9.695   6.419  40.769  1.00  0.00     0.280 HD
HETATM   11  C7  UNL     1       9.167   5.768  42.680  1.00  0.00     0.365 C
HETATM   12  N2  UNL     1       9.721   6.322  43.884  1.00  0.00    -0.034 NA
HETATM   13  O2  UNL     1       8.850   6.185  44.873  1.00  0.00    -0.165 OA
HETATM   14  N3  UNL     1       7.820   5.397  44.478  1.00  0.00    -0.242 N
ATOM     15  H3  UNL     1       7.254   4.778  45.059  1.00  0.00     0.193 HD
ENDROOT
TORSDOF 0
ENDMDL