MODEL 2
REMARK VINA RESULT: -5.726029390      1.689      2.075
REMARK  3 active torsions:
REMARK  status: ('A' for Active; 'I' for Inactive)
REMARK    1  A    between atoms: N1_4  and  O1_6
REMARK    2  A    between atoms: C6_10  and  O2_11
REMARK    3  A    between atoms: C7_13  and  O3_14
ROOT
HETATM    1  C1  UNL     1       3.881  12.622  47.126  1.00  0.00     0.019 C
HETATM    2  C2  UNL     1       4.046  12.192  45.702  1.00  0.00     0.060 C
HETATM    3  C3  UNL     1       3.932  13.412  44.845  1.00  0.00     0.016 C
HETATM    4  N1  UNL     1       3.425  14.497  45.310  1.00  0.00    -0.277 N
ATOM      5  H1  UNL     1       3.098  14.526  46.275  1.00  0.00     0.193 HD
HETATM    6  C4  UNL     1       4.406  13.396  43.418  1.00  0.00     0.057 C
HETATM    7  C5  UNL     1       5.516  12.393  43.235  1.00  0.00     0.040 C
HETATM    8  C6  UNL     1       6.236  12.307  44.585  1.00  0.00     0.148 C
HETATM    9  C7  UNL     1       5.345  11.459  45.474  1.00  0.00     0.156 C
ENDROOT
BRANCH   4  10
HETATM   10  O1  UNL     1       3.319  15.617  44.526  1.00  0.00    -0.290 OA
ATOM     11  H1  UNL     1       3.031  16.444  44.893  1.00  0.00     0.244 HD
ENDBRANCH   4  10
BRANCH   9  12
HETATM   12  O3  UNL     1       6.004  11.170  46.668  1.00  0.00    -0.392 OA
ATOM     13  H3  UNL     1       6.800  10.673  46.527  1.00  0.00     0.210 HD
ENDBRANCH   9  12
BRANCH   8  14
HETATM   14  O2  UNL     1       7.492  11.716  44.441  1.00  0.00    -0.393 OA
ATOM     15  H2  UNL     1       8.070  12.271  43.931  1.00  0.00     0.210 HD
ENDBRANCH   8  14
TORSDOF 3
ENDMDL