MODEL 2
REMARK VINA RESULT: -4.987837902      3.321      3.995
REMARK  2 active torsions:
REMARK  status: ('A' for Active; 'I' for Inactive)
REMARK    1  A    between atoms: C2_2  and  O1_3
REMARK    2  A    between atoms: N1_10  and  O3_11
ROOT
HETATM    1  C1  UNL     1      11.644   4.846  40.541  1.00  0.00     0.074 C
HETATM    2  C2  UNL     1      10.310   5.312  41.016  1.00  0.00     0.165 C
HETATM    3  C3  UNL     1      10.022   6.633  40.315  1.00  0.00     0.137 C
HETATM    4  S1  UNL     1       8.423   7.301  40.832  1.00  0.00    -0.155 SA
HETATM    5  C4  UNL     1       8.133   6.762  42.540  1.00  0.00     0.179 C
HETATM    6  C5  UNL     1       9.394   6.272  43.142  1.00  0.00     0.255 C
HETATM    7  O2  UNL     1       9.677   6.609  44.318  1.00  0.00    -0.270 OA
HETATM    8  N1  UNL     1      10.301   5.439  42.449  1.00  0.00    -0.191 N
ENDROOT
BRANCH   2   9
HETATM    9  O1  UNL     1       9.354   4.359  40.637  1.00  0.00    -0.368 OA
ATOM     10  H1  UNL     1       8.501   4.665  40.925  1.00  0.00     0.212 HD
ENDBRANCH   2   9
BRANCH   8  11
HETATM   11  O3  UNL     1      11.193   4.735  43.175  1.00  0.00    -0.282 OA
ATOM     12  H3  UNL     1      10.954   3.870  43.487  1.00  0.00     0.245 HD
ENDBRANCH   8  11
TORSDOF 2
ENDMDL