MODEL 5
REMARK VINA RESULT: -4.978644004      1.895      4.842
REMARK  5 active torsions:
REMARK  status: ('A' for Active; 'I' for Inactive)
REMARK    1  A    between atoms: N1_2  and  O1_3
REMARK       I    between atoms: N1_2  and  C2_5
REMARK    2  A    between atoms: C2_5  and  S1_7
REMARK    3  A    between atoms: S1_7  and  C3_8
REMARK    4  A    between atoms: C3_8  and  O3_9
REMARK    5  A    between atoms: N2_11  and  O4_13
ROOT
HETATM    1  S1  UNL     1       7.401   8.267  44.690  1.00  0.00     0.018 SA
ENDROOT
BRANCH   1   2
HETATM    2  C2  UNL     1       8.437   7.070  43.917  1.00  0.00     0.313 C
HETATM    3  N1  UNL     1       8.210   6.745  42.523  1.00  0.00    -0.224 N
HETATM    4  C1  UNL     1       7.138   7.420  41.825  1.00  0.00     0.189 C
HETATM    5  O2  UNL     1       9.367   6.490  44.536  1.00  0.00    -0.258 OA
BRANCH   3   6
HETATM    6  O1  UNL     1       8.995   5.842  41.946  1.00  0.00    -0.285 OA
ATOM      7  H1  UNL     1       8.975   4.919  42.171  1.00  0.00     0.245 HD
ENDBRANCH   3   6
ENDBRANCH   1   2
BRANCH   1   8
HETATM    8  C3  UNL     1       7.728   8.594  46.385  1.00  0.00     0.209 C
HETATM    9  N2  UNL     1       7.108   9.262  47.223  1.00  0.00    -0.241 N
ATOM     10  H2  UNL     1       7.594   9.235  48.120  1.00  0.00     0.197 HD
BRANCH   8  11
HETATM   11  O3  UNL     1       8.929   7.983  46.899  1.00  0.00    -0.339 OA
ATOM     12  H3  UNL     1       9.056   8.080  47.835  1.00  0.00     0.220 HD
ENDBRANCH   8  11
BRANCH   9  13
HETATM   13  O4  UNL     1       6.023   9.994  47.324  1.00  0.00    -0.287 OA
ATOM     14  H4  UNL     1       5.749  10.902  47.269  1.00  0.00     0.244 HD
ENDBRANCH   9  13
ENDBRANCH   1   8
TORSDOF 5
ENDMDL