MODEL 5
REMARK VINA RESULT: -5.487143450      2.356      4.171
REMARK  2 active torsions:
REMARK  status: ('A' for Active; 'I' for Inactive)
REMARK    1  A    between atoms: N1_4  and  O1_6
REMARK    2  A    between atoms: N2_9  and  O2_11
ROOT
HETATM    1  C1  UNL     1      10.933   5.868  40.540  1.00  0.00     0.050 C
HETATM    2  C2  UNL     1       9.459   6.302  40.539  1.00  0.00     0.272 C
HETATM    3  C3  UNL     1       8.722   5.286  41.338  1.00  0.00     0.089 C
HETATM    4  N1  UNL     1       8.219   4.235  40.761  1.00  0.00    -0.269 N
ATOM      5  H1  UNL     1       7.720   3.561  41.342  1.00  0.00     0.194 HD
HETATM    6  C4  UNL     1       8.601   5.529  42.770  1.00  0.00     0.060 C
HETATM    7  N2  UNL     1       8.343   4.520  43.522  1.00  0.00    -0.271 N
ATOM      8  H2  UNL     1       8.234   3.598  43.100  1.00  0.00     0.194 HD
HETATM    9  C5  UNL     1       8.776   6.920  43.278  1.00  0.00     0.091 C
HETATM   10  C6  UNL     1       8.369   7.793  42.081  1.00  0.00     0.279 C
HETATM   11  N3  UNL     1       9.409   7.616  41.094  1.00  0.00     0.094 N
HETATM   12  C7  UNL     1       9.272   8.662  40.103  1.00  0.00     0.310 C
ENDROOT
BRANCH   4  13
HETATM   13  O1  UNL     1       8.316   3.985  39.440  1.00  0.00    -0.290 OA
ATOM     14  H1  UNL     1       7.660   4.243  38.803  1.00  0.00     0.244 HD
ENDBRANCH   4  13
BRANCH   7  15
HETATM   15  O2  UNL     1       8.213   4.657  44.879  1.00  0.00    -0.290 OA
ATOM     16  H2  UNL     1       8.346   3.922  45.466  1.00  0.00     0.244 HD
ENDBRANCH   7  15
TORSDOF 2
ENDMDL