MODEL 5
REMARK VINA RESULT: -5.165803484      1.883      3.501
REMARK  3 active torsions:
REMARK  status: ('A' for Active; 'I' for Inactive)
REMARK    1  A    between atoms: S1_2  and  N1_3
REMARK    2  A    between atoms: N1_3  and  O2_5
REMARK    3  A    between atoms: N2_11  and  O3_13
ROOT
HETATM    1  O1  UNL     1      10.876   6.327  43.619  1.00  0.00    -0.242 OA
HETATM    2  S1  UNL     1       9.580   6.270  42.907  1.00  0.00     0.088 S
HETATM    3  C1  UNL     1       9.572   7.229  41.407  1.00  0.00     0.126 C
HETATM    4  C2  UNL     1       8.825   8.475  41.788  1.00  0.00     0.020 C
HETATM    5  C3  UNL     1       7.811   8.176  42.804  1.00  0.00     0.071 C
HETATM    6  C4  UNL     1       8.313   7.159  43.742  1.00  0.00     0.107 C
HETATM    7  N2  UNL     1       7.914   6.955  44.924  1.00  0.00    -0.264 N
ATOM      8  H2  UNL     1       8.346   6.213  45.476  1.00  0.00     0.194 HD
ENDROOT
BRANCH   2   9
HETATM    9  N1  UNL     1       9.117   4.801  42.667  1.00  0.00    -0.222 N
ATOM     10  H1  UNL     1       9.135   4.402  41.728  1.00  0.00     0.204 HD
BRANCH   9  11
HETATM   11  O2  UNL     1       8.681   4.040  43.746  1.00  0.00    -0.282 OA
ATOM     12  H2  UNL     1       8.442   4.476  44.556  1.00  0.00     0.245 HD
ENDBRANCH   9  11
ENDBRANCH   2   9
BRANCH   7  13
HETATM   13  O3  UNL     1       6.912   7.712  45.482  1.00  0.00    -0.289 OA
ATOM     14  H3  UNL     1       6.583   7.532  46.354  1.00  0.00     0.244 HD
ENDBRANCH   7  13
TORSDOF 3
ENDMDL