MODEL 5
REMARK VINA RESULT: -5.803053562      3.803      5.650
REMARK  0 active torsions:
REMARK  status: ('A' for Active; 'I' for Inactive)
ROOT
HETATM    1  N1  UNL     1       6.030  11.925  45.740  1.00  0.00    -0.194 NA
HETATM    2  C1  UNL     1       6.440  10.901  45.446  1.00  0.00     0.108 C
HETATM    3  C2  UNL     1       6.965   9.616  45.054  1.00  0.00     0.277 C
HETATM    4  C3  UNL     1       5.851   8.714  44.506  1.00  0.00     0.065 C
HETATM    5  C4  UNL     1       6.434   7.302  44.474  1.00  0.00     0.029 C
HETATM    6  C5  UNL     1       7.848   7.278  43.983  1.00  0.00     0.133 C
HETATM    7  C6  UNL     1       8.139   8.537  43.243  1.00  0.00     0.258 C
HETATM    8  N2  UNL     1       7.920   9.743  43.967  1.00  0.00    -0.044 N
ATOM      9  H21 UNL     1       8.804  10.119  44.310  1.00  0.00     0.279 HD
ATOM     10  H22 UNL     1       7.645  10.494  43.335  1.00  0.00     0.279 HD
HETATM   11  N3  UNL     1       8.814   7.040  45.049  1.00  0.00    -0.086 NA
HETATM   12  O1  UNL     1       8.467   7.820  46.142  1.00  0.00    -0.227 OA
HETATM   13  C7  UNL     1       7.559   8.860  46.186  1.00  0.00     0.187 C
HETATM   14  N4  UNL     1       7.152   9.255  47.344  1.00  0.00    -0.379 N
ATOM     15  H41 UNL     1       7.561   8.736  48.121  1.00  0.00     0.158 HD
ATOM     16  H42 UNL     1       6.482  10.023  47.376  1.00  0.00     0.158 HD
ENDROOT
TORSDOF 0
ENDMDL