MODEL 4
REMARK VINA RESULT: -4.507293858      6.372      7.048
REMARK  1 active torsions:
REMARK  status: ('A' for Active; 'I' for Inactive)
REMARK    1  A    between atoms: N1_4  and  O1_5
ROOT
HETATM    1  C1  UNL     1       4.310  12.058  47.369  1.00  0.00     0.024 C
HETATM    2  C2  UNL     1       4.604  12.739  46.039  1.00  0.00     0.075 C
HETATM    3  C3  UNL     1       3.438  13.656  45.775  1.00  0.00     0.174 C
HETATM    4  N1  UNL     1       3.497  14.465  44.617  1.00  0.00    -0.237 N
HETATM    5  C4  UNL     1       3.746  14.055  43.277  1.00  0.00     0.170 C
HETATM    6  N2  UNL     1       3.203  14.693  42.269  1.00  0.00    -0.378 N
ATOM      7  H21 UNL     1       3.381  14.400  41.309  1.00  0.00     0.158 HD
ATOM      8  H22 UNL     1       2.595  15.491  42.456  1.00  0.00     0.158 HD
HETATM    9  S1  UNL     1       4.803  12.666  42.953  1.00  0.00    -0.019 SA
HETATM   10  S2  UNL     1       4.749  11.476  44.721  1.00  0.00    -0.083 SA
ENDROOT
BRANCH   4  11
HETATM   11  O1  UNL     1       3.291  15.810  44.744  1.00  0.00    -0.285 OA
ATOM     12  H1  UNL     1       2.626  16.223  44.205  1.00  0.00     0.245 HD
ENDBRANCH   4  11
TORSDOF 1
ENDMDL