MODEL 1
REMARK VINA RESULT: -5.973013242      0.000      0.000
REMARK  2 active torsions:
REMARK  status: ('A' for Active; 'I' for Inactive)
REMARK    1  A    between atoms: O1_1  and  C1_3
REMARK    2  A    between atoms: C6_13  and  O2_14
ROOT
HETATM    1  C1  UNL     1       4.324  14.369  43.900  1.00  0.00     0.120 C
HETATM    2  C2  UNL     1       4.259  13.033  43.235  1.00  0.00     0.033 C
HETATM    3  C3  UNL     1       4.641  11.868  44.037  1.00  0.00     0.024 C
HETATM    4  C4  UNL     1       5.623  12.093  45.132  1.00  0.00     0.147 C
HETATM    5  N1  UNL     1       4.896  12.251  46.373  1.00  0.00    -0.287 N
HETATM    6  N2  UNL     1       4.955  11.942  47.714  1.00  0.00    -0.245 N
ATOM      7  H2  UNL     1       5.643  11.435  48.271  1.00  0.00     0.208 HD
HETATM    8  N3  UNL     1       3.841  12.513  48.025  1.00  0.00    -0.295 N
ATOM      9  H3  UNL     1       3.316  12.633  48.891  1.00  0.00     0.184 HD
HETATM   10  C5  UNL     1       3.637  12.908  46.672  1.00  0.00     0.246 A
HETATM   11  C6  UNL     1       3.828  14.379  46.364  1.00  0.00     0.165 C
HETATM   12  C7  UNL     1       3.289  14.592  44.951  1.00  0.00     0.067 C
ENDROOT
BRANCH   1  13
HETATM   13  O1  UNL     1       4.072  15.318  42.875  1.00  0.00    -0.395 OA
ATOM     14  H1  UNL     1       4.721  16.001  42.995  1.00  0.00     0.210 HD
ENDBRANCH   1  13
BRANCH  11  15
HETATM   15  O2  UNL     1       3.219  15.185  47.292  1.00  0.00    -0.392 OA
ATOM     16  H2  UNL     1       3.398  16.105  47.140  1.00  0.00     0.210 HD
ENDBRANCH  11  15
TORSDOF 2
ENDMDL