MODEL 4
REMARK VINA RESULT: -9.157313399      1.529      2.235
REMARK  13 active torsions:
REMARK  status: ('A' for Active; 'I' for Inactive)
REMARK    1  A    between atoms: C2_2  and  C3_3
REMARK    2  A    between atoms: C3_3  and  C4_4
REMARK    3  A    between atoms: C4_4  and  C5_5
REMARK    4  A    between atoms: C5_5  and  C6_6
REMARK    5  A    between atoms: C5_5  and  C23_35
REMARK       I    between atoms: C6_6  and  N1_8
REMARK    6  A    between atoms: N1_8  and  C7_10
REMARK    7  A    between atoms: C8_15  and  C9_16
REMARK    8  A    between atoms: C9_16  and  C10_17
REMARK    9  A    between atoms: C10_17  and  C11_18
REMARK   10  A    between atoms: C11_18  and  C12_19
REMARK       I    between atoms: C12_19  and  N4_21
REMARK       I    between atoms: C23_35  and  N6_37
REMARK   11  A    between atoms: N6_37  and  C24_39
REMARK   12  A    between atoms: C24_39  and  C25_40
REMARK   13  A    between atoms: C25_40  and  O5_42
ROOT
HETATM    1  C7  UNL     1      -6.009  16.922  23.005  1.00  0.00     0.167 A
HETATM    2  N2  UNL     1      -7.035  17.411  23.708  1.00  0.00    -0.279 N
ATOM      3  H2  UNL     1      -7.947  17.547  23.274  1.00  0.00     0.189 HD
HETATM    4  N3  UNL     1      -6.848  17.702  24.928  1.00  0.00    -0.296 N
ATOM      5  H3  UNL     1      -7.617  18.077  25.483  1.00  0.00     0.187 HD
HETATM    6  C8  UNL     1      -5.660  17.522  25.486  1.00  0.00     0.069 A
HETATM    7  S1  UNL     1      -4.764  16.898  24.177  1.00  0.00    -0.038 SA
ENDROOT
BRANCH   1   8
HETATM    8  N1  UNL     1      -5.996  16.563  21.743  1.00  0.00    -0.305 N
HETATM    9  C6  UNL     1      -6.402  17.488  20.745  1.00  0.00     0.236 C
HETATM   10  O1  UNL     1      -6.653  18.675  21.119  1.00  0.00    -0.272 OA
ATOM     11  H1  UNL     1      -5.696  15.625  21.480  1.00  0.00     0.171 HD
BRANCH   9  12
HETATM   12  C5  UNL     1      -6.524  17.101  19.341  1.00  0.00     0.170 C
BRANCH  12  13
HETATM   13  C4  UNL     1      -7.326  15.896  19.047  1.00  0.00     0.024 C
BRANCH  13  14
HETATM   14  C3  UNL     1      -8.796  15.923  19.170  1.00  0.00     0.001 C
BRANCH  14  15
HETATM   15  C2  UNL     1      -9.411  15.652  20.492  1.00  0.00    -0.005 C
HETATM   16  C1  UNL     1      -8.576  14.540  21.149  1.00  0.00     0.005 C
ENDBRANCH  14  15
ENDBRANCH  13  14
ENDBRANCH  12  13
BRANCH  12  17
HETATM   17  C23 UNL     1      -5.135  16.972  18.774  1.00  0.00     0.231 C
HETATM   18  O3  UNL     1      -4.165  17.062  19.549  1.00  0.00    -0.273 OA
HETATM   19  N6  UNL     1      -4.926  16.751  17.391  1.00  0.00    -0.351 N
ATOM     20  H6  UNL     1      -5.726  16.678  16.763  1.00  0.00     0.163 HD
BRANCH  19  21
HETATM   21  C24 UNL     1      -3.589  16.630  16.867  1.00  0.00     0.233 C
BRANCH  21  22
HETATM   22  C25 UNL     1      -3.291  15.219  16.550  1.00  0.00     0.276 C
HETATM   23  O4  UNL     1      -3.423  14.804  15.379  1.00  0.00    -0.263 OA
BRANCH  22  24
HETATM   24  O5  UNL     1      -2.862  14.364  17.578  1.00  0.00    -0.325 OA
HETATM   25  C26 UNL     1      -1.691  14.790  18.275  1.00  0.00     0.213 C
ENDBRANCH  22  24
ENDBRANCH  21  22
ENDBRANCH  19  21
ENDBRANCH  12  17
ENDBRANCH   9  12
ENDBRANCH   1   8
BRANCH   6  26
HETATM   26  C9  UNL     1      -5.268  17.811  26.915  1.00  0.00     0.067 C
BRANCH  26  27
HETATM   27  C10 UNL     1      -6.336  17.324  27.858  1.00  0.00     0.016 C
BRANCH  27  28
HETATM   28  C11 UNL     1      -6.368  15.818  27.849  1.00  0.00     0.103 C
BRANCH  28  29
HETATM   29  C12 UNL     1      -7.757  15.387  27.502  1.00  0.00     0.224 C
HETATM   30  O2  UNL     1      -8.129  15.471  26.313  1.00  0.00    -0.273 OA
HETATM   31  N4  UNL     1      -8.633  14.891  28.509  1.00  0.00    -0.314 N
HETATM   32  C13 UNL     1      -8.279  14.908  29.933  1.00  0.00     0.152 C
HETATM   33  C22 UNL     1      -9.918  14.379  28.183  1.00  0.00     0.064 A
HETATM   34  C14 UNL     1      -9.386  15.516  30.755  1.00  0.00     0.140 C
HETATM   35  N5  UNL     1     -10.698  15.352  30.202  1.00  0.00    -0.387 N
HETATM   36  C15 UNL     1     -11.000  14.605  29.042  1.00  0.00     0.055 A
ATOM     37  H5  UNL     1     -11.472  15.809  30.683  1.00  0.00     0.159 HD
HETATM   38  C16 UNL     1     -12.252  14.120  28.745  1.00  0.00     0.038 A
HETATM   39  C17 UNL     1     -12.443  13.401  27.588  1.00  0.00    -0.054 A
HETATM   40  C18 UNL     1     -13.794  12.851  27.221  1.00  0.00     0.049 C
HETATM   41  C19 UNL     1     -11.371  13.187  26.757  1.00  0.00    -0.054 A
HETATM   42  C20 UNL     1     -11.558  12.412  25.501  1.00  0.00     0.049 C
HETATM   43  C21 UNL     1     -10.086  13.661  27.019  1.00  0.00     0.039 A
ENDBRANCH  28  29
ENDBRANCH  27  28
ENDBRANCH  26  27
ENDBRANCH   6  26
TORSDOF 13
ENDMDL