MODEL 4
REMARK VINA RESULT: -9.072668768      2.362     10.111
REMARK  13 active torsions:
REMARK  status: ('A' for Active; 'I' for Inactive)
REMARK    1  A    between atoms: C2_2  and  C3_3
REMARK    2  A    between atoms: C3_3  and  C4_4
REMARK    3  A    between atoms: C4_4  and  C5_5
REMARK    4  A    between atoms: C5_5  and  C6_6
REMARK    5  A    between atoms: C6_6  and  N1_7
REMARK    6  A    between atoms: N1_7  and  C7_9
REMARK    7  A    between atoms: C7_9  and  N2_10
REMARK    8  A    between atoms: C7_9  and  C19_31
REMARK    9  A    between atoms: N2_10  and  C8_12
REMARK   10  A    between atoms: C8_12  and  O1_13
REMARK   11  A    between atoms: C9_15  and  S1_16
REMARK   12  A    between atoms: S1_16  and  C10_17
REMARK       I    between atoms: C19_31  and  N5_33
REMARK   13  A    between atoms: N5_33  and  C20_35
ROOT
HETATM    1  C7  UNL     1     -11.792  14.938  27.609  1.00  0.00     0.172 C
ENDROOT
BRANCH   1   2
HETATM    2  N1  UNL     1     -13.195  14.873  27.564  1.00  0.00    -0.372 N
ATOM      3  H1  UNL     1     -13.623  15.797  27.523  1.00  0.00     0.161 HD
BRANCH   2   4
HETATM    4  C6  UNL     1     -14.116  13.881  27.560  1.00  0.00     0.121 C
BRANCH   4   5
HETATM    5  C5  UNL     1     -14.741  13.881  28.993  1.00  0.00     0.020 C
BRANCH   5   6
HETATM    6  C4  UNL     1     -14.524  12.609  29.719  1.00  0.00     0.002 C
BRANCH   6   7
HETATM    7  C3  UNL     1     -13.740  11.704  28.739  1.00  0.00    -0.000 C
BRANCH   7   8
HETATM    8  C2  UNL     1     -12.723  10.856  29.403  1.00  0.00    -0.005 C
HETATM    9  C1  UNL     1     -13.281   9.886  30.416  1.00  0.00     0.005 C
ENDBRANCH   7   8
ENDBRANCH   6   7
ENDBRANCH   5   6
ENDBRANCH   4   5
ENDBRANCH   2   4
ENDBRANCH   1   2
BRANCH   1  10
HETATM   10  N2  UNL     1     -11.417  16.233  27.068  1.00  0.00    -0.319 N
ATOM     11  H2  UNL     1     -11.970  16.749  26.384  1.00  0.00     0.169 HD
BRANCH  10  12
HETATM   12  C8  UNL     1     -10.168  16.701  27.615  1.00  0.00     0.148 C
HETATM   13  C9  UNL     1      -8.795  16.618  27.297  1.00  0.00     0.107 C
BRANCH  12  14
HETATM   14  O1  UNL     1     -10.402  17.388  28.737  1.00  0.00    -0.346 OA
ATOM     15  H1  UNL     1      -9.670  17.282  29.333  1.00  0.00     0.219 HD
ENDBRANCH  12  14
BRANCH  13  16
HETATM   16  S1  UNL     1      -8.213  15.247  26.369  1.00  0.00    -0.078 SA
BRANCH  16  17
HETATM   17  C10 UNL     1      -7.593  15.550  24.754  1.00  0.00     0.096 A
HETATM   18  N3  UNL     1      -8.444  15.209  23.696  1.00  0.00    -0.351 N
HETATM   19  C11 UNL     1      -8.143  15.465  22.458  1.00  0.00     0.033 A
ATOM     20  H3  UNL     1      -9.328  14.745  23.904  1.00  0.00     0.166 HD
HETATM   21  C12 UNL     1      -6.941  16.095  22.126  1.00  0.00     0.039 A
HETATM   22  C18 UNL     1      -9.056  15.060  21.343  1.00  0.00     0.066 C
HETATM   23  N4  UNL     1      -6.110  16.427  23.131  1.00  0.00    -0.359 N
HETATM   24  C15 UNL     1      -6.671  16.361  20.710  1.00  0.00     0.137 C
HETATM   25  C13 UNL     1      -6.425  16.157  24.448  1.00  0.00     0.039 A
ATOM     26  H4  UNL     1      -5.227  16.889  22.914  1.00  0.00     0.165 HD
HETATM   27  C14 UNL     1      -5.447  16.569  25.499  1.00  0.00     0.071 C
HETATM   28  C16 UNL     1      -7.900  16.706  19.948  1.00  0.00     0.133 C
HETATM   29  O2  UNL     1      -7.833  17.340  18.934  1.00  0.00    -0.298 OA
HETATM   30  C17 UNL     1      -9.241  16.259  20.439  1.00  0.00     0.084 C
ENDBRANCH  16  17
ENDBRANCH  13  16
ENDBRANCH  10  12
ENDBRANCH   1  10
BRANCH   1  31
HETATM   31  C19 UNL     1     -11.100  14.228  28.606  1.00  0.00     0.289 C
HETATM   32  O3  UNL     1     -10.379  13.229  28.219  1.00  0.00    -0.264 OA
HETATM   33  N5  UNL     1     -11.166  14.504  29.978  1.00  0.00    -0.326 N
ATOM     34  H5  UNL     1     -11.699  15.348  30.186  1.00  0.00     0.168 HD
BRANCH  33  35
HETATM   35  C20 UNL     1     -10.660  13.877  31.134  1.00  0.00     0.013 C
HETATM   36  C21 UNL     1     -11.709  13.274  31.987  1.00  0.00     0.069 C
HETATM   37  C22 UNL     1     -12.127  14.288  33.051  1.00  0.00     0.147 C
HETATM   38  S2  UNL     1     -10.522  14.975  33.458  1.00  0.00     0.158 S
HETATM   39  O4  UNL     1     -10.529  16.442  33.634  1.00  0.00    -0.227 OA
HETATM   40  O5  UNL     1     -10.003  14.266  34.688  1.00  0.00    -0.227 OA
HETATM   41  C23 UNL     1      -9.617  14.444  31.995  1.00  0.00     0.095 C
HETATM   42  C24 UNL     1      -8.631  15.420  31.487  1.00  0.00     0.038 C
HETATM   43  C25 UNL     1      -8.752  13.217  32.493  1.00  0.00     0.038 C
ENDBRANCH  33  35
ENDBRANCH   1  31
TORSDOF 13
ENDMDL