MODEL 5
REMARK VINA RESULT: -8.936778527      2.933      8.820
REMARK  12 active torsions:
REMARK  status: ('A' for Active; 'I' for Inactive)
REMARK    1  A    between atoms: C2_2  and  C3_3
REMARK    2  A    between atoms: C3_3  and  C4_4
REMARK    3  A    between atoms: C4_4  and  C5_5
REMARK    4  A    between atoms: C5_5  and  C6_6
REMARK    5  A    between atoms: C6_6  and  C7_7
REMARK    6  A    between atoms: C7_7  and  C8_8
REMARK    7  A    between atoms: C8_8  and  O1_9
REMARK    8  A    between atoms: O1_9  and  C9_10
REMARK    9  A    between atoms: C16_22  and  C17_23
REMARK   10  A    between atoms: N5_31  and  C21_32
REMARK   11  A    between atoms: C22_33  and  O4_34
REMARK   12  A    between atoms: C22_33  and  N6_36
ROOT
HETATM    1  C9  UNL     1      -6.040  16.288  23.072  1.00  0.00     0.108 A
HETATM    2  C10 UNL     1      -6.185  16.652  21.758  1.00  0.00     0.095 A
HETATM    3  N1  UNL     1      -5.454  17.333  20.856  1.00  0.00    -0.297 N
ATOM      4  H1  UNL     1      -4.552  17.718  21.140  1.00  0.00     0.187 HD
HETATM    5  N2  UNL     1      -5.866  17.521  19.609  1.00  0.00    -0.309 N
ATOM      6  H2  UNL     1      -5.261  18.048  18.981  1.00  0.00     0.186 HD
HETATM    7  C11 UNL     1      -7.029  17.061  19.121  1.00  0.00     0.134 A
HETATM    8  C12 UNL     1      -7.878  16.339  19.949  1.00  0.00     0.076 A
HETATM    9  N3  UNL     1      -9.117  15.833  19.482  1.00  0.00    -0.100 NA
HETATM   10  C13 UNL     1      -7.475  16.131  21.243  1.00  0.00     0.027 A
HETATM   11  C14 UNL     1      -8.034  15.469  22.310  1.00  0.00    -0.034 A
HETATM   12  C15 UNL     1      -9.339  14.759  22.279  1.00  0.00     0.050 C
HETATM   13  C16 UNL     1      -7.177  15.561  23.404  1.00  0.00     0.008 A
ENDROOT
BRANCH  13  14
HETATM   14  C17 UNL     1      -7.426  14.950  24.691  1.00  0.00     0.037 C
HETATM   15  C18 UNL     1      -8.160  15.529  25.628  1.00  0.00     0.101 A
HETATM   16  C19 UNL     1      -8.792  16.830  25.483  1.00  0.00     0.265 A
HETATM   17  C28 UNL     1      -8.406  14.846  26.900  1.00  0.00     0.271 A
HETATM   18  O2  UNL     1      -8.644  17.500  24.440  1.00  0.00    -0.267 OA
HETATM   19  N4  UNL     1      -9.599  17.360  26.559  1.00  0.00    -0.274 N
HETATM   20  C20 UNL     1      -9.800  16.649  27.766  1.00  0.00     0.336 A
ATOM     21  H4  UNL     1     -10.038  18.274  26.445  1.00  0.00     0.173 HD
HETATM   22  O3  UNL     1     -10.500  17.105  28.704  1.00  0.00    -0.246 OA
HETATM   23  N5  UNL     1      -9.190  15.343  27.966  1.00  0.00    -0.236 N
HETATM   24  O5  UNL     1      -7.866  13.712  27.047  1.00  0.00    -0.266 OA
BRANCH  23  25
HETATM   25  C21 UNL     1      -9.446  14.611  29.163  1.00  0.00     0.160 C
HETATM   26  C22 UNL     1     -10.546  13.744  29.342  1.00  0.00     0.154 C
BRANCH  26  27
HETATM   27  O4  UNL     1     -10.551  13.168  30.558  1.00  0.00    -0.345 OA
ATOM     28  H4  UNL     1     -11.396  13.236  30.986  1.00  0.00     0.219 HD
ENDBRANCH  26  27
BRANCH  26  29
HETATM   29  N6  UNL     1     -11.608  13.368  28.529  1.00  0.00    -0.358 N
HETATM   30  C23 UNL     1     -11.885  12.047  28.070  1.00  0.00     0.155 C
HETATM   31  C24 UNL     1     -13.163  12.124  27.204  1.00  0.00     0.291 C
HETATM   32  N7  UNL     1     -13.014  13.035  26.114  1.00  0.00     0.087 N
HETATM   33  C25 UNL     1     -12.269  12.546  24.993  1.00  0.00     0.310 C
HETATM   34  C26 UNL     1     -12.565  14.348  26.566  1.00  0.00     0.291 C
HETATM   35  C27 UNL     1     -12.588  14.407  28.082  1.00  0.00     0.155 C
ENDBRANCH  26  29
ENDBRANCH  23  25
ENDBRANCH  13  14
BRANCH   1  36
HETATM   36  O1  UNL     1      -5.032  16.549  23.923  1.00  0.00    -0.348 OA
BRANCH  36  37
HETATM   37  C8  UNL     1      -3.808  17.150  23.785  1.00  0.00     0.176 C
BRANCH  37  38
HETATM   38  C7  UNL     1      -3.646  18.609  23.779  1.00  0.00     0.027 C
BRANCH  38  39
HETATM   39  C6  UNL     1      -4.668  19.455  24.419  1.00  0.00     0.002 C
BRANCH  39  40
HETATM   40  C5  UNL     1      -4.758  19.300  25.913  1.00  0.00     0.000 C
BRANCH  40  41
HETATM   41  C4  UNL     1      -6.127  18.812  26.330  1.00  0.00     0.000 C
BRANCH  41  42
HETATM   42  C3  UNL     1      -6.026  17.818  27.465  1.00  0.00    -0.000 C
BRANCH  42  43
HETATM   43  C2  UNL     1      -4.621  17.372  27.722  1.00  0.00    -0.005 C
HETATM   44  C1  UNL     1      -4.479  15.930  27.281  1.00  0.00     0.005 C
ENDBRANCH  42  43
ENDBRANCH  41  42
ENDBRANCH  40  41
ENDBRANCH  39  40
ENDBRANCH  38  39
ENDBRANCH  37  38
ENDBRANCH  36  37
ENDBRANCH   1  36
TORSDOF 12
ENDMDL