MODEL 5
REMARK VINA RESULT: -8.603192934      1.006      1.455
REMARK  12 active torsions:
REMARK  status: ('A' for Active; 'I' for Inactive)
REMARK    1  A    between atoms: O1_2  and  C2_3
REMARK    2  A    between atoms: C2_3  and  C3_4
REMARK    3  A    between atoms: C3_4  and  C4_5
REMARK    4  A    between atoms: C4_5  and  C5_6
REMARK    5  A    between atoms: C5_6  and  N1_7
REMARK    6  A    between atoms: C8_10  and  N2_11
REMARK    7  A    between atoms: N2_11  and  C9_12
REMARK    8  A    between atoms: C10_15  and  N4_16
REMARK    9  A    between atoms: C20_29  and  N7_30
REMARK       I    between atoms: N7_30  and  C21_32
REMARK       I    between atoms: C21_32  and  N8_34
REMARK   10  A    between atoms: N8_34  and  C22_36
REMARK   11  A    between atoms: C22_36  and  C23_37
REMARK   12  A    between atoms: C23_37  and  O3_38
ROOT
HETATM    1  C9  UNL     1      -9.753  14.595  24.884  1.00  0.00     0.200 A
HETATM    2  N3  UNL     1      -9.242  14.747  23.615  1.00  0.00    -0.164 N
ATOM      3  H3  UNL     1      -9.643  14.180  22.868  1.00  0.00     0.187 HD
HETATM    4  C10 UNL     1      -8.262  15.583  23.301  1.00  0.00     0.683 A
HETATM    5  N6  UNL     1      -7.735  16.327  24.273  1.00  0.00    -0.190 N
ATOM      6  H6  UNL     1      -6.978  16.970  24.041  1.00  0.00     0.184 HD
HETATM    7  C16 UNL     1      -8.155  16.264  25.527  1.00  0.00     0.070 A
HETATM    8  C17 UNL     1      -7.563  17.128  26.428  1.00  0.00    -0.032 A
HETATM    9  C18 UNL     1      -6.463  18.012  25.985  1.00  0.00     0.050 C
HETATM   10  C19 UNL     1      -8.052  17.098  27.727  1.00  0.00     0.038 A
HETATM   11  C20 UNL     1      -9.071  16.253  28.086  1.00  0.00     0.037 A
HETATM   12  C25 UNL     1      -9.636  15.397  27.158  1.00  0.00     0.048 A
HETATM   13  C26 UNL     1      -9.165  15.410  25.865  1.00  0.00     0.052 A
ENDROOT
BRANCH   1  14
HETATM   14  N2  UNL     1     -10.591  13.804  25.173  1.00  0.00    -0.424 NA
BRANCH  14  15
HETATM   15  C8  UNL     1     -11.549  12.918  25.492  1.00  0.00     0.168 C
HETATM   16  C7  UNL     1     -11.379  12.200  26.789  1.00  0.00     0.069 C
HETATM   17  C6  UNL     1     -12.652  12.113  27.635  1.00  0.00     0.275 C
HETATM   18  N1  UNL     1     -13.188  13.355  27.981  1.00  0.00     0.088 N
HETATM   19  C28 UNL     1     -12.953  14.339  26.885  1.00  0.00     0.275 C
HETATM   20  C27 UNL     1     -12.952  13.584  25.581  1.00  0.00     0.069 C
BRANCH  18  21
HETATM   21  C5  UNL     1     -14.472  13.547  28.507  1.00  0.00     0.272 C
BRANCH  21  22
HETATM   22  C4  UNL     1     -14.684  13.833  29.924  1.00  0.00     0.032 C
BRANCH  22  23
HETATM   23  C3  UNL     1     -13.564  13.846  30.897  1.00  0.00     0.028 C
BRANCH  23  24
HETATM   24  C2  UNL     1     -13.141  12.490  31.418  1.00  0.00     0.167 C
BRANCH  24  25
HETATM   25  O1  UNL     1     -14.169  11.607  31.423  1.00  0.00    -0.396 OA
HETATM   26  C1  UNL     1     -13.795  10.394  30.885  1.00  0.00     0.201 C
ENDBRANCH  24  25
ENDBRANCH  23  24
ENDBRANCH  22  23
ENDBRANCH  21  22
ENDBRANCH  18  21
ENDBRANCH  14  15
ENDBRANCH   1  14
BRANCH   4  27
HETATM   27  N4  UNL     1      -7.794  15.748  21.972  1.00  0.00    -0.214 N
HETATM   28  C11 UNL     1      -8.516  15.253  20.838  1.00  0.00     0.171 C
HETATM   29  C12 UNL     1      -7.903  15.606  19.522  1.00  0.00     0.292 C
HETATM   30  N5  UNL     1      -7.137  16.791  19.447  1.00  0.00     0.087 N
HETATM   31  C13 UNL     1      -5.829  16.521  18.845  1.00  0.00     0.310 C
HETATM   32  C14 UNL     1      -6.898  17.490  20.665  1.00  0.00     0.292 C
HETATM   33  C15 UNL     1      -6.545  16.447  21.735  1.00  0.00     0.171 C
ENDBRANCH   4  27
BRANCH  11  34
HETATM   34  N7  UNL     1      -9.660  16.333  29.377  1.00  0.00    -0.309 N
HETATM   35  C21 UNL     1      -9.149  15.489  30.418  1.00  0.00     0.320 C
HETATM   36  O2  UNL     1      -8.192  14.687  30.190  1.00  0.00    -0.247 OA
HETATM   37  N8  UNL     1      -9.684  15.528  31.710  1.00  0.00    -0.341 N
ATOM     38  H8  UNL     1     -10.456  16.169  31.893  1.00  0.00     0.164 HD
ATOM     39  H7  UNL     1     -10.429  16.978  29.559  1.00  0.00     0.170 HD
BRANCH  37  40
HETATM   40  C22 UNL     1      -9.202  14.708  32.801  1.00  0.00     0.150 C
BRANCH  40  41
HETATM   41  C23 UNL     1      -9.573  15.316  34.105  1.00  0.00     0.186 C
BRANCH  41  42
HETATM   42  O3  UNL     1     -10.932  15.478  34.263  1.00  0.00    -0.394 OA
HETATM   43  C24 UNL     1     -11.569  14.255  34.342  1.00  0.00     0.201 C
ENDBRANCH  41  42
ENDBRANCH  40  41
ENDBRANCH  37  40
ENDBRANCH  11  34
TORSDOF 12
ENDMDL