MODEL 2
REMARK VINA RESULT: -8.721282809      1.839      9.864
REMARK  14 active torsions:
REMARK  status: ('A' for Active; 'I' for Inactive)
REMARK    1  A    between atoms: O1_2  and  C2_3
REMARK       I    between atoms: C2_3  and  N1_5
REMARK    2  A    between atoms: N1_5  and  C3_7
REMARK    3  A    between atoms: C3_7  and  C4_8
REMARK    4  A    between atoms: C3_7  and  C24_39
REMARK       I    between atoms: C4_8  and  N2_10
REMARK    5  A    between atoms: N2_10  and  C5_12
REMARK    6  A    between atoms: C5_12  and  C6_13
REMARK    7  A    between atoms: C5_12  and  C21_36
REMARK    8  A    between atoms: C6_13  and  O5_15
REMARK    9  A    between atoms: O5_15  and  C7_16
REMARK   10  A    between atoms: C7_16  and  C8_17
REMARK       I    between atoms: N3_21  and  C12_22
REMARK   11  A    between atoms: C12_22  and  C13_24
REMARK   12  A    between atoms: C13_24  and  N4_25
REMARK   13  A    between atoms: C13_24  and  C16_31
REMARK       I    between atoms: N4_25  and  C14_27
REMARK   14  A    between atoms: C14_27  and  O8_29
ROOT
HETATM    1  O5  UNL     1     -10.479  13.105  26.237  1.00  0.00    -0.289 OA
ENDROOT
BRANCH   1   2
HETATM    2  C6  UNL     1     -11.667  13.080  26.860  1.00  0.00     0.286 C
HETATM    3  O4  UNL     1     -12.595  13.726  26.254  1.00  0.00    -0.263 OA
BRANCH   2   4
HETATM    4  C5  UNL     1     -11.828  12.368  28.132  1.00  0.00     0.188 C
BRANCH   4   5
HETATM    5  N2  UNL     1     -11.366  13.092  29.280  1.00  0.00    -0.345 N
HETATM    6  C4  UNL     1     -10.256  13.751  29.697  1.00  0.00     0.241 C
HETATM    7  O3  UNL     1      -9.188  13.959  29.080  1.00  0.00    -0.271 OA
ATOM      8  H2  UNL     1     -12.090  13.120  30.000  1.00  0.00     0.163 HD
BRANCH   6   9
HETATM    9  C3  UNL     1     -10.353  14.333  31.111  1.00  0.00     0.182 C
BRANCH   9  10
HETATM   10  N1  UNL     1     -11.279  13.469  31.850  1.00  0.00    -0.323 N
HETATM   11  C2  UNL     1     -12.519  14.020  32.331  1.00  0.00     0.360 C
HETATM   12  O2  UNL     1     -12.989  15.101  32.161  1.00  0.00    -0.239 OA
ATOM     13  H1  UNL     1     -11.047  12.490  32.021  1.00  0.00     0.165 HD
BRANCH  11  14
HETATM   14  O1  UNL     1     -13.258  13.088  33.136  1.00  0.00    -0.309 OA
HETATM   15  C1  UNL     1     -12.746  11.775  33.102  1.00  0.00     0.215 C
ENDBRANCH  11  14
ENDBRANCH   9  10
BRANCH   9  16
HETATM   16  C24 UNL     1      -8.996  14.599  31.630  1.00  0.00     0.009 C
HETATM   17  C25 UNL     1      -9.074  15.785  32.629  1.00  0.00     0.012 C
HETATM   18  C26 UNL     1      -8.474  13.468  32.487  1.00  0.00     0.012 C
ENDBRANCH   9  16
ENDBRANCH   6   9
ENDBRANCH   4   5
BRANCH   4  19
HETATM   19  C21 UNL     1     -13.243  12.011  28.476  1.00  0.00     0.010 C
HETATM   20  C22 UNL     1     -14.051  13.212  29.004  1.00  0.00     0.012 C
HETATM   21  C23 UNL     1     -13.483  10.892  29.404  1.00  0.00     0.012 C
ENDBRANCH   4  19
ENDBRANCH   2   4
ENDBRANCH   1   2
BRANCH   1  22
HETATM   22  C7  UNL     1      -9.755  13.556  25.242  1.00  0.00     0.150 C
BRANCH  22  23
HETATM   23  C8  UNL     1      -9.031  14.862  25.271  1.00  0.00    -0.040 C
HETATM   24  C9  UNL     1      -9.970  16.013  25.475  1.00  0.00     0.039 C
HETATM   25  C10 UNL     1      -9.889  16.777  26.729  1.00  0.00     0.024 C
HETATM   26  C11 UNL     1      -8.524  16.780  27.402  1.00  0.00     0.126 C
HETATM   27  N3  UNL     1      -7.599  16.365  26.367  1.00  0.00    -0.346 N
HETATM   28  C12 UNL     1      -6.765  17.344  25.784  1.00  0.00     0.243 C
HETATM   29  C20 UNL     1      -7.732  14.975  25.992  1.00  0.00     0.162 C
HETATM   30  O6  UNL     1      -6.902  18.535  26.262  1.00  0.00    -0.271 OA
BRANCH  28  31
HETATM   31  C13 UNL     1      -5.798  17.149  24.687  1.00  0.00     0.186 C
BRANCH  31  32
HETATM   32  N4  UNL     1      -6.222  17.723  23.444  1.00  0.00    -0.323 N
HETATM   33  C14 UNL     1      -6.875  17.127  22.361  1.00  0.00     0.360 C
HETATM   34  O7  UNL     1      -7.280  15.917  22.385  1.00  0.00    -0.239 OA
ATOM     35  H4  UNL     1      -6.018  18.716  23.333  1.00  0.00     0.165 HD
BRANCH  33  36
HETATM   36  O8  UNL     1      -7.115  17.817  21.192  1.00  0.00    -0.309 OA
HETATM   37  C15 UNL     1      -6.700  17.367  19.915  1.00  0.00     0.215 C
ENDBRANCH  33  36
ENDBRANCH  31  32
BRANCH  31  38
HETATM   38  C16 UNL     1      -4.428  17.649  25.062  1.00  0.00    -0.022 C
HETATM   39  C17 UNL     1      -4.220  19.090  24.582  1.00  0.00     0.017 C
HETATM   40  C18 UNL     1      -3.981  17.552  26.457  1.00  0.00     0.017 C
HETATM   41  C19 UNL     1      -3.352  16.910  24.212  1.00  0.00     0.017 C
ENDBRANCH  31  38
ENDBRANCH  28  31
ENDBRANCH  22  23
ENDBRANCH   1  22
TORSDOF 14
ENDMDL