MODEL 3
REMARK VINA RESULT: -8.597101100      3.270     11.158
REMARK  11 active torsions:
REMARK  status: ('A' for Active; 'I' for Inactive)
REMARK    1  A    between atoms: C2_2  and  C3_3
REMARK    2  A    between atoms: C3_3  and  C4_4
REMARK    3  A    between atoms: C4_4  and  N1_5
REMARK    4  A    between atoms: C7_8  and  N2_9
REMARK       I    between atoms: N2_9  and  C8_11
REMARK       I    between atoms: C8_11  and  N3_13
REMARK    5  A    between atoms: N3_13  and  C9_15
REMARK    6  A    between atoms: C9_15  and  C10_16
REMARK    7  A    between atoms: C10_16  and  N4_17
REMARK    8  A    between atoms: N4_17  and  C11_19
REMARK    9  A    between atoms: C19_30  and  N7_31
REMARK   10  A    between atoms: C25_38  and  O2_39
REMARK   11  A    between atoms: O2_39  and  C26_40
ROOT
HETATM    1  C11 UNL     1     -11.812  13.062  33.862  1.00  0.00     0.106 A
HETATM    2  N5  UNL     1     -12.313  13.424  32.671  1.00  0.00    -0.351 N
ATOM      3  H5  UNL     1     -12.148  14.373  32.336  1.00  0.00     0.166 HD
HETATM    4  C12 UNL     1     -13.036  12.567  31.891  1.00  0.00     0.112 A
HETATM    5  C13 UNL     1     -13.304  11.269  32.270  1.00  0.00     0.060 A
HETATM    6  C14 UNL     1     -14.065  10.377  31.442  1.00  0.00     0.101 C
HETATM    7  N6  UNL     1     -14.690   9.666  30.759  1.00  0.00    -0.191 NA
HETATM    8  C15 UNL     1     -12.797  10.881  33.491  1.00  0.00     0.034 A
HETATM    9  C16 UNL     1     -12.071  11.750  34.271  1.00  0.00    -0.017 A
HETATM   10  C17 UNL     1     -11.519  11.339  35.591  1.00  0.00     0.052 C
ENDROOT
BRANCH   1  11
HETATM   11  N4  UNL     1     -11.130  13.860  34.610  1.00  0.00    -0.374 N
ATOM     12  H4  UNL     1     -10.921  13.547  35.558  1.00  0.00     0.161 HD
BRANCH  11  13
HETATM   13  C10 UNL     1     -10.638  15.157  34.221  1.00  0.00     0.141 C
BRANCH  13  14
HETATM   14  C9  UNL     1      -9.160  15.077  33.938  1.00  0.00     0.144 C
BRANCH  14  15
HETATM   15  N3  UNL     1      -8.808  14.410  32.731  1.00  0.00    -0.341 N
HETATM   16  C8  UNL     1      -8.935  14.968  31.421  1.00  0.00     0.320 C
HETATM   17  N2  UNL     1      -8.559  14.214  30.311  1.00  0.00    -0.308 N
HETATM   18  O1  UNL     1      -9.388  16.131  31.349  1.00  0.00    -0.247 OA
ATOM     19  H2  UNL     1      -8.207  13.281  30.525  1.00  0.00     0.170 HD
ATOM     20  H3  UNL     1      -8.437  13.463  32.806  1.00  0.00     0.164 HD
BRANCH  17  21
HETATM   21  C7  UNL     1      -8.590  14.539  28.946  1.00  0.00     0.047 A
HETATM   22  C6  UNL     1      -9.628  14.037  28.144  1.00  0.00     0.005 A
HETATM   23  C5  UNL     1     -10.764  13.195  28.528  1.00  0.00     0.168 A
HETATM   24  C28 UNL     1      -9.670  14.346  26.806  1.00  0.00     0.077 A
HETATM   25  N1  UNL     1     -11.484  12.957  27.258  1.00  0.00    -0.344 N
HETATM   26  C29 UNL     1     -10.848  13.671  26.220  1.00  0.00     0.257 A
HETATM   27  O3  UNL     1     -11.159  13.773  24.995  1.00  0.00    -0.267 OA
HETATM   28  C25 UNL     1      -8.702  15.162  26.193  1.00  0.00     0.111 A
HETATM   29  C19 UNL     1      -7.695  15.649  26.974  1.00  0.00     0.067 A
HETATM   30  C18 UNL     1      -7.670  15.320  28.335  1.00  0.00     0.062 A
BRANCH  25  31
HETATM   31  C4  UNL     1     -12.653  12.092  27.137  1.00  0.00     0.126 C
BRANCH  31  32
HETATM   32  C3  UNL     1     -13.641  12.253  28.223  1.00  0.00     0.020 C
BRANCH  32  33
HETATM   33  C2  UNL     1     -14.340  13.548  28.372  1.00  0.00    -0.003 C
HETATM   34  C1  UNL     1     -15.495  13.573  29.320  1.00  0.00     0.005 C
ENDBRANCH  32  33
ENDBRANCH  31  32
ENDBRANCH  25  31
BRANCH  28  35
HETATM   35  O2  UNL     1      -8.819  15.423  24.840  1.00  0.00    -0.348 OA
BRANCH  35  36
HETATM   36  C26 UNL     1      -8.136  14.753  23.824  1.00  0.00     0.171 C
HETATM   37  C27 UNL     1      -8.780  15.128  22.489  1.00  0.00     0.034 C
ENDBRANCH  35  36
ENDBRANCH  28  35
BRANCH  29  38
HETATM   38  N7  UNL     1      -6.697  16.488  26.382  1.00  0.00    -0.375 N
HETATM   39  C20 UNL     1      -5.361  15.987  26.213  1.00  0.00     0.153 C
HETATM   40  C21 UNL     1      -4.302  16.986  26.509  1.00  0.00     0.291 C
HETATM   41  N8  UNL     1      -4.592  18.309  26.029  1.00  0.00     0.087 N
HETATM   42  C22 UNL     1      -4.186  18.549  24.678  1.00  0.00     0.310 C
HETATM   43  C23 UNL     1      -5.912  18.757  26.355  1.00  0.00     0.291 C
HETATM   44  C24 UNL     1      -7.008  17.824  25.930  1.00  0.00     0.153 C
ENDBRANCH  29  38
ENDBRANCH  17  21
ENDBRANCH  14  15
ENDBRANCH  13  14
ENDBRANCH  11  13
ENDBRANCH   1  11
TORSDOF 11
ENDMDL