MODEL 3
REMARK VINA RESULT: -9.710317108      2.211      9.630
REMARK  11 active torsions:
REMARK  status: ('A' for Active; 'I' for Inactive)
REMARK    1  A    between atoms: C2_2  and  C3_3
REMARK    2  A    between atoms: C3_3  and  C4_4
REMARK    3  A    between atoms: C4_4  and  N1_5
REMARK    4  A    between atoms: N1_5  and  C5_7
REMARK    5  A    between atoms: C5_7  and  C6_8
REMARK    6  A    between atoms: C7_9  and  N2_10
REMARK       I    between atoms: N3_13  and  C10_14
REMARK    7  A    between atoms: C10_14  and  C11_16
REMARK    8  A    between atoms: C11_16  and  C12_17
REMARK    9  A    between atoms: C11_16  and  N4_24
REMARK   10  A    between atoms: C12_17  and  C13_18
REMARK       I    between atoms: N4_24  and  C19_25
REMARK   11  A    between atoms: C19_25  and  C20_27
ROOT
HETATM    1  N2  UNL     1     -11.745  13.860  27.331  1.00  0.00    -0.374 N
HETATM    2  C8  UNL     1     -12.289  15.114  26.916  1.00  0.00     0.143 C
HETATM    3  C9  UNL     1     -11.121  16.042  26.625  1.00  0.00     0.146 C
HETATM    4  N3  UNL     1     -10.077  15.486  25.823  1.00  0.00    -0.343 N
HETATM    5  C10 UNL     1      -9.350  16.369  24.890  1.00  0.00     0.284 C
HETATM    6  O1  UNL     1      -9.702  17.354  24.519  1.00  0.00    -0.265 OA
HETATM    7  C27 UNL     1      -9.879  14.081  25.720  1.00  0.00     0.146 C
HETATM    8  C28 UNL     1     -10.800  13.192  26.481  1.00  0.00     0.143 C
ENDROOT
BRANCH   5   9
HETATM    9  C11 UNL     1      -8.011  15.603  24.490  1.00  0.00     0.175 C
BRANCH   9  10
HETATM   10  C12 UNL     1      -8.316  14.938  23.238  1.00  0.00     0.033 C
BRANCH  10  11
HETATM   11  C13 UNL     1      -8.298  15.396  21.884  1.00  0.00    -0.023 C
HETATM   12  C14 UNL     1      -7.460  14.304  21.130  1.00  0.00     0.019 C
HETATM   13  C15 UNL     1      -9.485  15.534  21.018  1.00  0.00     0.013 C
HETATM   14  C16 UNL     1      -8.853  16.036  19.703  1.00  0.00     0.001 C
HETATM   15  C17 UNL     1      -7.522  16.603  20.044  1.00  0.00     0.001 C
HETATM   16  C18 UNL     1      -7.545  16.687  21.556  1.00  0.00     0.013 C
ENDBRANCH  10  11
ENDBRANCH   9  10
BRANCH   9  17
HETATM   17  N4  UNL     1      -6.954  15.788  25.227  1.00  0.00    -0.361 NA
HETATM   18  C19 UNL     1      -5.785  15.989  26.051  1.00  0.00     0.328 C
HETATM   19  O2  UNL     1      -5.582  15.564  27.131  1.00  0.00    -0.251 OA
BRANCH  18  20
HETATM   20  C20 UNL     1      -4.770  16.870  25.433  1.00  0.00     0.074 A
HETATM   21  C21 UNL     1      -3.730  16.269  24.720  1.00  0.00     0.044 A
HETATM   22  C22 UNL     1      -2.972  17.011  23.849  1.00  0.00     0.006 A
HETATM   23  C23 UNL     1      -1.872  16.400  23.031  1.00  0.00     0.068 C
HETATM   24  N5  UNL     1      -3.221  18.303  23.690  1.00  0.00    -0.362 N
HETATM   25  C24 UNL     1      -4.229  18.906  24.378  1.00  0.00     0.031 A
ATOM     26  H5  UNL     1      -2.652  18.851  23.045  1.00  0.00     0.165 HD
HETATM   27  C25 UNL     1      -4.460  20.351  24.131  1.00  0.00     0.070 C
HETATM   28  C26 UNL     1      -4.986  18.196  25.238  1.00  0.00     0.085 A
HETATM   29  N6  UNL     1      -6.020  18.807  26.029  1.00  0.00    -0.099 NA
ENDBRANCH  18  20
ENDBRANCH   9  17
ENDBRANCH   5   9
BRANCH   1  30
HETATM   30  C7  UNL     1     -12.041  13.277  28.595  1.00  0.00     0.101 A
HETATM   31  C6  UNL     1     -11.755  13.511  29.892  1.00  0.00     0.064 A
HETATM   32  C30 UNL     1     -12.674  12.534  30.282  1.00  0.00     0.237 A
HETATM   33  C29 UNL     1     -12.951  12.308  28.950  1.00  0.00     0.250 A
HETATM   34  O4  UNL     1     -13.078  12.047  31.363  1.00  0.00    -0.283 OA
HETATM   35  O3  UNL     1     -13.742  11.511  28.382  1.00  0.00    -0.282 OA
BRANCH  31  36
HETATM   36  C5  UNL     1     -10.770  14.252  30.742  1.00  0.00     0.105 C
BRANCH  36  37
HETATM   37  N1  UNL     1      -9.500  13.659  30.800  1.00  0.00    -0.378 N
ATOM     38  H1  UNL     1      -9.225  12.962  30.107  1.00  0.00     0.164 HD
BRANCH  37  39
HETATM   39  C4  UNL     1      -8.607  14.037  31.828  1.00  0.00     0.060 C
BRANCH  39  40
HETATM   40  C3  UNL     1      -8.585  15.390  32.378  1.00  0.00     0.044 C
BRANCH  40  41
HETATM   41  C2  UNL     1      -9.136  15.656  33.721  1.00  0.00     0.001 C
HETATM   42  C1  UNL     1      -9.795  14.409  34.324  1.00  0.00     0.005 C
ENDBRANCH  40  41
ENDBRANCH  39  40
ENDBRANCH  37  39
ENDBRANCH  36  37
ENDBRANCH  31  36
ENDBRANCH   1  30
TORSDOF 11
ENDMDL