MODEL 4
REMARK VINA RESULT: -8.286474635      2.629      8.407
REMARK  13 active torsions:
REMARK  status: ('A' for Active; 'I' for Inactive)
REMARK    1  A    between atoms: C3_3  and  C5_5
REMARK    2  A    between atoms: C7_7  and  C8_8
REMARK    3  A    between atoms: C8_8  and  N1_9
REMARK    4  A    between atoms: N1_9  and  C10_11
REMARK    5  A    between atoms: C10_11  and  C11_12
REMARK    6  A    between atoms: C11_12  and  C12_13
REMARK    7  A    between atoms: C12_13  and  N2_14
REMARK    8  A    between atoms: N2_14  and  S1_16
REMARK    9  A    between atoms: S1_16  and  N3_18
REMARK   10  A    between atoms: N4_21  and  C15_22
REMARK   11  A    between atoms: C16_25  and  N6_26
REMARK   12  A    between atoms: C19_31  and  O2_32
REMARK   13  A    between atoms: C21_34  and  O3_35
ROOT
HETATM    1  N3  UNL     1     -12.532  12.651  28.286  1.00  0.00    -0.312 N
HETATM    2  C13 UNL     1     -12.178  12.040  27.051  1.00  0.00     0.155 C
HETATM    3  C14 UNL     1     -11.131  12.820  26.290  1.00  0.00     0.161 C
HETATM    4  N4  UNL     1     -11.403  14.234  26.245  1.00  0.00    -0.214 N
HETATM    5  C25 UNL     1     -12.580  14.718  26.921  1.00  0.00     0.161 C
HETATM    6  C26 UNL     1     -12.729  14.052  28.266  1.00  0.00     0.155 C
ENDROOT
BRANCH   4   7
HETATM    7  C15 UNL     1     -10.471  15.056  25.552  1.00  0.00     0.682 A
HETATM    8  N5  UNL     1     -10.040  16.248  26.002  1.00  0.00    -0.176 N
HETATM    9  C16 UNL     1      -9.146  17.013  25.338  1.00  0.00     0.127 A
ATOM     10  H5  UNL     1     -10.408  16.592  26.889  1.00  0.00     0.186 HD
HETATM   11  C17 UNL     1      -8.625  16.581  24.136  1.00  0.00     0.038 A
HETATM   12  C18 UNL     1      -7.711  17.273  23.380  1.00  0.00     0.057 A
HETATM   13  C24 UNL     1      -9.063  15.365  23.678  1.00  0.00     0.066 A
HETATM   14  C19 UNL     1      -7.193  16.830  22.182  1.00  0.00     0.102 A
HETATM   15  C21 UNL     1      -7.642  15.590  21.720  1.00  0.00     0.103 A
HETATM   16  C23 UNL     1      -8.556  14.879  22.457  1.00  0.00     0.070 A
HETATM   17  N7  UNL     1      -9.949  14.648  24.372  1.00  0.00    -0.191 N
ATOM     18  H7  UNL     1     -10.247  13.748  23.994  1.00  0.00     0.184 HD
BRANCH   9  19
HETATM   19  N6  UNL     1      -8.758  18.153  25.792  1.00  0.00    -0.384 N
ATOM     20  H62 UNL     1      -8.971  18.381  26.763  1.00  0.00     0.157 HD
ATOM     21  H61 UNL     1      -8.249  18.818  25.210  1.00  0.00     0.157 HD
ENDBRANCH   9  19
BRANCH  14  22
HETATM   22  O2  UNL     1      -6.268  17.569  21.448  1.00  0.00    -0.353 OA
HETATM   23  C20 UNL     1      -4.943  17.628  21.971  1.00  0.00     0.210 C
ENDBRANCH  14  22
BRANCH  15  24
HETATM   24  O3  UNL     1      -7.154  15.106  20.537  1.00  0.00    -0.353 OA
HETATM   25  C22 UNL     1      -7.555  15.449  19.248  1.00  0.00     0.210 C
ENDBRANCH  15  24
ENDBRANCH   4   7
BRANCH   1  26
HETATM   26  S1  UNL     1     -13.565  11.731  29.300  1.00  0.00     0.214 S
HETATM   27  O1  UNL     1     -14.873  12.459  29.521  1.00  0.00    -0.212 OA
BRANCH  26  28
HETATM   28  N2  UNL     1     -12.880  11.357  30.866  1.00  0.00    -0.323 N
ATOM     29  H2  UNL     1     -12.251  10.584  31.085  1.00  0.00     0.171 HD
BRANCH  28  30
HETATM   30  C12 UNL     1     -13.373  12.351  31.787  1.00  0.00     0.136 C
BRANCH  30  31
HETATM   31  C11 UNL     1     -12.260  12.937  32.664  1.00  0.00     0.064 C
BRANCH  31  32
HETATM   32  C10 UNL     1     -11.408  13.876  31.832  1.00  0.00     0.059 C
BRANCH  32  33
HETATM   33  N1  UNL     1     -10.081  14.020  32.281  1.00  0.00    -0.394 N
HETATM   34  C9  UNL     1      -9.742  13.444  33.518  1.00  0.00     0.148 C
BRANCH  33  35
HETATM   35  C8  UNL     1      -9.423  15.269  31.940  1.00  0.00     0.149 C
BRANCH  35  36
HETATM   36  C7  UNL     1      -8.547  15.082  30.763  1.00  0.00    -0.000 C
HETATM   37  C5  UNL     1      -8.793  15.579  29.578  1.00  0.00    -0.059 C
HETATM   38  C6  UNL     1      -9.995  16.377  29.252  1.00  0.00     0.048 C
BRANCH  37  39
HETATM   39  C3  UNL     1      -7.816  15.304  28.517  1.00  0.00    -0.060 C
HETATM   40  C2  UNL     1      -6.896  16.195  28.240  1.00  0.00    -0.024 C
HETATM   41  C1  UNL     1      -5.898  15.889  27.155  1.00  0.00     0.036 C
HETATM   42  C4  UNL     1      -7.883  14.023  27.787  1.00  0.00     0.048 C
ENDBRANCH  37  39
ENDBRANCH  35  36
ENDBRANCH  33  35
ENDBRANCH  32  33
ENDBRANCH  31  32
ENDBRANCH  30  31
ENDBRANCH  28  30
ENDBRANCH  26  28
ENDBRANCH   1  26
TORSDOF 13
ENDMDL