MODEL 4
REMARK VINA RESULT: -8.393390940      2.921      7.740
REMARK  15 active torsions:
REMARK  status: ('A' for Active; 'I' for Inactive)
REMARK    1  A    between atoms: C2_2  and  C3_3
REMARK    2  A    between atoms: C5_6  and  N1_7
REMARK    3  A    between atoms: N1_7  and  C6_8
REMARK    4  A    between atoms: C6_8  and  O1_9
REMARK    5  A    between atoms: C6_8  and  C7_11
REMARK    6  A    between atoms: C7_11  and  C8_12
REMARK    7  A    between atoms: C8_12  and  C9_13
REMARK       I    between atoms: C9_13  and  N2_15
REMARK    8  A    between atoms: N2_15  and  C10_17
REMARK    9  A    between atoms: C11_22  and  C12_23
REMARK   10  A    between atoms: C12_23  and  C13_24
REMARK   11  A    between atoms: C13_24  and  C14_25
REMARK   12  A    between atoms: C14_25  and  C15_26
REMARK   13  A    between atoms: C15_26  and  C16_27
REMARK       I    between atoms: N7_33  and  C18_35
REMARK   14  A    between atoms: C18_35  and  C19_37
REMARK   15  A    between atoms: C19_37  and  C20_38
ROOT
HETATM    1  C10 UNL     1      -8.975  14.244  29.625  1.00  0.00     0.167 A
HETATM    2  N3  UNL     1      -8.634  13.330  30.574  1.00  0.00    -0.279 N
ATOM      3  H3  UNL     1      -8.390  12.375  30.312  1.00  0.00     0.189 HD
HETATM    4  N4  UNL     1      -8.624  13.686  31.776  1.00  0.00    -0.296 N
ATOM      5  H4  UNL     1      -8.370  13.009  32.497  1.00  0.00     0.187 HD
HETATM    6  C11 UNL     1      -8.937  14.928  32.131  1.00  0.00     0.069 A
HETATM    7  S3  UNL     1      -9.268  15.618  30.606  1.00  0.00    -0.038 SA
ENDROOT
BRANCH   6   8
HETATM    8  C12 UNL     1      -8.955  15.501  33.526  1.00  0.00     0.066 C
BRANCH   8   9
HETATM    9  C13 UNL     1      -9.766  14.622  34.426  1.00  0.00     0.007 C
BRANCH   9  10
HETATM   10  C14 UNL     1     -11.228  14.750  34.138  1.00  0.00     0.007 C
BRANCH  10  11
HETATM   11  C15 UNL     1     -11.901  13.421  34.302  1.00  0.00     0.066 C
BRANCH  11  12
HETATM   12  C16 UNL     1     -12.365  12.933  32.977  1.00  0.00     0.069 A
HETATM   13  N5  UNL     1     -12.265  11.699  32.494  1.00  0.00    -0.296 N
HETATM   14  N6  UNL     1     -12.705  11.418  31.344  1.00  0.00    -0.279 N
ATOM     15  H5  UNL     1     -11.827  10.970  33.057  1.00  0.00     0.187 HD
HETATM   16  C17 UNL     1     -13.277  12.385  30.615  1.00  0.00     0.167 A
ATOM     17  H6  UNL     1     -12.627  10.470  30.977  1.00  0.00     0.189 HD
HETATM   18  N7  UNL     1     -13.784  12.266  29.407  1.00  0.00    -0.306 N
HETATM   19  S2  UNL     1     -13.148  13.724  31.667  1.00  0.00    -0.038 SA
HETATM   20  C18 UNL     1     -14.339  13.429  28.824  1.00  0.00     0.224 C
ATOM     21  H7  UNL     1     -13.778  11.374  28.912  1.00  0.00     0.171 HD
HETATM   22  O3  UNL     1     -15.156  14.084  29.527  1.00  0.00    -0.273 OA
BRANCH  20  23
HETATM   23  C19 UNL     1     -13.971  13.858  27.444  1.00  0.00     0.107 C
BRANCH  23  24
HETATM   24  C20 UNL     1     -12.754  13.169  26.906  1.00  0.00    -0.014 C
HETATM   25  C21 UNL     1     -13.090  12.186  25.808  1.00  0.00     0.010 C
HETATM   26  C22 UNL     1     -11.911  14.260  26.239  1.00  0.00     0.010 C
ENDBRANCH  23  24
ENDBRANCH  20  23
ENDBRANCH  11  12
ENDBRANCH  10  11
ENDBRANCH   9  10
ENDBRANCH   8   9
ENDBRANCH   6   8
BRANCH   1  27
HETATM   27  N2  UNL     1      -9.030  14.029  28.354  1.00  0.00    -0.306 N
HETATM   28  C9  UNL     1      -7.942  14.213  27.497  1.00  0.00     0.224 C
HETATM   29  O2  UNL     1      -7.654  13.296  26.660  1.00  0.00    -0.273 OA
ATOM     30  H2  UNL     1      -9.912  13.708  27.954  1.00  0.00     0.171 HD
BRANCH  28  31
HETATM   31  C8  UNL     1      -7.093  15.422  27.504  1.00  0.00     0.112 C
BRANCH  31  32
HETATM   32  C7  UNL     1      -7.998  16.670  27.341  1.00  0.00     0.109 C
BRANCH  32  33
HETATM   33  C6  UNL     1      -7.709  17.297  25.977  1.00  0.00     0.193 C
BRANCH  33  34
HETATM   34  N1  UNL     1      -7.789  16.758  24.818  1.00  0.00    -0.360 NA
BRANCH  34  35
HETATM   35  C5  UNL     1      -7.910  16.247  23.739  1.00  0.00     0.225 A
HETATM   36  S1  UNL     1      -7.731  14.581  23.240  1.00  0.00    -0.049 SA
HETATM   37  C4  UNL     1      -8.046  14.766  21.581  1.00  0.00     0.079 A
HETATM   38  C3  UNL     1      -8.277  16.111  21.485  1.00  0.00     0.018 A
HETATM   39  N8  UNL     1      -8.210  16.830  22.541  1.00  0.00    -0.328 N
ATOM     40  H8  UNL     1      -8.379  17.834  22.489  1.00  0.00     0.169 HD
BRANCH  38  41
HETATM   41  C2  UNL     1      -8.596  16.694  20.106  1.00  0.00     0.053 C
HETATM   42  C1  UNL     1      -8.670  15.603  19.090  1.00  0.00     0.011 C
ENDBRANCH  38  41
ENDBRANCH  34  35
ENDBRANCH  33  34
BRANCH  33  43
HETATM   43  O1  UNL     1      -7.348  18.541  26.121  1.00  0.00    -0.339 OA
ATOM     44  H1  UNL     1      -6.737  18.801  26.801  1.00  0.00     0.220 HD
ENDBRANCH  33  43
ENDBRANCH  32  33
ENDBRANCH  31  32
ENDBRANCH  28  31
ENDBRANCH   1  27
TORSDOF 15
ENDMDL