MODEL 1
REMARK VINA RESULT: -9.383490815      0.000      0.000
REMARK  13 active torsions:
REMARK  status: ('A' for Active; 'I' for Inactive)
REMARK    1  A    between atoms: C2_2  and  C3_3
REMARK    2  A    between atoms: C3_3  and  C4_4
REMARK    3  A    between atoms: C4_4  and  C5_5
REMARK    4  A    between atoms: C5_5  and  C6_6
REMARK    5  A    between atoms: C6_6  and  N1_7
REMARK    6  A    between atoms: C6_6  and  N2_17
REMARK       I    between atoms: N1_7  and  C7_9
REMARK    7  A    between atoms: C7_9  and  C8_11
REMARK    8  A    between atoms: C8_11  and  C9_13
REMARK       I    between atoms: N2_17  and  C13_19
REMARK    9  A    between atoms: C13_19  and  C14_21
REMARK   10  A    between atoms: C16_23  and  O4_24
REMARK   11  A    between atoms: O4_24  and  C17_25
REMARK   12  A    between atoms: C17_25  and  C18_26
REMARK       I    between atoms: C18_26  and  N3_28
REMARK   13  A    between atoms: C23_33  and  N4_34
ROOT
HETATM    1  C14 UNL     1      -9.549  15.129  25.952  1.00  0.00     0.072 A
HETATM    2  C15 UNL     1      -8.737  16.126  25.406  1.00  0.00     0.060 A
HETATM    3  C16 UNL     1      -8.405  16.113  24.074  1.00  0.00     0.114 A
HETATM    4  C23 UNL     1      -8.858  15.127  23.232  1.00  0.00     0.138 A
HETATM    5  N5  UNL     1      -9.652  14.152  23.768  1.00  0.00    -0.331 N
ATOM      6  H5  UNL     1     -10.003  13.405  23.168  1.00  0.00     0.168 HD
HETATM    7  C28 UNL     1      -9.983  14.159  25.093  1.00  0.00     0.131 A
HETATM    8  C29 UNL     1     -10.821  13.106  25.600  1.00  0.00     0.118 C
HETATM    9  N6  UNL     1     -11.467  12.262  26.008  1.00  0.00    -0.190 NA
ENDROOT
BRANCH   1  10
HETATM   10  C13 UNL     1      -9.887  15.120  27.361  1.00  0.00     0.256 C
HETATM   11  N2  UNL     1      -9.296  14.381  28.382  1.00  0.00    -0.336 N
ATOM     12  H2  UNL     1      -8.526  13.770  28.106  1.00  0.00     0.164 HD
HETATM   13  O3  UNL     1     -10.849  15.905  27.648  1.00  0.00    -0.267 OA
BRANCH  11  14
HETATM   14  C6  UNL     1      -9.640  14.374  29.788  1.00  0.00     0.187 C
BRANCH  14  15
HETATM   15  C5  UNL     1      -8.578  13.685  30.633  1.00  0.00     0.047 C
BRANCH  15  16
HETATM   16  C4  UNL     1      -8.613  14.016  32.070  1.00  0.00     0.004 C
BRANCH  16  17
HETATM   17  C3  UNL     1      -8.637  15.507  32.297  1.00  0.00    -0.000 C
BRANCH  17  18
HETATM   18  C2  UNL     1      -9.371  15.865  33.567  1.00  0.00    -0.005 C
HETATM   19  C1  UNL     1      -9.704  14.594  34.304  1.00  0.00     0.005 C
ENDBRANCH  17  18
ENDBRANCH  16  17
ENDBRANCH  15  16
ENDBRANCH  14  15
BRANCH  14  20
HETATM   20  N1  UNL     1     -10.879  13.624  29.878  1.00  0.00    -0.333 N
HETATM   21  C7  UNL     1     -12.001  13.977  30.655  1.00  0.00     0.289 C
HETATM   22  O1  UNL     1     -12.038  15.014  31.355  1.00  0.00    -0.264 OA
ATOM     23  H1  UNL     1     -10.944  12.765  29.331  1.00  0.00     0.165 HD
BRANCH  21  24
HETATM   24  C8  UNL     1     -13.175  13.124  30.668  1.00  0.00     0.224 C
HETATM   25  O2  UNL     1     -13.517  12.598  31.785  1.00  0.00    -0.286 OA
BRANCH  24  26
HETATM   26  C9  UNL     1     -13.954  12.870  29.444  1.00  0.00     0.019 C
HETATM   27  C10 UNL     1     -13.673  13.854  28.332  1.00  0.00     0.023 C
HETATM   28  C11 UNL     1     -13.710  11.445  29.008  1.00  0.00     0.023 C
HETATM   29  C12 UNL     1     -15.446  13.006  29.752  1.00  0.00     0.023 C
ENDBRANCH  24  26
ENDBRANCH  21  24
ENDBRANCH  14  20
ENDBRANCH  11  14
ENDBRANCH   1  10
BRANCH   4  30
HETATM   30  N4  UNL     1      -8.544  15.098  21.851  1.00  0.00    -0.365 N
HETATM   31  C24 UNL     1      -7.530  14.278  21.259  1.00  0.00     0.124 C
HETATM   32  C25 UNL     1      -6.918  15.174  20.210  1.00  0.00     0.021 C
HETATM   33  C26 UNL     1      -8.050  16.091  19.824  1.00  0.00     0.021 C
HETATM   34  C27 UNL     1      -9.164  15.869  20.827  1.00  0.00     0.124 C
ENDBRANCH   4  30
BRANCH   3  35
HETATM   35  O4  UNL     1      -7.581  17.134  23.572  1.00  0.00    -0.338 OA
BRANCH  35  36
HETATM   36  C17 UNL     1      -6.192  16.926  23.393  1.00  0.00     0.278 C
BRANCH  36  37
HETATM   37  C18 UNL     1      -5.473  17.877  24.289  1.00  0.00     0.244 C
HETATM   38  O5  UNL     1      -5.229  19.056  23.933  1.00  0.00    -0.271 OA
HETATM   39  N3  UNL     1      -5.037  17.483  25.591  1.00  0.00    -0.350 N
HETATM   40  C19 UNL     1      -4.389  18.287  26.594  1.00  0.00     0.126 C
HETATM   41  C22 UNL     1      -5.184  16.113  26.079  1.00  0.00     0.126 C
HETATM   42  C20 UNL     1      -4.688  17.603  27.885  1.00  0.00     0.021 C
HETATM   43  C21 UNL     1      -4.546  16.129  27.462  1.00  0.00     0.021 C
ENDBRANCH  36  37
ENDBRANCH  35  36
ENDBRANCH   3  35
TORSDOF 13
ENDMDL