MODEL 1
REMARK VINA RESULT: -6.192769132      0.000      0.000
REMARK  1 active torsions:
REMARK  status: ('A' for Active; 'I' for Inactive)
REMARK       I    between atoms: C1_4  and  N3_6
REMARK    1  A    between atoms: N3_6  and  C2_8
ROOT
HETATM    1  N1  UNL     1       4.060  16.919  47.812  1.00  0.00    -0.374 N
ATOM      2  H11 UNL     1       4.875  16.306  47.828  1.00  0.00     0.158 HD
ATOM      3  H12 UNL     1       4.053  17.778  48.363  1.00  0.00     0.158 HD
HETATM    4  C1  UNL     1       3.061  16.568  47.079  1.00  0.00     0.185 C
HETATM    5  N2  UNL     1       1.928  17.420  47.056  1.00  0.00    -0.064 NA
HETATM    6  N3  UNL     1       3.071  15.390  46.323  1.00  0.00    -0.341 N
ATOM      7  H3  UNL     1       2.742  14.528  46.756  1.00  0.00     0.167 HD
ENDROOT
BRANCH   6   8
HETATM    8  C2  UNL     1       3.522  15.348  44.971  1.00  0.00     0.093 C
HETATM    9  C3  UNL     1       4.077  14.292  44.442  1.00  0.00    -0.065 C
HETATM   10  C4  UNL     1       4.517  14.339  43.024  1.00  0.00     0.035 C
HETATM   11  C8  UNL     1       4.239  13.092  45.294  1.00  0.00     0.035 C
HETATM   12  C5  UNL     1       4.207  12.991  42.411  1.00  0.00     0.004 C
HETATM   13  C6  UNL     1       5.046  11.972  43.195  1.00  0.00     0.001 C
HETATM   14  C7  UNL     1       4.386  11.823  44.538  1.00  0.00     0.004 C
ENDBRANCH   6   8
TORSDOF 1
ENDMDL