MODEL 2
REMARK VINA RESULT: -4.536167833      2.027      3.453
REMARK  2 active torsions:
REMARK  status: ('A' for Active; 'I' for Inactive)
REMARK    1  A    between atoms: C2_2  and  N1_3
REMARK    2  A    between atoms: C5_9  and  O1_11
ROOT
HETATM    1  C1  UNL     1       7.983  10.067  44.164  1.00  0.00     0.046 C
HETATM    2  C2  UNL     1       6.692  10.466  44.891  1.00  0.00     0.120 C
HETATM    3  C3  UNL     1       6.705  11.954  45.013  1.00  0.00     0.041 C
HETATM    4  C4  UNL     1       6.268  12.660  43.744  1.00  0.00     0.040 C
HETATM    5  C5  UNL     1       4.826  12.187  43.519  1.00  0.00     0.054 C
HETATM    6  C6  UNL     1       4.206  13.039  42.476  1.00  0.00     0.045 C
HETATM    7  C7  UNL     1       4.913  10.740  43.126  1.00  0.00     0.040 C
HETATM    8  C8  UNL     1       5.548   9.892  44.156  1.00  0.00     0.041 C
ENDROOT
BRANCH   2   9
HETATM    9  N1  UNL     1       6.755   9.936  46.264  1.00  0.00    -0.071 N
ATOM     10  H13 UNL     1       7.586   9.367  46.428  1.00  0.00     0.275 HD
ATOM     11  H12 UNL     1       6.946  10.660  46.957  1.00  0.00     0.275 HD
ATOM     12  H11 UNL     1       5.888   9.430  46.450  1.00  0.00     0.275 HD
ENDBRANCH   2   9
BRANCH   5  13
HETATM   13  O1  UNL     1       4.158  12.249  44.742  1.00  0.00    -0.390 OA
ATOM     14  H1  UNL     1       4.250  13.132  45.081  1.00  0.00     0.210 HD
ENDBRANCH   5  13
TORSDOF 2
ENDMDL