MODEL 3
REMARK VINA RESULT: -5.480229775      1.627      3.055
REMARK  2 active torsions:
REMARK  status: ('A' for Active; 'I' for Inactive)
REMARK    1  A    between atoms: N1_1  and  C1_5
REMARK    2  A    between atoms: N2_13  and  O1_14
ROOT
HETATM    1  C1  UNL     1       6.363   9.483  45.979  1.00  0.00     0.282 C
HETATM    2  C2  UNL     1       7.104   9.297  44.730  1.00  0.00     0.051 C
HETATM    3  C3  UNL     1       6.617  10.025  43.522  1.00  0.00     0.008 C
HETATM    4  C4  UNL     1       6.945  11.477  43.491  1.00  0.00    -0.013 C
HETATM    5  C5  UNL     1       5.666  12.251  43.185  1.00  0.00     0.006 C
HETATM    6  C6  UNL     1       4.909  12.083  44.481  1.00  0.00     0.022 C
HETATM    7  C7  UNL     1       5.970  11.852  45.562  1.00  0.00     0.089 C
HETATM    8  C8  UNL     1       7.281  11.968  44.873  1.00  0.00     0.027 C
HETATM    9  N2  UNL     1       5.679  10.672  46.224  1.00  0.00    -0.164 NA
ENDROOT
BRANCH   1  10
HETATM   10  N1  UNL     1       7.313   9.287  47.095  1.00  0.00    -0.061 N
ATOM     11  H13 UNL     1       7.437   8.305  47.343  1.00  0.00     0.276 HD
ATOM     12  H12 UNL     1       8.279   9.483  46.833  1.00  0.00     0.276 HD
ATOM     13  H11 UNL     1       6.990   9.856  47.877  1.00  0.00     0.276 HD
ENDBRANCH   1  10
BRANCH   9  14
HETATM   14  O1  UNL     1       5.586  10.881  47.561  1.00  0.00    -0.311 OA
ATOM     15  H1  UNL     1       5.076  10.187  47.961  1.00  0.00     0.237 HD
ENDBRANCH   9  14
TORSDOF 2
ENDMDL