MODEL 5
REMARK VINA RESULT: -4.810507905      2.347      3.450
REMARK  1 active torsions:
REMARK  status: ('A' for Active; 'I' for Inactive)
REMARK    1  A    between atoms: O1_1  and  C1_3
ROOT
HETATM    1  C1  UNL     1       4.030  14.447  43.930  1.00  0.00     0.122 C
HETATM    2  C2  UNL     1       4.049  13.051  44.459  1.00  0.00     0.032 C
HETATM    3  C3  UNL     1       5.435  12.508  44.683  1.00  0.00     0.002 C
HETATM    4  C4  UNL     1       5.608  11.096  44.198  1.00  0.00     0.002 C
HETATM    5  C5  UNL     1       5.002  10.821  42.870  1.00  0.00     0.020 C
HETATM    6  C6  UNL     1       5.325  11.896  41.838  1.00  0.00     0.118 C
HETATM    7  N1  UNL     1       4.149  12.560  41.426  1.00  0.00    -0.402 N
ATOM      8  H1  UNL     1       3.339  12.030  41.103  1.00  0.00     0.158 HD
HETATM    9  C7  UNL     1       4.115  13.956  41.469  1.00  0.00     0.058 C
HETATM   10  C8  UNL     1       4.732  14.638  42.628  1.00  0.00     0.075 C
ENDROOT
BRANCH   1  11
HETATM   11  O1  UNL     1       2.737  14.914  43.880  1.00  0.00    -0.395 OA
ATOM     12  H1  UNL     1       2.601  15.566  44.556  1.00  0.00     0.210 HD
ENDBRANCH   1  11
TORSDOF 1
ENDMDL