MODEL 2
REMARK VINA RESULT: -5.544615061      1.800      3.076
REMARK  2 active torsions:
REMARK  status: ('A' for Active; 'I' for Inactive)
REMARK    1  A    between atoms: C6_6  and  N1_7
REMARK    2  A    between atoms: C7_11  and  O1_12
ROOT
HETATM    1  C1  UNL     1       6.015  11.728  45.518  1.00  0.00     0.010 C
HETATM    2  C2  UNL     1       5.505  12.320  44.197  1.00  0.00    -0.016 C
HETATM    3  C3  UNL     1       4.907  11.248  43.351  1.00  0.00     0.004 C
HETATM    4  C4  UNL     1       5.132  11.448  41.876  1.00  0.00     0.002 C
HETATM    5  C5  UNL     1       4.466  12.650  41.312  1.00  0.00     0.035 C
HETATM    6  C6  UNL     1       4.533  13.870  42.175  1.00  0.00     0.212 C
HETATM    7  C7  UNL     1       3.624  13.725  43.381  1.00  0.00     0.148 C
HETATM    8  C8  UNL     1       4.375  13.270  44.593  1.00  0.00     0.038 C
ENDROOT
BRANCH   6   9
HETATM    9  N1  UNL     1       3.979  14.980  41.379  1.00  0.00    -0.073 N
ATOM     10  H13 UNL     1       3.292  15.537  41.889  1.00  0.00     0.274 HD
ATOM     11  H12 UNL     1       4.650  15.729  41.210  1.00  0.00     0.274 HD
ATOM     12  H11 UNL     1       3.609  14.569  40.523  1.00  0.00     0.274 HD
ENDBRANCH   6   9
BRANCH   7  13
HETATM   13  O1  UNL     1       2.949  14.922  43.618  1.00  0.00    -0.393 OA
ATOM     14  H1  UNL     1       2.370  14.827  44.365  1.00  0.00     0.210 HD
ENDBRANCH   7  13
TORSDOF 2
ENDMDL