MODEL 3
REMARK VINA RESULT: -5.203638014      1.028      1.097
REMARK  1 active torsions:
REMARK  status: ('A' for Active; 'I' for Inactive)
REMARK    1  A    between atoms: O1_1  and  C1_3
ROOT
HETATM    1  C1  UNL     1       7.139  10.646  44.538  1.00  0.00     0.321 C
HETATM    2  C2  UNL     1       6.999  11.904  43.668  1.00  0.00     0.100 C
HETATM    3  C3  UNL     1       5.533  11.521  43.720  1.00  0.00     0.132 C
HETATM    4  C4  UNL     1       4.744  11.801  42.491  1.00  0.00     0.039 C
HETATM    5  C5  UNL     1       4.563  13.260  42.249  1.00  0.00     0.002 C
HETATM    6  C6  UNL     1       4.573  14.041  43.550  1.00  0.00     0.000 C
HETATM    7  C7  UNL     1       3.993  13.202  44.688  1.00  0.00     0.002 C
HETATM    8  C8  UNL     1       4.903  12.039  44.969  1.00  0.00     0.039 C
HETATM    9  N1  UNL     1       5.990  10.124  43.797  1.00  0.00    -0.040 N
ATOM     10  H11 UNL     1       5.397   9.386  44.176  1.00  0.00     0.281 HD
ATOM     11  H12 UNL     1       6.105   9.551  42.961  1.00  0.00     0.281 HD
ENDROOT
BRANCH   1  12
HETATM   12  O1  UNL     1       8.326   9.988  44.296  1.00  0.00    -0.370 OA
ATOM     13  H1  UNL     1       8.263   9.412  43.543  1.00  0.00     0.212 HD
ENDBRANCH   1  12
TORSDOF 1
ENDMDL