MODEL 3
REMARK VINA RESULT: -5.520114124      3.913      4.253
REMARK  1 active torsions:
REMARK  status: ('A' for Active; 'I' for Inactive)
REMARK       I    between atoms: C1_2  and  N1_3
REMARK       I    between atoms: C1_2  and  N2_10
REMARK    1  A    between atoms: N2_10  and  O2_12
ROOT
HETATM    1  O1  UNL     1       6.542   7.902  45.164  1.00  0.00    -0.245 OA
HETATM    2  C1  UNL     1       6.968   8.846  45.862  1.00  0.00     0.343 C
HETATM    3  N1  UNL     1       6.232  10.025  45.967  1.00  0.00    -0.315 N
ATOM      4  H1  UNL     1       5.842  10.250  46.882  1.00  0.00     0.170 HD
HETATM    5  C2  UNL     1       6.003  10.853  45.013  1.00  0.00    -0.009 C
HETATM    6  C3  UNL     1       6.400  10.854  43.591  1.00  0.00     0.052 C
HETATM    7  C4  UNL     1       5.441  11.803  42.893  1.00  0.00     0.006 C
HETATM    8  C5  UNL     1       5.277  12.881  43.951  1.00  0.00     0.006 C
HETATM    9  C6  UNL     1       5.205  12.090  45.218  1.00  0.00     0.052 C
HETATM   10  N2  UNL     1       8.198   8.734  46.553  1.00  0.00    -0.219 N
ATOM     11  H2  UNL     1       8.527   9.519  47.117  1.00  0.00     0.199 HD
ENDROOT
BRANCH  10  12
HETATM   12  O2  UNL     1       8.959   7.594  46.481  1.00  0.00    -0.286 OA
ATOM     13  H2  UNL     1       8.569   6.732  46.566  1.00  0.00     0.244 HD
ENDBRANCH  10  12
TORSDOF 1
ENDMDL