MODEL 1
REMARK VINA RESULT: -5.794777447      0.000      0.000
REMARK  2 active torsions:
REMARK  status: ('A' for Active; 'I' for Inactive)
REMARK    1  A    between atoms: C3_3  and  N2_7
REMARK    2  A    between atoms: N2_7  and  C4_9
ROOT
HETATM    1  C1  UNL     1       8.385  11.634  43.698  1.00  0.00     0.021 C
HETATM    2  C2  UNL     1       7.472  11.331  44.429  1.00  0.00    -0.042 C
HETATM    3  C3  UNL     1       6.361  10.977  45.290  1.00  0.00     0.150 C
HETATM    4  N1  UNL     1       6.572  10.208  46.305  1.00  0.00    -0.379 N
ATOM      5  H11 UNL     1       5.790   9.959  46.911  1.00  0.00     0.158 HD
ATOM      6  H12 UNL     1       7.516   9.864  46.484  1.00  0.00     0.158 HD
ENDROOT
BRANCH   3   7
HETATM    7  N2  UNL     1       5.058  11.452  45.044  1.00  0.00    -0.365 N
ATOM      8  H2  UNL     1       4.273  10.831  45.237  1.00  0.00     0.162 HD
BRANCH   7   9
HETATM    9  C4  UNL     1       4.776  12.774  44.530  1.00  0.00     0.083 C
HETATM   10  C5  UNL     1       3.697  13.482  45.330  1.00  0.00     0.025 C
HETATM   11  C6  UNL     1       3.154  14.584  44.439  1.00  0.00     0.002 C
HETATM   12  C7  UNL     1       4.295  15.159  43.629  1.00  0.00     0.000 C
HETATM   13  C8  UNL     1       4.642  14.161  42.532  1.00  0.00     0.002 C
HETATM   14  C9  UNL     1       4.359  12.764  43.098  1.00  0.00     0.025 C
ENDBRANCH   7   9
ENDBRANCH   3   7
TORSDOF 2
ENDMDL