MODEL 5
REMARK VINA RESULT: -5.099549624      1.736      2.224
REMARK  1 active torsions:
REMARK  status: ('A' for Active; 'I' for Inactive)
REMARK    1  A    between atoms: N2_4  and  N3_6
ROOT
HETATM    1  N3  UNL     1       6.610   9.752  45.135  1.00  0.00    -0.262 N
HETATM    2  C1  UNL     1       7.092   9.449  43.840  1.00  0.00     0.098 C
HETATM    3  N4  UNL     1       7.835   8.473  43.529  1.00  0.00    -0.387 N
ATOM      4  H41 UNL     1       8.183   8.254  42.595  1.00  0.00     0.157 HD
ATOM      5  H42 UNL     1       8.170   7.788  44.206  1.00  0.00     0.157 HD
HETATM    6  C2  UNL     1       6.594  10.468  42.833  1.00  0.00     0.054 C
HETATM    7  C3  UNL     1       5.098  10.504  43.077  1.00  0.00     0.014 C
HETATM    8  C4  UNL     1       4.857  11.277  44.348  1.00  0.00     0.028 C
HETATM    9  C5  UNL     1       6.044  11.069  45.268  1.00  0.00     0.111 C
HETATM   10  C6  UNL     1       7.142  11.986  44.702  1.00  0.00     0.028 C
HETATM   11  C7  UNL     1       7.229  11.784  43.223  1.00  0.00     0.014 C
ENDROOT
BRANCH   1  12
HETATM   12  N2  UNL     1       6.662   8.889  46.196  1.00  0.00    -0.245 N
HETATM   13  N1  UNL     1       6.996   9.297  47.344  1.00  0.00    -0.331 N
ATOM     14  H12 UNL     1       7.226  10.284  47.464  1.00  0.00     0.178 HD
ATOM     15  H11 UNL     1       7.034   8.654  48.135  1.00  0.00     0.178 HD
ATOM     16  H2  UNL     1       6.429   7.905  46.059  1.00  0.00     0.208 HD
ENDBRANCH   1  12
TORSDOF 1
ENDMDL