MODEL 5
REMARK VINA RESULT: -4.746881374      2.092      4.147
REMARK  1 active torsions:
REMARK  status: ('A' for Active; 'I' for Inactive)
REMARK       I    between atoms: C2_2  and  N1_4
REMARK       I    between atoms: N1_4  and  C3_6
REMARK       I    between atoms: C3_6  and  N3_10
REMARK    1  A    between atoms: N3_10  and  C4_12
ROOT
HETATM    1  C1  UNL     1       3.957  12.478  47.209  1.00  0.00     0.118 C
HETATM    2  C2  UNL     1       5.081  11.758  46.526  1.00  0.00     0.231 C
HETATM    3  O1  UNL     1       5.539  12.290  45.486  1.00  0.00    -0.273 OA
HETATM    4  N1  UNL     1       5.606  10.546  47.016  1.00  0.00    -0.161 N
ATOM      5  H1  UNL     1       5.201  10.150  47.865  1.00  0.00     0.187 HD
HETATM    6  C3  UNL     1       6.656   9.857  46.394  1.00  0.00     0.674 C
HETATM    7  N2  UNL     1       7.096   8.756  46.883  1.00  0.00    -0.235 N
ATOM      8  H21 UNL     1       7.860   8.254  46.431  1.00  0.00     0.174 HD
ATOM      9  H22 UNL     1       6.667   8.392  47.734  1.00  0.00     0.174 HD
HETATM   10  N3  UNL     1       7.247  10.359  45.221  1.00  0.00    -0.218 N
ATOM     11  H3  UNL     1       7.719  11.261  45.275  1.00  0.00     0.178 HD
ENDROOT
BRANCH  10  12
HETATM   12  C4  UNL     1       7.229   9.685  43.947  1.00  0.00     0.036 C
HETATM   13  C5  UNL     1       5.801   9.615  43.454  1.00  0.00     0.038 C
HETATM   14  C6  UNL     1       7.988  10.620  42.991  1.00  0.00     0.038 C
HETATM   15  C7  UNL     1       7.867   8.331  43.945  1.00  0.00     0.038 C
ENDBRANCH  10  12
TORSDOF 1
ENDMDL