MODEL 2
REMARK VINA RESULT: -5.549066463      1.297      2.511
REMARK  1 active torsions:
REMARK  status: ('A' for Active; 'I' for Inactive)
REMARK    1  A    between atoms: O1_1  and  C1_3
ROOT
HETATM    1  C1  UNL     1       4.284  12.076  46.272  1.00  0.00     0.153 C
HETATM    2  C2  UNL     1       3.885  13.420  46.894  1.00  0.00     0.064 C
HETATM    3  C3  UNL     1       3.265  14.115  45.710  1.00  0.00     0.275 C
HETATM    4  N1  UNL     1       3.819  13.480  44.519  1.00  0.00     0.095 N
HETATM    5  C4  UNL     1       4.363  14.442  43.613  1.00  0.00     0.273 C
HETATM    6  C5  UNL     1       4.283  14.064  42.175  1.00  0.00     0.030 C
HETATM    7  C6  UNL     1       4.424  12.604  41.906  1.00  0.00     0.002 C
HETATM    8  C7  UNL     1       5.527  11.949  42.673  1.00  0.00     0.002 C
HETATM    9  C8  UNL     1       5.128  11.462  44.027  1.00  0.00     0.038 C
HETATM   10  C9  UNL     1       4.857  12.598  44.953  1.00  0.00     0.251 C
ENDROOT
BRANCH   1  11
HETATM   11  O1  UNL     1       5.207  11.402  47.024  1.00  0.00    -0.393 OA
ATOM     12  H1  UNL     1       5.920  11.959  47.312  1.00  0.00     0.210 HD
ENDBRANCH   1  11
TORSDOF 1
ENDMDL