MODEL 2
REMARK VINA RESULT: -5.801442390      0.937      3.266
REMARK  1 active torsions:
REMARK  status: ('A' for Active; 'I' for Inactive)
REMARK    1  A    between atoms: O1_1  and  C1_3
ROOT
HETATM    1  C1  UNL     1       4.490  12.085  45.372  1.00  0.00     0.152 C
HETATM    2  C2  UNL     1       4.702  12.961  44.219  1.00  0.00     0.021 A
HETATM    3  C3  UNL     1       4.297  12.943  42.871  1.00  0.00     0.012 A
HETATM    4  C4  UNL     1       5.254  11.947  43.156  1.00  0.00    -0.007 A
HETATM    5  C5  UNL     1       6.683  11.951  43.475  1.00  0.00     0.012 C
HETATM    6  C6  UNL     1       6.860  11.336  44.837  1.00  0.00     0.019 C
HETATM    7  C7  UNL     1       6.740   9.828  44.820  1.00  0.00     0.033 C
HETATM    8  C8  UNL     1       6.532   9.607  46.327  1.00  0.00     0.168 C
HETATM    9  O2  UNL     1       5.830  10.687  46.790  1.00  0.00    -0.383 OA
HETATM   10  C9  UNL     1       5.890  11.708  45.881  1.00  0.00     0.154 C
ENDROOT
BRANCH   1  11
HETATM   11  O1  UNL     1       3.782  12.685  46.383  1.00  0.00    -0.393 OA
ATOM     12  H1  UNL     1       2.943  13.030  46.098  1.00  0.00     0.210 HD
ENDBRANCH   1  11
TORSDOF 1
ENDMDL