MODEL 3
REMARK VINA RESULT: -5.016128246      1.496      1.732
REMARK  1 active torsions:
REMARK  status: ('A' for Active; 'I' for Inactive)
REMARK    1  A    between atoms: O1_1  and  C1_3
ROOT
HETATM    1  C1  UNL     1       6.889   9.321  44.183  1.00  0.00     0.153 C
HETATM    2  C2  UNL     1       7.139   8.787  42.764  1.00  0.00     0.038 C
HETATM    3  C3  UNL     1       7.447  10.247  42.397  1.00  0.00     0.044 C
HETATM    4  C4  UNL     1       6.413  10.567  43.482  1.00  0.00     0.090 C
HETATM    5  O2  UNL     1       5.144  10.508  42.966  1.00  0.00    -0.377 OA
HETATM    6  C5  UNL     1       4.939  11.834  42.527  1.00  0.00     0.174 C
HETATM    7  C6  UNL     1       5.315  12.605  43.777  1.00  0.00     0.016 C
HETATM    8  C7  UNL     1       4.669  12.056  45.005  1.00  0.00     0.007 C
HETATM    9  C8  UNL     1       6.053  11.829  45.586  1.00  0.00     0.009 C
HETATM   10  C9  UNL     1       6.593  11.857  44.181  1.00  0.00     0.029 C
ENDROOT
BRANCH   1  11
HETATM   11  O1  UNL     1       8.114   9.499  44.806  1.00  0.00    -0.393 OA
ATOM     12  H1  UNL     1       8.390   8.665  45.170  1.00  0.00     0.210 HD
ENDBRANCH   1  11
TORSDOF 1
ENDMDL