MODEL 5
REMARK VINA RESULT: -5.353943054      2.383      3.368
REMARK  1 active torsions:
REMARK  status: ('A' for Active; 'I' for Inactive)
REMARK    1  A    between atoms: C10_11  and  O1_12
ROOT
HETATM    1  N1  UNL     1       7.224   8.126  41.993  1.00  0.00    -0.196 NA
HETATM    2  C1  UNL     1       6.932   8.918  42.783  1.00  0.00     0.072 C
HETATM    3  C2  UNL     1       6.572   9.904  43.767  1.00  0.00     0.079 C
HETATM    4  C3  UNL     1       5.044  10.102  43.796  1.00  0.00     0.032 C
HETATM    5  C4  UNL     1       5.060  11.584  44.201  1.00  0.00    -0.008 C
HETATM    6  C5  UNL     1       5.936  12.043  43.015  1.00  0.00     0.011 C
HETATM    7  C6  UNL     1       7.171  11.257  43.500  1.00  0.00     0.011 C
HETATM    8  C7  UNL     1       7.342  12.037  44.810  1.00  0.00     0.011 C
HETATM    9  C8  UNL     1       5.952  11.726  45.398  1.00  0.00    -0.008 C
HETATM   10  C9  UNL     1       6.181  10.384  46.113  1.00  0.00     0.038 C
HETATM   11  C10 UNL     1       6.873   9.420  45.194  1.00  0.00     0.141 C
ENDROOT
BRANCH  11  12
HETATM   12  O1  UNL     1       8.196   9.218  45.430  1.00  0.00    -0.394 OA
ATOM     13  H1  UNL     1       8.588   9.886  45.979  1.00  0.00     0.210 HD
ENDBRANCH  11  12
TORSDOF 1
ENDMDL