MODEL 5
REMARK VINA RESULT: -4.869811329      1.284      2.076
REMARK  1 active torsions:
REMARK  status: ('A' for Active; 'I' for Inactive)
REMARK    1  A    between atoms: O1_1  and  C1_3
ROOT
HETATM    1  C1  UNL     1       7.374  10.015  43.887  1.00  0.00     0.127 C
HETATM    2  C2  UNL     1       7.881  11.429  43.921  1.00  0.00     0.064 C
HETATM    3  C3  UNL     1       6.906  12.235  44.746  1.00  0.00     0.128 C
HETATM    4  O2  UNL     1       6.613  11.427  45.864  1.00  0.00    -0.380 OA
HETATM    5  C4  UNL     1       5.496  10.678  45.425  1.00  0.00     0.129 C
HETATM    6  C5  UNL     1       4.611  11.862  45.001  1.00  0.00     0.039 C
HETATM    7  C6  UNL     1       5.621  12.527  44.050  1.00  0.00     0.017 C
HETATM    8  C7  UNL     1       5.462  11.804  42.732  1.00  0.00     0.008 C
HETATM    9  C8  UNL     1       5.148  10.334  42.961  1.00  0.00     0.010 C
HETATM   10  C9  UNL     1       5.910   9.907  44.219  1.00  0.00     0.043 C
ENDROOT
BRANCH   1  11
HETATM   11  O1  UNL     1       7.561   9.548  42.580  1.00  0.00    -0.395 OA
ATOM     12  H1  UNL     1       8.439   9.187  42.539  1.00  0.00     0.210 HD
ENDBRANCH   1  11
TORSDOF 1
ENDMDL