MODEL 3
REMARK VINA RESULT: -5.456764986      1.174      4.303
REMARK  1 active torsions:
REMARK  status: ('A' for Active; 'I' for Inactive)
REMARK    1  A    between atoms: O1_1  and  C1_3
ROOT
HETATM    1  C1  UNL     1       7.490   9.954  43.857  1.00  0.00     0.118 C
HETATM    2  C2  UNL     1       7.743  11.420  43.662  1.00  0.00     0.032 C
HETATM    3  C3  UNL     1       6.764  12.194  44.497  1.00  0.00     0.014 C
HETATM    4  C4  UNL     1       5.378  11.863  44.032  1.00  0.00    -0.017 C
HETATM    5  C5  UNL     1       4.392  12.460  45.037  1.00  0.00     0.038 C
HETATM    6  C6  UNL     1       4.065  13.777  44.370  1.00  0.00     0.168 C
HETATM    7  O2  UNL     1       3.970  13.418  43.012  1.00  0.00    -0.390 OA
HETATM    8  C7  UNL     1       5.044  12.585  42.751  1.00  0.00     0.177 C
HETATM    9  C8  UNL     1       5.098  10.392  43.963  1.00  0.00     0.014 C
HETATM   10  C9  UNL     1       6.151   9.608  43.237  1.00  0.00     0.032 C
ENDROOT
BRANCH   1  11
HETATM   11  O1  UNL     1       8.491   9.222  43.225  1.00  0.00    -0.396 OA
ATOM     12  H1  UNL     1       8.174   8.910  42.386  1.00  0.00     0.210 HD
ENDBRANCH   1  11
TORSDOF 1
ENDMDL