MODEL 1
REMARK VINA RESULT: -5.803233801      0.000      0.000
REMARK  1 active torsions:
REMARK  status: ('A' for Active; 'I' for Inactive)
REMARK    1  A    between atoms: O1_1  and  C1_3
ROOT
HETATM    1  C1  UNL     1       4.014  12.642  45.565  1.00  0.00     0.118 C
HETATM    2  C2  UNL     1       3.372  13.994  45.618  1.00  0.00     0.034 C
HETATM    3  C3  UNL     1       3.950  14.994  44.683  1.00  0.00     0.035 C
HETATM    4  C4  UNL     1       4.350  14.447  43.349  1.00  0.00     0.125 C
HETATM    5  O2  UNL     1       3.245  14.182  42.520  1.00  0.00    -0.385 OA
HETATM    6  C5  UNL     1       3.773  14.082  41.220  1.00  0.00     0.168 C
HETATM    7  C6  UNL     1       4.354  12.706  41.085  1.00  0.00     0.027 C
HETATM    8  C7  UNL     1       4.692  12.132  42.443  1.00  0.00     0.009 C
HETATM    9  C8  UNL     1       5.173  13.207  43.407  1.00  0.00     0.017 C
HETATM   10  C9  UNL     1       5.292  12.609  44.776  1.00  0.00     0.039 C
ENDROOT
BRANCH   1  11
HETATM   11  O1  UNL     1       4.342  12.228  46.877  1.00  0.00    -0.396 OA
ATOM     12  H1  UNL     1       4.616  11.319  46.860  1.00  0.00     0.210 HD
ENDBRANCH   1  11
TORSDOF 1
ENDMDL