MODEL 4
REMARK VINA RESULT: -4.999125314      1.526      2.482
REMARK  1 active torsions:
REMARK  status: ('A' for Active; 'I' for Inactive)
REMARK    1  A    between atoms: O1_1  and  C1_3
ROOT
HETATM    1  C1  UNL     1       6.225   9.533  45.166  1.00  0.00     0.147 C
HETATM    2  C2  UNL     1       5.290   9.685  43.981  1.00  0.00     0.039 C
HETATM    3  C3  UNL     1       5.741  10.791  43.048  1.00  0.00    -0.009 C
HETATM    4  C4  UNL     1       6.822  10.334  42.112  1.00  0.00     0.036 C
HETATM    5  C5  UNL     1       8.185  10.292  42.740  1.00  0.00     0.122 C
HETATM    6  C6  UNL     1       8.533  11.632  43.389  1.00  0.00     0.039 C
HETATM    7  C7  UNL     1       7.496  11.602  44.523  1.00  0.00     0.020 C
HETATM    8  C8  UNL     1       6.170  11.972  43.859  1.00  0.00     0.012 C
HETATM    9  C9  UNL     1       7.557  10.147  44.882  1.00  0.00     0.154 C
HETATM   10  O2  UNL     1       8.156   9.466  43.854  1.00  0.00    -0.378 OA
ENDROOT
BRANCH   1  11
HETATM   11  O1  UNL     1       6.448   8.149  45.338  1.00  0.00    -0.393 OA
ATOM     12  H1  UNL     1       6.842   8.036  46.195  1.00  0.00     0.210 HD
ENDBRANCH   1  11
TORSDOF 1
ENDMDL