MODEL 1
REMARK VINA RESULT: -5.104566743      0.000      0.000
REMARK  1 active torsions:
REMARK  status: ('A' for Active; 'I' for Inactive)
REMARK    1  A    between atoms: O1_1  and  C1_3
ROOT
HETATM    1  C1  UNL     1       6.320   9.594  45.865  1.00  0.00     0.151 C
HETATM    2  C2  UNL     1       5.806  10.892  45.320  1.00  0.00     0.020 C
HETATM    3  C3  UNL     1       5.069  10.564  44.017  1.00  0.00     0.012 C
HETATM    4  C4  UNL     1       6.005   9.930  43.032  1.00  0.00    -0.009 C
HETATM    5  C5  UNL     1       7.203  10.826  42.747  1.00  0.00     0.036 C
HETATM    6  C6  UNL     1       7.875  11.140  44.054  1.00  0.00     0.122 C
HETATM    7  C7  UNL     1       6.906  11.859  44.951  1.00  0.00     0.039 C
HETATM    8  O2  UNL     1       8.358   9.985  44.631  1.00  0.00    -0.378 OA
HETATM    9  C8  UNL     1       7.361   9.066  44.903  1.00  0.00     0.151 C
HETATM   10  C9  UNL     1       6.613   8.659  43.634  1.00  0.00     0.039 C
ENDROOT
BRANCH   1  11
HETATM   11  O1  UNL     1       6.792   9.710  47.158  1.00  0.00    -0.393 OA
ATOM     12  H1  UNL     1       7.711   9.950  47.192  1.00  0.00     0.210 HD
ENDBRANCH   1  11
TORSDOF 1
ENDMDL