MODEL 5
REMARK VINA RESULT: -4.811270188      5.047      6.284
REMARK  1 active torsions:
REMARK  status: ('A' for Active; 'I' for Inactive)
REMARK    1  A    between atoms: O1_1  and  C1_3
ROOT
HETATM    1  C1  UNL     1       7.115   9.140  44.066  1.00  0.00     0.064 A
HETATM    2  C2  UNL     1       6.358   8.108  44.913  1.00  0.00     0.039 A
HETATM    3  C3  UNL     1       6.586   8.965  46.163  1.00  0.00     0.011 A
HETATM    4  C4  UNL     1       7.265   9.954  45.291  1.00  0.00     0.026 A
HETATM    5  C5  UNL     1       6.645  11.318  45.178  1.00  0.00     0.019 C
HETATM    6  C6  UNL     1       5.172  11.285  44.920  1.00  0.00     0.173 C
HETATM    7  O2  UNL     1       4.965  11.536  43.571  1.00  0.00    -0.385 OA
HETATM    8  C7  UNL     1       6.170  11.173  42.921  1.00  0.00     0.124 C
HETATM    9  C8  UNL     1       7.172  11.876  43.845  1.00  0.00     0.039 C
HETATM   10  C9  UNL     1       6.281   9.697  42.987  1.00  0.00     0.070 C
ENDROOT
BRANCH   1  11
HETATM   11  O1  UNL     1       8.342   8.622  43.595  1.00  0.00    -0.389 OA
ATOM     12  H1  UNL     1       9.041   9.261  43.672  1.00  0.00     0.210 HD
ENDBRANCH   1  11
TORSDOF 1
ENDMDL