MODEL 3
REMARK VINA RESULT: -3.269827843      2.351      2.994
REMARK  0 active torsions:
REMARK  status: ('A' for Active; 'I' for Inactive)
ROOT
HETATM    1  S1  UNL     1       7.030  11.848  44.005  1.00  0.00    -0.091 SA
HETATM    2  C1  UNL     1       5.460  11.025  44.422  1.00  0.00     0.076 C
HETATM    3  C2  UNL     1       5.561   9.613  43.843  1.00  0.00     0.019 C
HETATM    4  C3  UNL     1       6.691   8.954  44.644  1.00  0.00     0.020 C
HETATM    5  C4  UNL     1       6.106   8.782  46.040  1.00  0.00     0.113 C
HETATM    6  N1  UNL     1       5.980  10.066  46.629  1.00  0.00    -0.420 N
ATOM      7  H1  UNL     1       6.384  10.277  47.541  1.00  0.00     0.153 HD
HETATM    8  C5  UNL     1       5.267  11.038  45.891  1.00  0.00     0.129 C
ENDROOT
TORSDOF 0
ENDMDL