MODEL 5
REMARK VINA RESULT: -5.140713638      2.340      3.098
REMARK  1 active torsions:
REMARK  status: ('A' for Active; 'I' for Inactive)
REMARK    1  A    between atoms: N1_1  and  C1_5
ROOT
HETATM    1  C1  UNL     1       3.184  14.587  44.668  1.00  0.00     0.278 C
HETATM    2  C2  UNL     1       2.804  14.436  43.188  1.00  0.00     0.054 C
HETATM    3  C3  UNL     1       3.952  13.997  42.334  1.00  0.00     0.004 C
HETATM    4  C4  UNL     1       4.202  12.598  41.969  1.00  0.00     0.011 C
HETATM    5  C5  UNL     1       4.823  11.694  43.086  1.00  0.00     0.081 C
HETATM    6  C6  UNL     1       4.248  12.157  44.281  1.00  0.00    -0.164 C
HETATM    7  C7  UNL     1       3.932  12.427  45.622  1.00  0.00     0.196 C
HETATM    8  N2  UNL     1       2.967  13.569  45.590  1.00  0.00    -0.387 N
ATOM      9  H2  UNL     1       2.171  13.601  46.227  1.00  0.00     0.156 HD
ENDROOT
BRANCH   1  10
HETATM   10  N1  UNL     1       2.385  15.726  45.200  1.00  0.00    -0.059 N
ATOM     11  H13 UNL     1       1.932  16.276  44.470  1.00  0.00     0.276 HD
ATOM     12  H12 UNL     1       1.536  15.432  45.683  1.00  0.00     0.276 HD
ATOM     13  H11 UNL     1       3.013  16.275  45.787  1.00  0.00     0.276 HD
ENDBRANCH   1  10
TORSDOF 1
ENDMDL