MODEL 5
REMARK VINA RESULT: -4.159822809      2.072      2.423
REMARK  0 active torsions:
REMARK  status: ('A' for Active; 'I' for Inactive)
ROOT
HETATM    1  N1  UNL     1       4.579  12.020  47.662  1.00  0.00    -0.380 N
ATOM      2  H11 UNL     1       5.258  11.415  48.125  1.00  0.00     0.158 HD
ATOM      3  H12 UNL     1       3.975  12.705  48.117  1.00  0.00     0.158 HD
HETATM    4  C1  UNL     1       4.508  11.876  46.382  1.00  0.00     0.133 C
HETATM    5  N2  UNL     1       3.561  12.721  45.736  1.00  0.00    -0.371 N
ATOM      6  H2  UNL     1       2.777  13.049  46.299  1.00  0.00     0.161 HD
HETATM    7  C2  UNL     1       3.605  13.157  44.359  1.00  0.00     0.121 C
HETATM    8  C3  UNL     1       4.482  12.317  43.498  1.00  0.00     0.020 C
HETATM    9  C4  UNL     1       5.954  12.618  43.664  1.00  0.00     0.012 C
HETATM   10  C5  UNL     1       6.669  11.506  44.420  1.00  0.00     0.082 C
HETATM   11  S1  UNL     1       5.563  10.679  45.589  1.00  0.00    -0.095 SA
ENDROOT
TORSDOF 0
ENDMDL