MODEL 5
REMARK VINA RESULT: -4.482057202      1.228      2.214
REMARK  1 active torsions:
REMARK  status: ('A' for Active; 'I' for Inactive)
REMARK    1  A    between atoms: O1_1  and  C1_3
ROOT
HETATM    1  C1  UNL     1       3.248  12.382  46.023  1.00  0.00     0.256 C
HETATM    2  C2  UNL     1       3.121  13.850  45.619  1.00  0.00     0.060 C
HETATM    3  C3  UNL     1       3.038  13.878  44.115  1.00  0.00     0.005 C
HETATM    4  C4  UNL     1       4.442  13.836  43.583  1.00  0.00     0.002 C
HETATM    5  C5  UNL     1       4.954  12.461  43.318  1.00  0.00     0.026 C
HETATM    6  C6  UNL     1       4.460  11.427  44.295  1.00  0.00     0.171 C
HETATM    7  O2  UNL     1       4.449  11.871  45.599  1.00  0.00    -0.361 OA
ENDROOT
BRANCH   1   8
HETATM    8  O1  UNL     1       3.262  12.397  47.435  1.00  0.00    -0.371 OA
ATOM      9  H1  UNL     1       2.386  12.671  47.683  1.00  0.00     0.212 HD
ENDBRANCH   1   8
TORSDOF 1
ENDMDL