MODEL 4
REMARK VINA RESULT: -4.702401175      1.777      2.618
REMARK  0 active torsions:
REMARK  status: ('A' for Active; 'I' for Inactive)
ROOT
HETATM    1  N1  UNL     1       3.177  12.381  47.127  1.00  0.00    -0.389 N
ATOM      2  H11 UNL     1       2.373  12.770  47.621  1.00  0.00     0.157 HD
ATOM      3  H12 UNL     1       3.779  11.638  47.482  1.00  0.00     0.157 HD
HETATM    4  C1  UNL     1       3.461  12.852  45.976  1.00  0.00     0.070 C
HETATM    5  C2  UNL     1       4.631  12.286  45.258  1.00  0.00     0.075 C
HETATM    6  C3  UNL     1       4.231  11.979  43.862  1.00  0.00     0.007 C
HETATM    7  C4  UNL     1       4.050  13.135  42.963  1.00  0.00     0.002 C
HETATM    8  C5  UNL     1       4.081  14.482  43.593  1.00  0.00     0.020 C
HETATM    9  C6  UNL     1       2.902  14.826  44.445  1.00  0.00     0.121 C
HETATM   10  N2  UNL     1       2.622  13.886  45.483  1.00  0.00    -0.380 N
ATOM     11  H2  UNL     1       1.706  13.968  45.924  1.00  0.00     0.160 HD
ENDROOT
TORSDOF 0
ENDMDL