MODEL 1
REMARK VINA RESULT: -5.331294147      0.000      0.000
REMARK  0 active torsions:
REMARK  status: ('A' for Active; 'I' for Inactive)
REMARK       I    between atoms: C1_4  and  N3_6
ROOT
HETATM    1  N1  UNL     1       6.577   9.231  46.905  1.00  0.00    -0.374 N
ATOM      2  H11 UNL     1       5.880   9.954  47.088  1.00  0.00     0.158 HD
ATOM      3  H12 UNL     1       6.908   8.612  47.645  1.00  0.00     0.158 HD
HETATM    4  C1  UNL     1       7.099   9.030  45.748  1.00  0.00     0.183 C
HETATM    5  N2  UNL     1       8.058   8.036  45.496  1.00  0.00    -0.064 NA
HETATM    6  N3  UNL     1       6.626   9.914  44.694  1.00  0.00    -0.356 N
HETATM    7  C2  UNL     1       5.260   9.654  44.456  1.00  0.00     0.125 C
HETATM    8  C3  UNL     1       4.613  10.259  43.286  1.00  0.00     0.020 C
HETATM    9  C4  UNL     1       5.058  11.611  42.887  1.00  0.00     0.002 C
HETATM   10  C5  UNL     1       5.812  12.363  43.955  1.00  0.00     0.002 C
HETATM   11  C6  UNL     1       7.277  12.074  43.690  1.00  0.00     0.020 C
HETATM   12  C7  UNL     1       7.679  10.750  44.240  1.00  0.00     0.125 C
ENDROOT
TORSDOF 0
ENDMDL