MODEL 3
REMARK VINA RESULT: -4.205701299      3.761      4.816
REMARK  0 active torsions:
REMARK  status: ('A' for Active; 'I' for Inactive)
ROOT
HETATM    1  C1  UNL     1       3.957  12.628  41.456  1.00  0.00     0.029 C
HETATM    2  C2  UNL     1       4.509  13.859  42.111  1.00  0.00     0.093 C
HETATM    3  C3  UNL     1       4.473  13.794  43.620  1.00  0.00     0.049 C
HETATM    4  C4  UNL     1       3.388  14.780  44.008  1.00  0.00     0.041 C
HETATM    5  C5  UNL     1       3.937  16.134  44.357  1.00  0.00     0.035 C
HETATM    6  C6  UNL     1       2.524  14.278  45.125  1.00  0.00     0.035 C
HETATM    7  N1  UNL     1       2.596  14.811  42.775  1.00  0.00    -0.139 NA
HETATM    8  N2  UNL     1       3.596  14.959  41.816  1.00  0.00    -0.143 NA
ENDROOT
TORSDOF 0
ENDMDL