MODEL 5
REMARK VINA RESULT: -4.928146877      1.222      1.647
REMARK  0 active torsions:
REMARK  status: ('A' for Active; 'I' for Inactive)
ROOT
HETATM    1  N1  UNL     1       6.164  11.434  45.539  1.00  0.00    -0.389 N
ATOM      2  H11 UNL     1       6.162  11.408  46.559  1.00  0.00     0.157 HD
ATOM      3  H12 UNL     1       6.848  11.186  44.824  1.00  0.00     0.157 HD
HETATM    4  C1  UNL     1       5.065  11.878  45.028  1.00  0.00     0.070 C
HETATM    5  C2  UNL     1       5.069  11.916  43.528  1.00  0.00     0.075 C
HETATM    6  C3  UNL     1       4.761  13.366  43.138  1.00  0.00     0.007 C
HETATM    7  C4  UNL     1       3.280  13.604  43.104  1.00  0.00     0.000 C
HETATM    8  C5  UNL     1       2.803  14.615  44.096  1.00  0.00     0.002 C
HETATM    9  C6  UNL     1       3.149  14.330  45.513  1.00  0.00     0.020 C
HETATM   10  C7  UNL     1       2.862  12.931  45.960  1.00  0.00     0.121 C
HETATM   11  N2  UNL     1       4.126  12.219  46.010  1.00  0.00    -0.380 N
ATOM     12  H2  UNL     1       4.381  11.904  46.947  1.00  0.00     0.160 HD
ENDROOT
TORSDOF 0
ENDMDL