MODEL 4
REMARK VINA RESULT: -4.757548276      2.329      3.887
REMARK  0 active torsions:
REMARK  status: ('A' for Active; 'I' for Inactive)
ROOT
HETATM    1  C1  UNL     1       3.151  14.067  42.542  1.00  0.00     0.002 C
HETATM    2  C2  UNL     1       3.899  13.305  41.441  1.00  0.00     0.002 C
HETATM    3  C3  UNL     1       4.261  12.036  42.222  1.00  0.00     0.028 C
HETATM    4  C4  UNL     1       4.734  12.595  43.531  1.00  0.00     0.048 C
HETATM    5  C5  UNL     1       4.177  13.984  43.669  1.00  0.00     0.028 C
HETATM    6  C6  UNL     1       4.253  11.737  44.665  1.00  0.00     0.045 C
HETATM    7  C7  UNL     1       5.531  11.376  45.371  1.00  0.00     0.132 C
HETATM    8  N1  UNL     1       6.615  12.001  44.690  1.00  0.00    -0.148 NA
HETATM    9  N2  UNL     1       6.164  12.594  43.541  1.00  0.00    -0.138 NA
ENDROOT
TORSDOF 0
ENDMDL