MODEL 3
REMARK VINA RESULT: -5.020458867      1.078      1.231
REMARK  0 active torsions:
REMARK  status: ('A' for Active; 'I' for Inactive)
ROOT
HETATM    1  N1  UNL     1       4.432  12.353  47.261  1.00  0.00    -0.404 N
ATOM      2  H11 UNL     1       3.758  12.803  47.880  1.00  0.00     0.155 HD
ATOM      3  H12 UNL     1       5.249  11.768  47.440  1.00  0.00     0.155 HD
HETATM    4  C1  UNL     1       4.215  12.560  46.005  1.00  0.00    -0.003 C
HETATM    5  C2  UNL     1       5.197  11.904  45.105  1.00  0.00     0.053 C
HETATM    6  C3  UNL     1       4.562  11.671  43.750  1.00  0.00     0.006 C
HETATM    7  C4  UNL     1       4.767  12.913  42.920  1.00  0.00     0.005 C
HETATM    8  C5  UNL     1       3.493  13.576  42.511  1.00  0.00     0.044 C
HETATM    9  C6  UNL     1       2.830  14.401  43.544  1.00  0.00     0.056 C
HETATM   10  N2  UNL     1       3.399  14.423  44.821  1.00  0.00    -0.397 N
ATOM     11  H2  UNL     1       4.072  15.143  45.081  1.00  0.00     0.159 HD
HETATM   12  C7  UNL     1       3.016  13.420  45.743  1.00  0.00     0.170 C
ENDROOT
TORSDOF 0
ENDMDL