MODEL 2
REMARK VINA RESULT: -2.854256117      1.776      2.126
REMARK  0 active torsions:
REMARK  status: ('A' for Active; 'I' for Inactive)
ROOT
HETATM    1  C1  UNL     1       3.749  12.471  46.566  1.00  0.00     0.307 C
HETATM    2  N1  UNL     1       3.761  13.888  46.396  1.00  0.00    -0.059 N
ATOM      3  H11 UNL     1       4.716  14.246  46.378  1.00  0.00     0.278 HD
ATOM      4  H12 UNL     1       3.424  14.359  47.236  1.00  0.00     0.278 HD
HETATM    5  C2  UNL     1       3.029  14.315  45.237  1.00  0.00     0.307 C
HETATM    6  S1  UNL     1       4.156  14.076  43.815  1.00  0.00    -0.132 SA
HETATM    7  C3  UNL     1       4.619  12.308  43.812  1.00  0.00     0.151 C
HETATM    8  S2  UNL     1       5.116  11.826  45.517  1.00  0.00    -0.132 SA
ENDROOT
TORSDOF 0
ENDMDL