MODEL 4
REMARK VINA RESULT: -2.878878934      1.544      2.254
REMARK  0 active torsions:
REMARK  status: ('A' for Active; 'I' for Inactive)
ROOT
HETATM    1  C1  UNL     1       8.846   6.476  40.154  1.00  0.00     0.086 C
HETATM    2  C2  UNL     1       9.528   7.224  41.266  1.00  0.00     0.103 C
HETATM    3  S1  UNL     1      10.283   6.142  42.491  1.00  0.00    -0.064 SA
HETATM    4  N1  UNL     1      11.436   5.027  41.781  1.00  0.00    -0.169 NA
HETATM    5  C3  UNL     1      11.512   5.305  40.356  1.00  0.00     0.196 C
HETATM    6  S2  UNL     1       9.829   5.004  39.696  1.00  0.00    -0.151 SA
ENDROOT
TORSDOF 0
ENDMDL