MODEL 4
REMARK VINA RESULT: -4.129781228      8.151      9.058
REMARK  1 active torsions:
REMARK  status: ('A' for Active; 'I' for Inactive)
REMARK    1  A    between atoms: C5_6  and  O1_7
ROOT
HETATM    1  N1  UNL     1       4.935  10.219  42.939  1.00  0.00    -0.195 NA
HETATM    2  C1  UNL     1       5.261  11.082  43.658  1.00  0.00     0.091 C
HETATM    3  C2  UNL     1       5.665  12.164  44.564  1.00  0.00     0.231 C
HETATM    4  C3  UNL     1       4.420  13.027  44.740  1.00  0.00     0.052 C
HETATM    5  C4  UNL     1       3.755  12.305  45.894  1.00  0.00     0.064 C
HETATM    6  C5  UNL     1       4.926  11.749  46.637  1.00  0.00     0.258 C
HETATM    7  O2  UNL     1       6.013  11.717  45.810  1.00  0.00    -0.342 OA
ENDROOT
BRANCH   6   8
HETATM    8  O1  UNL     1       5.137  12.592  47.754  1.00  0.00    -0.371 OA
ATOM      9  H1  UNL     1       5.893  13.130  47.552  1.00  0.00     0.212 HD
ENDBRANCH   6   8
TORSDOF 1
ENDMDL