MODEL 3
REMARK VINA RESULT: -4.534435462      2.224      2.640
REMARK  0 active torsions:
REMARK  status: ('A' for Active; 'I' for Inactive)
ROOT
HETATM    1  N1  UNL     1      10.599   6.113  43.154  1.00  0.00    -0.193 NA
HETATM    2  C1  UNL     1      10.430   6.539  42.098  1.00  0.00     0.115 C
HETATM    3  C2  UNL     1      10.201   7.062  40.752  1.00  0.00     0.298 C
HETATM    4  C3  UNL     1      10.012   5.909  39.862  1.00  0.00     0.115 C
HETATM    5  N2  UNL     1       9.855   4.988  39.164  1.00  0.00    -0.193 NA
HETATM    6  C4  UNL     1       9.005   7.972  40.679  1.00  0.00     0.072 C
HETATM    7  C5  UNL     1       9.512   9.031  39.690  1.00  0.00     0.032 C
HETATM    8  C6  UNL     1      10.908   9.231  40.291  1.00  0.00     0.236 C
HETATM    9  N3  UNL     1      11.352   7.837  40.328  1.00  0.00    -0.040 N
ATOM     10  H31 UNL     1      11.757   7.516  39.448  1.00  0.00     0.280 HD
ATOM     11  H32 UNL     1      12.179   7.688  40.906  1.00  0.00     0.280 HD
ENDROOT
TORSDOF 0
ENDMDL