MODEL 4
REMARK VINA RESULT: -3.139165957      9.660     10.248
REMARK  1 active torsions:
REMARK  status: ('A' for Active; 'I' for Inactive)
REMARK    1  A    between atoms: O1_1  and  C1_3
ROOT
HETATM    1  C1  UNL     1       3.668  12.400  46.254  1.00  0.00     0.138 C
HETATM    2  C2  UNL     1       3.534  13.854  45.871  1.00  0.00     0.118 C
HETATM    3  S1  UNL     1       3.814  13.887  44.050  1.00  0.00    -0.095 SA
HETATM    4  S2  UNL     1       5.006  12.080  44.012  1.00  0.00    -0.095 SA
HETATM    5  C3  UNL     1       5.033  11.925  45.851  1.00  0.00     0.118 C
ENDROOT
BRANCH   1   6
HETATM    6  O1  UNL     1       3.602  12.350  47.646  1.00  0.00    -0.394 OA
ATOM      7  H1  UNL     1       4.463  12.592  47.966  1.00  0.00     0.210 HD
ENDBRANCH   1   6
TORSDOF 1
ENDMDL