MODEL 1
REMARK VINA RESULT: -3.659932153      0.000      0.000
REMARK  1 active torsions:
REMARK  status: ('A' for Active; 'I' for Inactive)
REMARK    1  A    between atoms: O1_1  and  C1_3
ROOT
HETATM    1  C1  UNL     1       8.493   6.320  44.227  1.00  0.00     0.265 C
HETATM    2  C2  UNL     1       7.347   6.970  43.436  1.00  0.00     0.134 C
HETATM    3  S1  UNL     1       7.325   6.063  41.864  1.00  0.00    -0.162 SA
HETATM    4  C3  UNL     1       8.942   5.350  41.635  1.00  0.00     0.100 C
HETATM    5  C4  UNL     1      10.015   5.903  42.505  1.00  0.00     0.181 C
HETATM    6  O2  UNL     1       9.685   6.522  43.631  1.00  0.00    -0.360 OA
ENDROOT
BRANCH   1   7
HETATM    7  O1  UNL     1       8.193   4.996  44.535  1.00  0.00    -0.370 OA
ATOM      8  H1  UNL     1       8.202   4.858  45.475  1.00  0.00     0.212 HD
ENDBRANCH   1   7
TORSDOF 1
ENDMDL