MODEL 5
REMARK VINA RESULT: -3.699638010      2.267      2.619
REMARK  1 active torsions:
REMARK  status: ('A' for Active; 'I' for Inactive)
REMARK    1  A    between atoms: O1_1  and  N1_3
ROOT
HETATM    1  N1  UNL     1      10.004   6.376  42.978  1.00  0.00    -0.190 NA
HETATM    2  C1  UNL     1       8.988   5.387  42.800  1.00  0.00     0.122 C
HETATM    3  C2  UNL     1       7.657   6.092  43.097  1.00  0.00     0.027 C
HETATM    4  C3  UNL     1       7.332   6.961  41.903  1.00  0.00     0.076 C
HETATM    5  S1  UNL     1       8.730   8.028  41.443  1.00  0.00    -0.152 SA
HETATM    6  C4  UNL     1      10.247   7.029  41.727  1.00  0.00     0.194 C
ENDROOT
BRANCH   1   7
HETATM    7  O1  UNL     1      11.055   6.023  43.672  1.00  0.00    -0.312 OA
ATOM      8  H1  UNL     1      11.899   6.116  43.247  1.00  0.00     0.237 HD
ENDBRANCH   1   7
TORSDOF 1
ENDMDL