MODEL 5
REMARK VINA RESULT: -3.411786217      6.653      6.997
REMARK  1 active torsions:
REMARK  status: ('A' for Active; 'I' for Inactive)
REMARK    1  A    between atoms: O1_1  and  C1_3
ROOT
HETATM    1  C1  UNL     1       8.310   6.001  44.370  1.00  0.00     0.183 C
HETATM    2  C2  UNL     1       7.103   6.917  44.209  1.00  0.00     0.069 C
HETATM    3  C3  UNL     1       7.609   8.311  44.123  1.00  0.00     0.172 C
HETATM    4  O2  UNL     1       8.176   8.698  42.979  1.00  0.00    -0.381 OA
HETATM    5  C4  UNL     1       8.874   7.865  42.205  1.00  0.00     0.244 C
HETATM    6  S1  UNL     1       9.220   6.228  42.802  1.00  0.00    -0.112 SA
ENDROOT
BRANCH   1   7
HETATM    7  O1  UNL     1       9.161   6.468  45.378  1.00  0.00    -0.385 OA
ATOM      8  H1  UNL     1       9.641   7.235  45.090  1.00  0.00     0.211 HD
ENDBRANCH   1   7
TORSDOF 1
ENDMDL