MODEL 2
REMARK VINA RESULT: -4.046892918      2.148      2.772
REMARK  0 active torsions:
REMARK  status: ('A' for Active; 'I' for Inactive)
ROOT
HETATM    1  C1  UNL     1       7.656   5.290  42.577  1.00  0.00     0.238 C
HETATM    2  C2  UNL     1       7.444   6.571  41.826  1.00  0.00     0.062 C
HETATM    3  C3  UNL     1       8.258   7.670  42.482  1.00  0.00     0.166 C
HETATM    4  C4  UNL     1       7.712   7.797  43.912  1.00  0.00     0.099 C
HETATM    5  C5  UNL     1       8.350   6.507  44.450  1.00  0.00     0.360 C
HETATM    6  N1  UNL     1       7.520   5.408  43.996  1.00  0.00    -0.046 N
ATOM      7  H11 UNL     1       7.727   4.536  44.482  1.00  0.00     0.280 HD
ATOM      8  H12 UNL     1       6.548   5.505  44.288  1.00  0.00     0.280 HD
HETATM    9  O1  UNL     1       9.533   6.463  43.778  1.00  0.00    -0.206 OA
HETATM   10  O2  UNL     1       9.511   7.179  42.726  1.00  0.00    -0.233 OA
ENDROOT
TORSDOF 0
ENDMDL