MODEL 2
REMARK VINA RESULT: -3.288223748      1.831      2.226
REMARK  1 active torsions:
REMARK  status: ('A' for Active; 'I' for Inactive)
REMARK    1  A    between atoms: O1_1  and  C1_3
ROOT
HETATM    1  C1  UNL     1       4.033  14.110  43.916  1.00  0.00     0.191 C
HETATM    2  C2  UNL     1       3.872  13.641  42.557  1.00  0.00     0.054 C
HETATM    3  C3  UNL     1       4.696  12.503  42.139  1.00  0.00     0.089 C
HETATM    4  S1  UNL     1       4.894  11.339  43.502  1.00  0.00    -0.095 SA
HETATM    5  S2  UNL     1       4.295  12.721  45.049  1.00  0.00    -0.066 SA
ENDROOT
BRANCH   1   6
HETATM    6  O1  UNL     1       2.827  14.710  44.350  1.00  0.00    -0.384 OA
ATOM      7  H1  UNL     1       2.373  15.080  43.602  1.00  0.00     0.211 HD
ENDBRANCH   1   6
TORSDOF 1
ENDMDL