MODEL 5
REMARK VINA RESULT: -4.756713277      6.519      8.063
REMARK  2 active torsions:
REMARK  status: ('A' for Active; 'I' for Inactive)
REMARK    1  A    between atoms: C2_2  and  C3_3
REMARK    2  A    between atoms: N1_7  and  O2_8
ROOT
HETATM    1  C3  UNL     1       8.761   7.186  41.881  1.00  0.00     0.170 C
HETATM    2  O1  UNL     1       9.501   6.565  40.847  1.00  0.00    -0.358 OA
HETATM    3  C4  UNL     1      10.641   6.174  41.552  1.00  0.00     0.218 C
HETATM    4  C5  UNL     1      11.361   5.144  40.720  1.00  0.00     0.059 C
HETATM    5  N1  UNL     1      10.155   5.619  42.807  1.00  0.00    -0.159 NA
HETATM    6  C6  UNL     1       8.778   6.125  42.927  1.00  0.00     0.063 C
HETATM    7  C7  UNL     1       8.530   6.613  44.316  1.00  0.00     0.037 C
HETATM    8  C8  UNL     1       7.813   4.995  42.646  1.00  0.00     0.037 C
ENDROOT
BRANCH   1   9
HETATM    9  C2  UNL     1       7.431   7.581  41.417  1.00  0.00    -0.003 C
HETATM   10  C1  UNL     1       6.986   8.807  41.674  1.00  0.00     0.009 C
ENDBRANCH   1   9
BRANCH   5  11
HETATM   11  O2  UNL     1      10.858   6.253  43.794  1.00  0.00    -0.310 OA
ATOM     12  H2  UNL     1      11.754   5.948  43.714  1.00  0.00     0.237 HD
ENDBRANCH   5  11
TORSDOF 2
ENDMDL