MODEL 3
REMARK VINA RESULT: -5.164057074      1.464      4.102
REMARK  2 active torsions:
REMARK  status: ('A' for Active; 'I' for Inactive)
REMARK    1  A    between atoms: C5_5  and  O1_6
REMARK    2  A    between atoms: C6_8  and  C7_9
ROOT
HETATM    1  C1  UNL     1       3.522  13.908  43.038  1.00  0.00     0.039 C
HETATM    2  C2  UNL     1       4.178  14.027  44.422  1.00  0.00     0.118 C
HETATM    3  C3  UNL     1       3.179  13.997  45.498  1.00  0.00     0.034 C
HETATM    4  C4  UNL     1       3.187  12.845  46.419  1.00  0.00     0.037 C
HETATM    5  C5  UNL     1       4.393  11.963  46.338  1.00  0.00     0.147 C
HETATM    6  C6  UNL     1       4.768  11.836  44.889  1.00  0.00     0.154 C
HETATM    7  O2  UNL     1       5.176  13.097  44.473  1.00  0.00    -0.378 OA
ENDROOT
BRANCH   6   8
HETATM    8  C7  UNL     1       5.905  10.895  44.643  1.00  0.00     0.009 C
HETATM    9  C8  UNL     1       5.602   9.786  43.697  1.00  0.00     0.012 C
HETATM   10  C9  UNL     1       7.041  11.749  44.061  1.00  0.00     0.012 C
ENDBRANCH   6   8
BRANCH   5  11
HETATM   11  O1  UNL     1       5.450  12.561  47.046  1.00  0.00    -0.393 OA
ATOM     12  H1  UNL     1       5.100  13.024  47.798  1.00  0.00     0.210 HD
ENDBRANCH   5  11
TORSDOF 2
ENDMDL