MODEL 5
REMARK VINA RESULT: -4.479146310      5.232      7.389
REMARK  1 active torsions:
REMARK  status: ('A' for Active; 'I' for Inactive)
REMARK    1  A    between atoms: N1_2  and  C2_5
ROOT
HETATM    1  C2  UNL     1       9.884   6.917  40.433  1.00  0.00     0.212 C
HETATM    2  C3  UNL     1      10.239   8.358  40.507  1.00  0.00     0.108 C
HETATM    3  S1  UNL     1       8.816   9.460  40.642  1.00  0.00    -0.167 SA
HETATM    4  C4  UNL     1       8.205   9.580  42.342  1.00  0.00     0.074 C
HETATM    5  C5  UNL     1       8.026   8.237  42.993  1.00  0.00     0.012 C
HETATM    6  C6  UNL     1       7.887   7.160  41.947  1.00  0.00     0.022 C
HETATM    7  C7  UNL     1       9.145   6.413  41.652  1.00  0.00     0.124 C
HETATM    8  C8  UNL     1      10.047   6.327  42.804  1.00  0.00     0.066 C
HETATM    9  N2  UNL     1      10.759   6.255  43.717  1.00  0.00    -0.197 NA
ENDROOT
BRANCH   1  10
HETATM   10  N1  UNL     1       9.113   6.557  39.273  1.00  0.00    -0.073 N
HETATM   11  C1  UNL     1       9.085   5.117  39.164  1.00  0.00     0.267 C
ATOM     12  H12 UNL     1       9.454   7.006  38.424  1.00  0.00     0.277 HD
ATOM     13  H11 UNL     1       8.178   6.965  39.283  1.00  0.00     0.277 HD
ENDBRANCH   1  10
TORSDOF 1
ENDMDL