MODEL 3
REMARK VINA RESULT: -4.807272845      2.944      6.347
REMARK  3 active torsions:
REMARK  status: ('A' for Active; 'I' for Inactive)
REMARK    1  A    between atoms: C2_2  and  N2_5
REMARK    2  A    between atoms: C4_7  and  C5_8
REMARK    3  A    between atoms: C6_9  and  C7_10
ROOT
HETATM    1  C1  UNL     1       3.256  14.039  46.077  1.00  0.00     0.048 C
HETATM    2  C2  UNL     1       3.524  13.469  44.713  1.00  0.00     0.185 C
HETATM    3  C3  UNL     1       4.064  14.505  43.843  1.00  0.00     0.084 C
HETATM    4  N1  UNL     1       4.493  15.317  43.158  1.00  0.00    -0.195 NA
ENDROOT
BRANCH   2   5
HETATM    5  N2  UNL     1       4.378  12.335  44.808  1.00  0.00    -0.376 N
HETATM    6  C4  UNL     1       5.307  12.161  45.671  1.00  0.00     0.150 C
ATOM      7  H2  UNL     1       4.236  11.591  44.125  1.00  0.00     0.160 HD
BRANCH   6   8
HETATM    8  C5  UNL     1       6.084  10.954  45.630  1.00  0.00    -0.054 C
HETATM    9  C6  UNL     1       6.727   9.926  45.601  1.00  0.00    -0.034 C
BRANCH   9  10
HETATM   10  C7  UNL     1       7.470   8.697  45.569  1.00  0.00     0.166 C
HETATM   11  N3  UNL     1       8.370   8.432  46.635  1.00  0.00    -0.080 NA
HETATM   12  S1  UNL     1       7.318   7.605  44.364  1.00  0.00    -0.054 SA
ENDBRANCH   9  10
ENDBRANCH   6   8
ENDBRANCH   2   5
TORSDOF 3
ENDMDL