MODEL 4
REMARK VINA RESULT: -4.735672578      5.092      6.752
REMARK  4 active torsions:
REMARK  status: ('A' for Active; 'I' for Inactive)
REMARK    1  A    between atoms: C2_2  and  C4_4
REMARK    2  A    between atoms: C4_4  and  O1_5
REMARK    3  A    between atoms: O1_5  and  C5_6
REMARK    4  A    between atoms: N2_8  and  C6_10
ROOT
HETATM    1  C5  UNL     1       6.041  10.906  45.483  1.00  0.00     0.228 C
HETATM    2  N1  UNL     1       5.841  10.631  46.855  1.00  0.00    -0.056 NA
HETATM    3  N2  UNL     1       6.549  10.120  44.629  1.00  0.00    -0.351 N
ATOM      4  H2  UNL     1       6.623  10.474  43.675  1.00  0.00     0.163 HD
ENDROOT
BRANCH   1   5
HETATM    5  O1  UNL     1       5.637  12.164  45.040  1.00  0.00    -0.324 OA
BRANCH   5   6
HETATM    6  C4  UNL     1       4.310  12.573  44.944  1.00  0.00     0.182 C
BRANCH   6   7
HETATM    7  C2  UNL     1       4.191  13.817  44.059  1.00  0.00     0.002 C
HETATM    8  C1  UNL     1       3.927  13.289  42.647  1.00  0.00     0.011 C
HETATM    9  C3  UNL     1       3.055  14.695  44.508  1.00  0.00     0.011 C
ENDBRANCH   6   7
ENDBRANCH   5   6
ENDBRANCH   1   5
BRANCH   3  10
HETATM   10  C6  UNL     1       7.029   8.795  44.852  1.00  0.00     0.022 C
HETATM   11  C7  UNL     1       5.815   7.863  44.925  1.00  0.00     0.037 C
HETATM   12  C8  UNL     1       7.850   8.382  43.651  1.00  0.00     0.037 C
HETATM   13  C9  UNL     1       7.808   8.614  46.114  1.00  0.00     0.037 C
ENDBRANCH   3  10
TORSDOF 4
ENDMDL