MODEL 1
REMARK VINA RESULT: -4.648678146      0.000      0.000
REMARK  3 active torsions:
REMARK  status: ('A' for Active; 'I' for Inactive)
REMARK    1  A    between atoms: C2_2  and  N1_3
REMARK    2  A    between atoms: C5_9  and  N2_10
REMARK    3  A    between atoms: N2_10  and  C6_12
ROOT
HETATM    1  C1  UNL     1       4.831  10.735  43.859  1.00  0.00     0.046 C
HETATM    2  C2  UNL     1       4.784  12.221  43.804  1.00  0.00     0.122 C
HETATM    3  C3  UNL     1       4.133  12.727  42.540  1.00  0.00     0.040 C
HETATM    4  C4  UNL     1       3.725  14.125  42.919  1.00  0.00     0.028 C
HETATM    5  C5  UNL     1       3.878  14.271  44.396  1.00  0.00     0.084 C
HETATM    6  C7  UNL     1       3.842  12.807  44.857  1.00  0.00     0.063 C
ENDROOT
BRANCH   2   7
HETATM    7  N1  UNL     1       6.071  12.849  44.024  1.00  0.00    -0.071 N
ATOM      8  H13 UNL     1       6.290  12.883  45.019  1.00  0.00     0.275 HD
ATOM      9  H12 UNL     1       6.827  12.244  43.704  1.00  0.00     0.275 HD
ATOM     10  H11 UNL     1       6.149  13.776  43.606  1.00  0.00     0.275 HD
ENDBRANCH   2   7
BRANCH   5  11
HETATM   11  N2  UNL     1       2.896  15.074  45.034  1.00  0.00    -0.386 N
ATOM     12  H2  UNL     1       1.986  15.135  44.576  1.00  0.00     0.160 HD
BRANCH  11  13
HETATM   13  C6  UNL     1       3.030  15.713  46.100  1.00  0.00     0.166 C
HETATM   14  S1  UNL     1       3.037  16.820  47.269  1.00  0.00    -0.075 SA
ENDBRANCH  11  13
ENDBRANCH   5  11
TORSDOF 3
ENDMDL