MODEL 5
REMARK VINA RESULT: -4.791619453      1.251      1.390
REMARK  1 active torsions:
REMARK  status: ('A' for Active; 'I' for Inactive)
REMARK    1  A    between atoms: N1_2  and  C2_4
ROOT
HETATM    1  C2  UNL     1      10.542   7.342  40.767  1.00  0.00     0.110 C
HETATM    2  C3  UNL     1       9.648   7.412  41.991  1.00  0.00     0.062 C
HETATM    3  C4  UNL     1       9.493   6.101  42.691  1.00  0.00     0.162 C
HETATM    4  C5  UNL     1       8.394   5.324  42.019  1.00  0.00     0.035 C
HETATM    5  C6  UNL     1       8.705   5.281  40.550  1.00  0.00     0.005 C
HETATM    6  C7  UNL     1      10.130   4.956  40.238  1.00  0.00     0.037 C
HETATM    7  C8  UNL     1      11.125   5.970  40.714  1.00  0.00     0.182 C
HETATM    8  O1  UNL     1      11.587   5.648  41.977  1.00  0.00    -0.233 OA
HETATM    9  O2  UNL     1      10.659   5.387  42.845  1.00  0.00    -0.235 OA
ENDROOT
BRANCH   1  10
HETATM   10  N1  UNL     1      11.465   8.416  40.859  1.00  0.00    -0.419 N
HETATM   11  C1  UNL     1      11.028   9.695  40.415  1.00  0.00     0.140 C
ATOM     12  H1  UNL     1      12.405   8.277  41.230  1.00  0.00     0.153 HD
ENDBRANCH   1  10
TORSDOF 1
ENDMDL