MODEL 2
REMARK VINA RESULT: -5.369143764      1.811      2.370
REMARK  2 active torsions:
REMARK  status: ('A' for Active; 'I' for Inactive)
REMARK    1  A    between atoms: O1_1  and  C1_3
REMARK    2  A    between atoms: C1_3  and  C2_4
ROOT
HETATM    1  C2  UNL     1       4.302  13.631  41.993  1.00  0.00     0.012 C
HETATM    2  C3  UNL     1       4.565  12.203  41.616  1.00  0.00     0.010 C
HETATM    3  C4  UNL     1       4.655  11.405  42.891  1.00  0.00     0.042 C
HETATM    4  C5  UNL     1       4.647  12.444  43.964  1.00  0.00     0.099 C
HETATM    5  C6  UNL     1       4.260  11.956  45.309  1.00  0.00     0.070 C
HETATM    6  C7  UNL     1       5.622  11.862  46.001  1.00  0.00     0.213 C
HETATM    7  O2  UNL     1       6.502  12.103  44.935  1.00  0.00    -0.240 OA
HETATM    8  O3  UNL     1       5.923  12.965  44.150  1.00  0.00    -0.230 OA
HETATM    9  C8  UNL     1       3.740  13.501  43.398  1.00  0.00     0.048 C
ENDROOT
BRANCH   1  10
HETATM   10  C1  UNL     1       3.329  14.308  41.061  1.00  0.00     0.168 C
BRANCH  10  11
HETATM   11  O1  UNL     1       3.882  15.557  40.735  1.00  0.00    -0.400 OA
ATOM     12  H1  UNL     1       4.657  15.386  40.213  1.00  0.00     0.209 HD
ENDBRANCH  10  11
ENDBRANCH   1  10
TORSDOF 2
ENDMDL