MODEL 3
REMARK VINA RESULT: -4.009246693      2.149      4.218
REMARK  2 active torsions:
REMARK  status: ('A' for Active; 'I' for Inactive)
REMARK    1  A    between atoms: C3_3  and  O1_4
REMARK    2  A    between atoms: C3_3  and  C4_6
ROOT
HETATM    1  C1  UNL     1       7.074   9.232  45.951  1.00  0.00     0.015 C
HETATM    2  C2  UNL     1       7.561   8.191  45.573  1.00  0.00    -0.084 C
HETATM    3  C3  UNL     1       8.162   6.948  45.098  1.00  0.00     0.219 C
ENDROOT
BRANCH   3   4
HETATM    4  O1  UNL     1       9.343   6.642  45.726  1.00  0.00    -0.381 OA
ATOM      5  H1  UNL     1       9.521   5.709  45.758  1.00  0.00     0.211 HD
ENDBRANCH   3   4
BRANCH   3   6
HETATM    6  C4  UNL     1       8.300   7.065  43.598  1.00  0.00     0.149 C
HETATM    7  S1  UNL     1       9.838   6.293  43.007  1.00  0.00    -0.149 SA
HETATM    8  C5  UNL     1       9.323   5.638  41.403  1.00  0.00     0.085 C
HETATM    9  C6  UNL     1       7.972   5.048  41.562  1.00  0.00     0.085 C
HETATM   10  S2  UNL     1       7.061   6.035  42.764  1.00  0.00    -0.149 SA
ENDBRANCH   3   6
TORSDOF 2
ENDMDL