MODEL 3
REMARK VINA RESULT: -4.309749898      1.865      2.595
REMARK  2 active torsions:
REMARK  status: ('A' for Active; 'I' for Inactive)
REMARK    1  A    between atoms: C2_2  and  C3_3
REMARK    2  A    between atoms: N1_9  and  N2_10
ROOT
HETATM    1  C3  UNL     1       4.949  12.990  44.093  1.00  0.00     0.112 C
HETATM    2  C4  UNL     1       4.603  12.534  45.487  1.00  0.00     0.103 C
HETATM    3  S1  UNL     1       5.799  11.148  45.673  1.00  0.00    -0.135 SA
HETATM    4  C5  UNL     1       6.336  11.104  43.916  1.00  0.00     0.088 C
HETATM    5  C6  UNL     1       6.163   9.702  43.357  1.00  0.00     0.052 C
HETATM    6  C7  UNL     1       7.773  11.482  43.798  1.00  0.00     0.052 C
HETATM    7  N1  UNL     1       5.406  11.957  43.311  1.00  0.00    -0.309 N
ENDROOT
BRANCH   7   8
HETATM    8  N2  UNL     1       5.070  11.809  42.037  1.00  0.00    -0.345 N
ATOM      9  H22 UNL     1       4.195  11.355  41.773  1.00  0.00     0.176 HD
ATOM     10  H21 UNL     1       5.682  12.072  41.264  1.00  0.00     0.176 HD
ENDBRANCH   7   8
BRANCH   1  11
HETATM   11  C2  UNL     1       3.686  13.591  43.492  1.00  0.00     0.023 C
HETATM   12  C1  UNL     1       3.084  14.644  44.363  1.00  0.00     0.007 C
ENDBRANCH   1  11
TORSDOF 2
ENDMDL