MODEL 4
REMARK VINA RESULT: -4.311655515      1.872      3.394
REMARK  0 active torsions:
REMARK  status: ('A' for Active; 'I' for Inactive)
ROOT
HETATM    1  C1  UNL     1       7.269   6.056  41.132  1.00  0.00     0.030 C
HETATM    2  C2  UNL     1       8.271   7.177  41.418  1.00  0.00     0.034 C
HETATM    3  S1  UNL     1       8.058   7.878  43.060  1.00  0.00    -0.156 SA
HETATM    4  C3  UNL     1       6.954   8.739  41.897  1.00  0.00     0.082 C
HETATM    5  C4  UNL     1       7.894   8.408  40.731  1.00  0.00     0.025 C
HETATM    6  C5  UNL     1       9.023   9.370  40.669  1.00  0.00     0.082 C
HETATM    7  S2  UNL     1      10.441   8.235  40.392  1.00  0.00    -0.147 SA
HETATM    8  C6  UNL     1       9.640   6.743  41.100  1.00  0.00     0.172 C
HETATM    9  C7  UNL     1      10.342   6.385  42.353  1.00  0.00     0.076 C
HETATM   10  N1  UNL     1      10.900   6.124  43.334  1.00  0.00    -0.196 NA
ENDROOT
TORSDOF 0
ENDMDL