MODEL 2
REMARK VINA RESULT: -6.257641221      2.354      4.336
REMARK  3 active torsions:
REMARK  status: ('A' for Active; 'I' for Inactive)
REMARK    1  A    between atoms: C2_2  and  O2_4
REMARK    2  A    between atoms: O2_4  and  C3_5
REMARK    3  A    between atoms: C3_5  and  C4_7
ROOT
HETATM    1  C4  UNL     1       3.721  14.300  44.173  1.00  0.00     0.086 C
HETATM    2  C5  UNL     1       4.464  13.161  44.832  1.00  0.00     0.014 C
HETATM    3  C6  UNL     1       4.662  12.004  43.925  1.00  0.00     0.001 C
HETATM    4  C7  UNL     1       5.153  12.349  42.557  1.00  0.00     0.000 C
HETATM    5  C8  UNL     1       4.159  13.365  41.973  1.00  0.00     0.001 C
HETATM    6  C9  UNL     1       4.330  14.621  42.801  1.00  0.00     0.014 C
ENDROOT
BRANCH   1   7
HETATM    7  C3  UNL     1       3.841  15.553  44.957  1.00  0.00     0.270 C
HETATM    8  O3  UNL     1       4.417  16.526  44.412  1.00  0.00    -0.264 OA
BRANCH   7   9
HETATM    9  O2  UNL     1       3.359  15.700  46.238  1.00  0.00    -0.245 OA
BRANCH   9  10
HETATM   10  C2  UNL     1       3.543  16.827  47.020  1.00  0.00     0.262 C
HETATM   11  C1  UNL     1       2.633  18.003  46.969  1.00  0.00     0.126 C
HETATM   12  O1  UNL     1       4.517  16.851  47.800  1.00  0.00    -0.265 OA
ENDBRANCH   9  10
ENDBRANCH   7   9
ENDBRANCH   1   7
TORSDOF 3
ENDMDL