MODEL 4
REMARK VINA RESULT: -5.777138768      1.280      2.125
REMARK  1 active torsions:
REMARK  status: ('A' for Active; 'I' for Inactive)
REMARK    1  A    between atoms: N1_4  and  C4_5
ROOT
HETATM    1  C4  UNL     1       7.579  10.024  45.067  1.00  0.00     0.261 C
HETATM    2  C5  UNL     1       6.763   8.813  45.441  1.00  0.00     0.064 C
HETATM    3  C6  UNL     1       6.287   8.027  44.261  1.00  0.00     0.024 A
HETATM    4  C7  UNL     1       6.984   6.738  43.925  1.00  0.00     0.043 A
HETATM    5  C8  UNL     1       7.288   8.024  43.188  1.00  0.00     0.165 A
HETATM    6  O1  UNL     1       8.487   8.620  43.562  1.00  0.00    -0.233 OA
HETATM    7  O2  UNL     1       8.340   9.863  43.935  1.00  0.00    -0.214 OA
ENDROOT
BRANCH   1   8
HETATM    8  N1  UNL     1       6.777  11.217  44.919  1.00  0.00    -0.365 N
HETATM    9  C3  UNL     1       6.893  11.899  43.702  1.00  0.00     0.060 C
HETATM   10  C2  UNL     1       5.671  12.482  43.097  1.00  0.00     0.044 C
HETATM   11  C1  UNL     1       4.515  12.680  44.016  1.00  0.00     0.007 C
HETATM   12  C10 UNL     1       4.938  12.593  45.486  1.00  0.00     0.020 C
HETATM   13  C9  UNL     1       5.541  11.185  45.599  1.00  0.00     0.124 C
ENDBRANCH   1   8
TORSDOF 1
ENDMDL