MODEL 2
REMARK VINA RESULT: -5.392554882      4.688      6.844
REMARK  1 active torsions:
REMARK  status: ('A' for Active; 'I' for Inactive)
REMARK    1  A    between atoms: C2_2  and  C3_3
ROOT
HETATM    1  C3  UNL     1       5.958  11.255  44.789  1.00  0.00     0.092 C
HETATM    2  C4  UNL     1       6.879  12.187  44.123  1.00  0.00     0.043 C
HETATM    3  C5  UNL     1       8.165  11.622  43.627  1.00  0.00     0.038 C
HETATM    4  C6  UNL     1       8.025  10.311  42.907  1.00  0.00     0.163 C
HETATM    5  C7  UNL     1       6.636  10.067  42.408  1.00  0.00     0.070 C
HETATM    6  C8  UNL     1       5.756   9.746  43.581  1.00  0.00     0.160 C
HETATM    7  O1  UNL     1       4.953  10.865  43.898  1.00  0.00    -0.369 OA
HETATM    8  C9  UNL     1       6.413   9.841  44.897  1.00  0.00     0.223 C
HETATM    9  O2  UNL     1       7.748   9.642  44.952  1.00  0.00    -0.230 OA
HETATM   10  O3  UNL     1       8.312   9.281  43.831  1.00  0.00    -0.235 OA
ENDROOT
BRANCH   1  11
HETATM   11  C2  UNL     1       5.373  11.742  46.096  1.00  0.00     0.036 C
HETATM   12  C1  UNL     1       4.102  12.505  45.866  1.00  0.00     0.008 C
ENDBRANCH   1  11
TORSDOF 1
ENDMDL