MODEL 1
REMARK VINA RESULT: -4.653652352      0.000      0.000
REMARK  1 active torsions:
REMARK  status: ('A' for Active; 'I' for Inactive)
REMARK    1  A    between atoms: C2_2  and  C3_3
ROOT
HETATM    1  C3  UNL     1       5.262  13.214  42.744  1.00  0.00     0.176 C
HETATM    2  S1  UNL     1       4.912  11.678  41.785  1.00  0.00    -0.066 SA
HETATM    3  S2  UNL     1       5.263  10.367  43.474  1.00  0.00    -0.064 SA
HETATM    4  C4  UNL     1       5.789  11.782  44.535  1.00  0.00     0.080 C
HETATM    5  C5  UNL     1       7.270  11.978  44.219  1.00  0.00     0.051 C
HETATM    6  C6  UNL     1       5.664  11.455  45.961  1.00  0.00     0.051 C
HETATM    7  N1  UNL     1       5.108  12.927  44.088  1.00  0.00    -0.382 N
HETATM    8  C7  UNL     1       3.994  13.388  44.789  1.00  0.00     0.146 C
ENDROOT
BRANCH   1   9
HETATM    9  C2  UNL     1       4.222  14.196  42.310  1.00  0.00    -0.001 C
HETATM   10  C1  UNL     1       3.761  14.159  41.074  1.00  0.00     0.010 C
ENDBRANCH   1   9
TORSDOF 1
ENDMDL