MODEL 4
REMARK VINA RESULT: -4.990137934      1.632      2.255
REMARK  1 active torsions:
REMARK  status: ('A' for Active; 'I' for Inactive)
REMARK    1  A    between atoms: C5_7  and  C6_8
ROOT
HETATM    1  N1  UNL     1       6.366   8.445  44.019  1.00  0.00    -0.194 NA
HETATM    2  C1  UNL     1       6.568   9.585  43.913  1.00  0.00     0.096 C
HETATM    3  C2  UNL     1       6.840  11.029  43.787  1.00  0.00     0.186 C
HETATM    4  C3  UNL     1       8.218  11.367  43.490  1.00  0.00     0.096 C
HETATM    5  N2  UNL     1       9.307  11.643  43.248  1.00  0.00    -0.194 NA
HETATM    6  C4  UNL     1       5.914  11.634  42.773  1.00  0.00     0.067 C
HETATM    7  C5  UNL     1       5.564  12.822  43.620  1.00  0.00     0.057 C
HETATM    8  S1  UNL     1       6.097  12.014  45.137  1.00  0.00    -0.124 SA
ENDROOT
BRANCH   7   9
HETATM    9  C6  UNL     1       4.115  13.194  43.543  1.00  0.00    -0.001 A
HETATM   10  C7  UNL     1       3.595  14.498  43.954  1.00  0.00     0.006 A
HETATM   11  C8  UNL     1       3.710  14.248  42.499  1.00  0.00     0.006 A
ENDBRANCH   7   9
TORSDOF 1
ENDMDL