MODEL 4
REMARK VINA RESULT: -4.175822665      2.228      3.128
REMARK  1 active torsions:
REMARK  status: ('A' for Active; 'I' for Inactive)
REMARK    1  A    between atoms: C2_2  and  C4_4
ROOT
HETATM    1  C4  UNL     1       5.059  13.273  43.613  1.00  0.00     0.180 C
HETATM    2  S1  UNL     1       4.205  13.402  42.010  1.00  0.00    -0.068 SA
HETATM    3  S2  UNL     1       4.825  11.728  40.841  1.00  0.00    -0.094 SA
HETATM    4  C5  UNL     1       5.305  10.379  41.972  1.00  0.00     0.105 C
HETATM    5  C6  UNL     1       5.087  10.841  43.427  1.00  0.00     0.129 C
HETATM    6  N1  UNL     1       5.737  12.053  43.707  1.00  0.00    -0.399 N
HETATM    7  C7  UNL     1       6.878  11.998  44.550  1.00  0.00     0.144 C
ENDROOT
BRANCH   1   8
HETATM    8  C2  UNL     1       4.108  13.616  44.685  1.00  0.00    -0.060 C
HETATM    9  C1  UNL     1       4.010  12.923  45.795  1.00  0.00     0.017 C
HETATM   10  C3  UNL     1       3.214  14.796  44.518  1.00  0.00     0.045 C
ENDBRANCH   1   8
TORSDOF 1
ENDMDL