MODEL 1
REMARK VINA RESULT: -5.793761586      0.000      0.000
REMARK  2 active torsions:
REMARK  status: ('A' for Active; 'I' for Inactive)
REMARK    1  A    between atoms: S1_3  and  C2_4
REMARK    2  A    between atoms: C6_8  and  C7_9
ROOT
HETATM    1  N1  UNL     1       8.846   8.230  46.439  1.00  0.00    -0.184 NA
HETATM    2  C1  UNL     1       8.096   8.428  45.596  1.00  0.00     0.134 C
HETATM    3  S1  UNL     1       6.866   8.624  44.372  1.00  0.00    -0.045 SA
ENDROOT
BRANCH   3   4
HETATM    4  C2  UNL     1       5.881  10.101  44.547  1.00  0.00     0.068 C
HETATM    5  C3  UNL     1       4.995  10.377  43.336  1.00  0.00     0.021 C
HETATM    6  C4  UNL     1       5.287  11.819  43.036  1.00  0.00    -0.012 C
HETATM    7  C5  UNL     1       4.740  12.640  44.168  1.00  0.00     0.024 C
HETATM    8  C9  UNL     1       6.785  11.864  43.331  1.00  0.00     0.012 C
HETATM    9  C6  UNL     1       5.753  12.458  45.295  1.00  0.00     0.098 C
HETATM   10  C8  UNL     1       6.652  11.360  44.769  1.00  0.00     0.018 C
BRANCH   9  11
HETATM   11  C7  UNL     1       5.103  12.129  46.540  1.00  0.00     0.064 C
HETATM   12  N2  UNL     1       4.767  12.014  47.627  1.00  0.00    -0.197 NA
ENDBRANCH   9  11
ENDBRANCH   3   4
TORSDOF 2
ENDMDL