MODEL 1
REMARK VINA RESULT: -5.848260550      0.000      0.000
REMARK  1 active torsions:
REMARK  status: ('A' for Active; 'I' for Inactive)
REMARK    1  A    between atoms: C2_2  and  C3_3
ROOT
HETATM    1  C3  UNL     1       6.682  10.985  44.366  1.00  0.00     0.196 C
HETATM    2  C4  UNL     1       6.478  10.155  45.637  1.00  0.00     0.082 C
HETATM    3  O1  UNL     1       5.676  10.660  43.484  1.00  0.00    -0.198 OA
HETATM    4  O2  UNL     1       4.617  11.184  44.077  1.00  0.00    -0.197 OA
HETATM    5  C5  UNL     1       5.077  12.434  44.480  1.00  0.00     0.200 C
HETATM    6  C6  UNL     1       4.428  12.907  45.756  1.00  0.00     0.071 C
HETATM    7  C7  UNL     1       3.352  13.890  45.360  1.00  0.00     0.006 C
HETATM    8  C8  UNL     1       3.849  14.488  44.081  1.00  0.00     0.006 C
HETATM    9  C9  UNL     1       4.687  13.440  43.422  1.00  0.00     0.071 C
HETATM   10  O3  UNL     1       6.468  12.325  44.601  1.00  0.00    -0.314 OA
ENDROOT
BRANCH   1  11
HETATM   11  C2  UNL     1       8.061  10.665  43.862  1.00  0.00     0.066 C
HETATM   12  C1  UNL     1       8.805  11.852  43.338  1.00  0.00     0.010 C
ENDBRANCH   1  11
TORSDOF 1
ENDMDL