MODEL 5
REMARK VINA RESULT: -5.284844640      5.921      7.606
REMARK  1 active torsions:
REMARK  status: ('A' for Active; 'I' for Inactive)
REMARK    1  A    between atoms: C2_2  and  C3_3
ROOT
HETATM    1  C3  UNL     1      10.777   6.796  41.686  1.00  0.00     0.189 C
HETATM    2  O1  UNL     1      10.862   5.909  42.728  1.00  0.00    -0.230 OA
HETATM    3  O2  UNL     1       9.725   5.488  43.182  1.00  0.00    -0.201 OA
HETATM    4  C4  UNL     1       8.822   6.453  43.517  1.00  0.00     0.194 C
HETATM    5  C5  UNL     1       8.893   6.697  45.025  1.00  0.00     0.082 C
HETATM    6  C6  UNL     1       7.429   5.934  43.139  1.00  0.00     0.071 C
HETATM    7  C7  UNL     1       7.115   6.575  41.792  1.00  0.00     0.008 C
HETATM    8  C8  UNL     1       8.389   6.510  40.975  1.00  0.00     0.035 C
HETATM    9  C9  UNL     1       9.420   7.415  41.590  1.00  0.00     0.157 C
HETATM   10  O3  UNL     1       9.031   7.684  42.923  1.00  0.00    -0.345 OA
ENDROOT
BRANCH   1  11
HETATM   11  C2  UNL     1      11.248   6.213  40.373  1.00  0.00     0.033 C
HETATM   12  C1  UNL     1      11.795   4.817  40.587  1.00  0.00     0.007 C
ENDBRANCH   1  11
TORSDOF 1
ENDMDL