MODEL 5
REMARK VINA RESULT: -5.033569833      1.758      2.555
REMARK  2 active torsions:
REMARK  status: ('A' for Active; 'I' for Inactive)
REMARK    1  A    between atoms: O1_2  and  C2_3
REMARK    2  A    between atoms: C2_3  and  C3_5
ROOT
HETATM    1  C3  UNL     1       6.869  11.204  43.732  1.00  0.00     0.121 C
HETATM    2  C4  UNL     1       8.364  11.431  43.611  1.00  0.00     0.050 C
HETATM    3  C5  UNL     1       6.268  11.601  42.408  1.00  0.00     0.042 C
HETATM    4  C6  UNL     1       4.857  11.760  42.169  1.00  0.00     0.004 C
HETATM    5  C7  UNL     1       4.137  13.078  42.432  1.00  0.00     0.013 C
HETATM    6  C8  UNL     1       4.282  13.515  43.929  1.00  0.00     0.104 C
HETATM    7  C9  UNL     1       5.384  12.818  44.435  1.00  0.00    -0.074 C
HETATM    8  N1  UNL     1       6.450  12.110  44.852  1.00  0.00    -0.341 N
ATOM      9  H1  UNL     1       6.894  12.177  45.767  1.00  0.00     0.170 HD
ENDROOT
BRANCH   1  10
HETATM   10  C2  UNL     1       6.641   9.808  44.095  1.00  0.00     0.287 C
HETATM   11  O2  UNL     1       6.560   8.892  43.238  1.00  0.00    -0.262 OA
BRANCH  10  12
HETATM   12  O1  UNL     1       6.505   9.444  45.424  1.00  0.00    -0.325 OA
HETATM   13  C1  UNL     1       7.545   8.844  46.176  1.00  0.00     0.213 C
ENDBRANCH  10  12
ENDBRANCH   1  10
TORSDOF 2
ENDMDL