MODEL 1
REMARK VINA RESULT: -5.362186696      0.000      0.000
REMARK  2 active torsions:
REMARK  status: ('A' for Active; 'I' for Inactive)
REMARK    1  A    between atoms: N1_2  and  C2_4
REMARK    2  A    between atoms: C3_7  and  C4_8
ROOT
HETATM    1  C2  UNL     1       5.904  11.813  45.494  1.00  0.00     0.073 C
HETATM    2  N2  UNL     1       6.974  12.177  44.922  1.00  0.00    -0.368 N
ATOM      3  H2  UNL     1       7.713  12.712  45.379  1.00  0.00     0.161 HD
HETATM    4  C3  UNL     1       7.021  11.747  43.555  1.00  0.00     0.160 C
HETATM    5  C6  UNL     1       5.584  11.574  43.214  1.00  0.00    -0.014 C
HETATM    6  C7  UNL     1       4.987  12.967  43.028  1.00  0.00     0.018 C
HETATM    7  C8  UNL     1       5.234  10.720  42.067  1.00  0.00     0.018 C
HETATM    8  C9  UNL     1       5.043  11.068  44.547  1.00  0.00     0.087 C
ENDROOT
BRANCH   1   9
HETATM    9  N1  UNL     1       5.474  12.037  46.844  1.00  0.00    -0.384 N
HETATM   10  C1  UNL     1       4.067  12.188  47.124  1.00  0.00     0.147 C
ATOM     11  H1  UNL     1       6.158  12.091  47.599  1.00  0.00     0.160 HD
ENDBRANCH   1   9
BRANCH   4  12
HETATM   12  C4  UNL     1       7.869  10.571  43.370  1.00  0.00     0.146 C
HETATM   13  C5  UNL     1       8.474  10.171  42.090  1.00  0.00     0.093 C
HETATM   14  O1  UNL     1       8.100   9.868  44.328  1.00  0.00    -0.296 OA
ENDBRANCH   4  12
TORSDOF 2
ENDMDL