MODEL 5
REMARK VINA RESULT: -4.055050422      2.306      4.211
REMARK  2 active torsions:
REMARK  status: ('A' for Active; 'I' for Inactive)
REMARK    1  A    between atoms: C2_2  and  N1_4
REMARK    2  A    between atoms: C4_5  and  N2_6
ROOT
HETATM    1  N1  UNL     1       5.688  12.139  43.530  1.00  0.00    -0.208 N
HETATM    2  C4  UNL     1       4.507  12.897  43.758  1.00  0.00     0.674 C
HETATM    3  N3  UNL     1       3.943  13.177  42.613  1.00  0.00    -0.224 N
ATOM      4  H3  UNL     1       3.081  13.713  42.510  1.00  0.00     0.177 HD
HETATM    5  C7  UNL     1       4.693  12.633  41.521  1.00  0.00     0.163 C
HETATM    6  C8  UNL     1       5.556  11.590  42.201  1.00  0.00     0.117 C
HETATM    7  C9  UNL     1       4.826  10.283  42.173  1.00  0.00     0.034 C
ENDROOT
BRANCH   1   8
HETATM    8  C2  UNL     1       6.744  12.012  44.503  1.00  0.00     0.094 C
HETATM    9  C1  UNL     1       6.620  10.774  45.335  1.00  0.00     0.032 C
HETATM   10  C3  UNL     1       8.117  11.990  43.836  1.00  0.00     0.032 C
ENDBRANCH   1   8
BRANCH   2  11
HETATM   11  N2  UNL     1       3.997  13.299  45.025  1.00  0.00    -0.227 N
HETATM   12  C5  UNL     1       3.868  12.361  46.115  1.00  0.00     0.168 C
HETATM   13  C6  UNL     1       3.596  14.669  45.249  1.00  0.00     0.168 C
ENDBRANCH   2  11
TORSDOF 2
ENDMDL