MODEL 1
REMARK VINA RESULT: -4.327675144      0.000      0.000
REMARK  1 active torsions:
REMARK  status: ('A' for Active; 'I' for Inactive)
REMARK    1  A    between atoms: N3_8  and  C4_10
ROOT
HETATM    1  C1  UNL     1       7.038   8.825  46.001  1.00  0.00     0.078 C
HETATM    2  C2  UNL     1       6.463  10.043  45.322  1.00  0.00     0.066 A
HETATM    3  N1  UNL     1       6.602  11.320  45.638  1.00  0.00    -0.296 N
ATOM      4  H1  UNL     1       7.165  11.583  46.446  1.00  0.00     0.187 HD
HETATM    5  N2  UNL     1       6.038  12.221  44.945  1.00  0.00    -0.279 N
ATOM      6  H2  UNL     1       6.142  13.207  45.186  1.00  0.00     0.189 HD
HETATM    7  C3  UNL     1       5.302  11.850  43.890  1.00  0.00     0.161 A
HETATM    8  N3  UNL     1       4.644  12.618  43.052  1.00  0.00    -0.365 N
ATOM      9  H3  UNL     1       4.113  12.221  42.277  1.00  0.00     0.162 HD
HETATM   10  S1  UNL     1       5.457  10.150  43.939  1.00  0.00    -0.039 SA
ENDROOT
BRANCH   8  11
HETATM   11  C4  UNL     1       4.701  14.042  43.269  1.00  0.00     0.075 C
HETATM   12  C5  UNL     1       4.680  14.776  41.937  1.00  0.00     0.032 C
HETATM   13  C6  UNL     1       3.517  14.429  44.122  1.00  0.00     0.032 C
ENDBRANCH   8  11
TORSDOF 1
ENDMDL