MODEL 5
REMARK VINA RESULT: -5.152736209      3.323      3.972
REMARK  2 active torsions:
REMARK  status: ('A' for Active; 'I' for Inactive)
REMARK    1  A    between atoms: N1_1  and  C1_5
REMARK    2  A    between atoms: C6_10  and  N2_11
ROOT
HETATM    1  C1  UNL     1       4.961  13.313  44.313  1.00  0.00     0.218 C
HETATM    2  C2  UNL     1       5.087  12.845  42.857  1.00  0.00     0.040 C
HETATM    3  C3  UNL     1       6.162  11.772  42.885  1.00  0.00    -0.012 C
HETATM    4  C4  UNL     1       5.460  10.485  43.319  1.00  0.00     0.007 C
HETATM    5  C5  UNL     1       4.492  10.858  44.447  1.00  0.00     0.040 C
HETATM    6  C6  UNL     1       5.059  12.067  45.164  1.00  0.00     0.124 C
HETATM    7  C7  UNL     1       6.562  11.780  45.311  1.00  0.00     0.040 C
HETATM    8  C8  UNL     1       7.175  12.111  43.965  1.00  0.00     0.007 C
ENDROOT
BRANCH   1   9
HETATM    9  N1  UNL     1       3.722  14.006  44.447  1.00  0.00    -0.072 N
ATOM     10  H13 UNL     1       2.943  13.508  44.018  1.00  0.00     0.274 HD
ATOM     11  H12 UNL     1       3.372  14.008  45.405  1.00  0.00     0.274 HD
ATOM     12  H11 UNL     1       3.845  14.947  44.070  1.00  0.00     0.274 HD
ENDBRANCH   1   9
BRANCH   6  13
HETATM   13  N2  UNL     1       4.536  12.235  46.475  1.00  0.00    -0.143 N
HETATM   14  O1  UNL     1       3.323  12.089  46.688  1.00  0.00    -0.536 OA
HETATM   15  O2  UNL     1       5.335  12.558  47.536  1.00  0.00    -0.536 OA
ENDBRANCH   6  13
TORSDOF 2
ENDMDL