MODEL 3
REMARK VINA RESULT: -4.593945255      2.588      3.448
REMARK  3 active torsions:
REMARK  status: ('A' for Active; 'I' for Inactive)
REMARK       I    between atoms: C2_2  and  N1_4
REMARK    1  A    between atoms: N1_4  and  N2_6
REMARK    2  A    between atoms: N3_8  and  O2_9
REMARK    3  A    between atoms: N3_8  and  C3_11
ROOT
HETATM    1  N2  UNL     1       4.910  12.390  44.406  1.00  0.00    -0.218 N
ATOM      2  H2  UNL     1       4.653  12.293  43.423  1.00  0.00     0.210 HD
HETATM    3  N3  UNL     1       5.912  11.744  44.774  1.00  0.00    -0.178 N
ENDROOT
BRANCH   1   4
HETATM    4  N1  UNL     1       4.112  13.212  45.153  1.00  0.00    -0.254 N
HETATM    5  C2  UNL     1       3.570  14.429  44.682  1.00  0.00     0.233 C
HETATM    6  C1  UNL     1       2.715  15.273  45.537  1.00  0.00     0.119 C
HETATM    7  O1  UNL     1       3.834  14.778  43.511  1.00  0.00    -0.272 OA
ATOM      8  H1  UNL     1       3.895  12.929  46.109  1.00  0.00     0.191 HD
ENDBRANCH   1   4
BRANCH   3   9
HETATM    9  O2  UNL     1       6.244  11.887  46.103  1.00  0.00    -0.270 OA
ATOM     10  H2  UNL     1       5.537  12.178  46.667  1.00  0.00     0.246 HD
ENDBRANCH   3   9
BRANCH   3  11
HETATM   11  C3  UNL     1       6.733  10.892  43.982  1.00  0.00     0.067 C
HETATM   12  C4  UNL     1       8.054  11.587  43.624  1.00  0.00     0.042 C
HETATM   13  C5  UNL     1       6.089  10.408  42.715  1.00  0.00     0.042 C
HETATM   14  C6  UNL     1       7.025   9.640  44.810  1.00  0.00     0.042 C
ENDBRANCH   3  11
TORSDOF 3
ENDMDL