MODEL 4
REMARK VINA RESULT: -4.663860893      1.664      2.488
REMARK  1 active torsions:
REMARK  status: ('A' for Active; 'I' for Inactive)
REMARK    1  A    between atoms: C2_2  and  N1_3
ROOT
HETATM    1  N1  UNL     1       8.255   7.760  43.133  1.00  0.00    -0.345 N
HETATM    2  C3  UNL     1       8.842   6.580  43.722  1.00  0.00     0.187 C
HETATM    3  N2  UNL     1       9.208   6.502  45.124  1.00  0.00    -0.064 NA
HETATM    4  N3  UNL     1       8.992   5.669  42.866  1.00  0.00    -0.354 N
ATOM      5  H3  UNL     1       9.387   4.749  43.059  1.00  0.00     0.163 HD
HETATM    6  C4  UNL     1       8.530   6.105  41.586  1.00  0.00     0.050 C
HETATM    7  C5  UNL     1       7.154   5.442  41.408  1.00  0.00     0.041 C
HETATM    8  C6  UNL     1       9.462   5.707  40.471  1.00  0.00     0.041 C
HETATM    9  C7  UNL     1       8.341   7.567  41.706  1.00  0.00     0.052 C
HETATM   10  C8  UNL     1       9.484   8.371  41.130  1.00  0.00     0.041 C
HETATM   11  C9  UNL     1       7.086   7.992  40.977  1.00  0.00     0.041 C
ENDROOT
BRANCH   1  12
HETATM   12  C2  UNL     1       7.747   8.864  43.897  1.00  0.00     0.122 C
HETATM   13  C1  UNL     1       6.381   8.528  44.496  1.00  0.00     0.026 C
ENDBRANCH   1  12
TORSDOF 1
ENDMDL