MODEL 5
REMARK VINA RESULT: -4.372554573      1.308      1.637
REMARK  2 active torsions:
REMARK  status: ('A' for Active; 'I' for Inactive)
REMARK    1  A    between atoms: O1_2  and  C2_3
REMARK    2  A    between atoms: C2_3  and  C3_5
ROOT
HETATM    1  C3  UNL     1       6.278  11.601  43.039  1.00  0.00     0.126 C
HETATM    2  C4  UNL     1       5.760  12.627  44.011  1.00  0.00     0.023 C
HETATM    3  C5  UNL     1       4.388  13.109  43.737  1.00  0.00     0.012 C
HETATM    4  C6  UNL     1       5.924  11.918  45.332  1.00  0.00     0.238 C
HETATM    5  N1  UNL     1       7.109  11.133  45.202  1.00  0.00    -0.066 N
ATOM      6  H11 UNL     1       7.031  10.230  45.669  1.00  0.00     0.278 HD
ATOM      7  H12 UNL     1       7.886  11.507  45.746  1.00  0.00     0.278 HD
HETATM    8  C7  UNL     1       7.430  11.003  43.808  1.00  0.00     0.131 C
HETATM    9  C8  UNL     1       7.678   9.565  43.480  1.00  0.00     0.046 C
HETATM   10  C9  UNL     1       8.653  11.850  43.529  1.00  0.00     0.046 C
ENDROOT
BRANCH   1  11
HETATM   11  C2  UNL     1       5.274  10.619  42.630  1.00  0.00     0.265 C
HETATM   12  O2  UNL     1       4.626   9.878  43.411  1.00  0.00    -0.265 OA
BRANCH  11  13
HETATM   13  O1  UNL     1       5.010  10.487  41.273  1.00  0.00    -0.326 OA
HETATM   14  C1  UNL     1       4.764  11.649  40.471  1.00  0.00     0.213 C
ENDBRANCH  11  13
ENDBRANCH   1  11
TORSDOF 2
ENDMDL