MODEL 2
REMARK VINA RESULT: -5.528473466      2.205      3.069
REMARK  2 active torsions:
REMARK  status: ('A' for Active; 'I' for Inactive)
REMARK    1  A    between atoms: O1_2  and  C2_3
REMARK    2  A    between atoms: C2_3  and  C3_5
ROOT
HETATM    1  C3  UNL     1       4.448  13.587  42.568  1.00  0.00     0.046 C
HETATM    2  C4  UNL     1       5.404  12.691  42.584  1.00  0.00     0.026 C
HETATM    3  C5  UNL     1       5.476  12.000  43.889  1.00  0.00     0.138 C
HETATM    4  C6  UNL     1       6.903  12.085  44.371  1.00  0.00     0.050 C
HETATM    5  C7  UNL     1       5.109  10.535  43.770  1.00  0.00     0.050 C
HETATM    6  N1  UNL     1       4.543  12.685  44.729  1.00  0.00    -0.056 N
ATOM      7  H11 UNL     1       4.985  13.161  45.516  1.00  0.00     0.279 HD
ATOM      8  H12 UNL     1       3.954  12.054  45.274  1.00  0.00     0.279 HD
HETATM    9  C8  UNL     1       3.790  13.572  43.881  1.00  0.00     0.221 C
HETATM   10  C9  UNL     1       3.733  14.916  44.550  1.00  0.00     0.045 C
ENDROOT
BRANCH   1  11
HETATM   11  C2  UNL     1       4.110  14.436  41.452  1.00  0.00     0.290 C
HETATM   12  O2  UNL     1       4.668  15.567  41.306  1.00  0.00    -0.260 OA
BRANCH  11  13
HETATM   13  O1  UNL     1       3.179  14.097  40.478  1.00  0.00    -0.323 OA
HETATM   14  C1  UNL     1       2.513  15.078  39.700  1.00  0.00     0.213 C
ENDBRANCH  11  13
ENDBRANCH   1  11
TORSDOF 2
ENDMDL