MODEL 3
REMARK VINA RESULT: -3.987372066      9.747     10.579
REMARK  3 active torsions:
REMARK  status: ('A' for Active; 'I' for Inactive)
REMARK    1  A    between atoms: N1_3  and  C3_5
REMARK    2  A    between atoms: C3_5  and  S2_7
REMARK    3  A    between atoms: S2_7  and  C4_8
ROOT
HETATM    1  C1  UNL     1       3.336  16.940  47.178  1.00  0.00     0.037 C
HETATM    2  C2  UNL     1       3.215  16.118  46.296  1.00  0.00     0.001 C
HETATM    3  N1  UNL     1       3.025  15.183  45.282  1.00  0.00    -0.301 N
ATOM      4  H1  UNL     1       2.171  15.294  44.737  1.00  0.00     0.177 HD
ENDROOT
BRANCH   3   5
HETATM    5  C3  UNL     1       3.838  14.115  44.908  1.00  0.00     0.146 C
HETATM    6  S1  UNL     1       3.889  12.864  46.048  1.00  0.00    -0.052 SA
BRANCH   5   7
HETATM    7  S2  UNL     1       4.788  13.901  43.454  1.00  0.00    -0.086 SA
BRANCH   7   8
HETATM    8  C4  UNL     1       3.988  13.278  42.015  1.00  0.00     0.205 C
HETATM    9  C5  UNL     1       3.618  14.400  41.132  1.00  0.00     0.069 C
HETATM   10  N2  UNL     1       3.343  15.291  40.436  1.00  0.00    -0.197 NA
ENDBRANCH   7   8
ENDBRANCH   5   7
ENDBRANCH   3   5
TORSDOF 3
ENDMDL