MODEL 4
REMARK VINA RESULT: -4.877074526      0.179      1.082
REMARK  2 active torsions:
REMARK  status: ('A' for Active; 'I' for Inactive)
REMARK    1  A    between atoms: C2_2  and  C4_4
REMARK    2  A    between atoms: C6_8  and  N2_9
ROOT
HETATM    1  C4  UNL     1       4.382  12.612  45.035  1.00  0.00     0.076 C
HETATM    2  C5  UNL     1       5.472  12.719  46.081  1.00  0.00     0.137 C
HETATM    3  N1  UNL     1       6.071  11.458  46.319  1.00  0.00    -0.370 N
ATOM      4  H1  UNL     1       6.485  11.251  47.228  1.00  0.00     0.161 HD
HETATM    5  C6  UNL     1       6.090  10.593  45.403  1.00  0.00     0.137 C
HETATM    6  S1  UNL     1       5.247  11.350  44.001  1.00  0.00    -0.087 SA
ENDROOT
BRANCH   1   7
HETATM    7  C2  UNL     1       4.277  13.919  44.319  1.00  0.00    -0.007 C
HETATM    8  C1  UNL     1       3.890  13.763  42.872  1.00  0.00     0.011 C
HETATM    9  C3  UNL     1       3.175  14.718  44.988  1.00  0.00     0.011 C
ENDBRANCH   1   7
BRANCH   5  10
HETATM   10  N2  UNL     1       6.644   9.285  45.462  1.00  0.00    -0.371 N
HETATM   11  C7  UNL     1       6.232   8.349  44.434  1.00  0.00     0.151 C
HETATM   12  C8  UNL     1       7.583   8.870  46.488  1.00  0.00     0.151 C
ENDBRANCH   5  10
TORSDOF 2
ENDMDL