MODEL 4
REMARK VINA RESULT: -5.192633150      1.658      2.942
REMARK  1 active torsions:
REMARK  status: ('A' for Active; 'I' for Inactive)
REMARK    1  A    between atoms: C5_7  and  C6_8
ROOT
HETATM    1  N1  UNL     1       4.922  11.599  47.426  1.00  0.00    -0.172 NA
HETATM    2  C1  UNL     1       4.806  12.618  46.878  1.00  0.00     0.180 C
HETATM    3  N2  UNL     1       4.660  13.835  46.209  1.00  0.00    -0.314 N
HETATM    4  C2  UNL     1       4.271  15.082  46.837  1.00  0.00     0.135 C
HETATM    5  C3  UNL     1       4.939  16.096  45.911  1.00  0.00     0.023 C
HETATM    6  C4  UNL     1       4.479  15.521  44.571  1.00  0.00     0.029 C
HETATM    7  C5  UNL     1       4.859  14.090  44.794  1.00  0.00     0.109 C
ENDROOT
BRANCH   7   8
HETATM    8  C6  UNL     1       4.193  13.100  43.916  1.00  0.00     0.071 C
HETATM    9  C7  UNL     1       3.772  13.513  42.583  1.00  0.00     0.018 C
HETATM   10  C8  UNL     1       4.564  12.886  41.502  1.00  0.00     0.011 C
HETATM   11  C9  UNL     1       5.040  11.534  41.883  1.00  0.00     0.074 C
HETATM   12  S1  UNL     1       5.295  11.678  43.669  1.00  0.00    -0.162 SA
ENDBRANCH   7   8
TORSDOF 1
ENDMDL