MODEL 1
REMARK VINA RESULT: -5.674073180      0.000      0.000
REMARK  2 active torsions:
REMARK  status: ('A' for Active; 'I' for Inactive)
REMARK    1  A    between atoms: N2_6  and  O1_8
REMARK    2  A    between atoms: O1_8  and  C5_9
ROOT
HETATM    1  C1  UNL     1       6.117  10.495  42.033  1.00  0.00     0.148 C
HETATM    2  N1  UNL     1       5.373  11.502  42.683  1.00  0.00    -0.397 N
HETATM    3  C2  UNL     1       5.087  12.676  41.994  1.00  0.00     0.063 C
HETATM    4  C3  UNL     1       3.851  13.344  42.563  1.00  0.00     0.099 C
HETATM    5  C4  UNL     1       4.062  13.521  44.010  1.00  0.00     0.016 C
HETATM    6  N2  UNL     1       3.528  14.512  44.603  1.00  0.00    -0.274 N
ATOM      7  H2  UNL     1       2.964  15.158  44.050  1.00  0.00     0.193 HD
HETATM    8  C9  UNL     1       4.886  12.555  44.757  1.00  0.00     0.074 C
HETATM    9  C10 UNL     1       4.843  11.251  43.946  1.00  0.00     0.127 C
ENDROOT
BRANCH   6  10
HETATM   10  O1  UNL     1       3.667  14.759  45.940  1.00  0.00    -0.271 OA
BRANCH  10  11
HETATM   11  C5  UNL     1       4.391  15.937  46.304  1.00  0.00     0.078 C
HETATM   12  C6  UNL     1       4.643  16.690  45.016  1.00  0.00     0.048 C
HETATM   13  C7  UNL     1       3.536  16.705  47.263  1.00  0.00     0.048 C
HETATM   14  C8  UNL     1       5.731  15.547  46.883  1.00  0.00     0.048 C
ENDBRANCH  10  11
ENDBRANCH   6  10
TORSDOF 2
ENDMDL