MODEL 2
REMARK VINA RESULT: -4.827714116      0.743      2.192
REMARK  2 active torsions:
REMARK  status: ('A' for Active; 'I' for Inactive)
REMARK    1  A    between atoms: C2_3  and  N2_4
REMARK    2  A    between atoms: N2_4  and  C3_6
ROOT
HETATM    1  C1  UNL     1       6.382  15.292  47.231  1.00  0.00     0.169 C
HETATM    2  N1  UNL     1       5.244  14.794  46.492  1.00  0.00    -0.212 N
HETATM    3  C2  UNL     1       4.935  13.448  46.235  1.00  0.00     0.676 C
HETATM    4  N3  UNL     1       3.783  13.332  45.668  1.00  0.00    -0.224 N
ATOM      5  H3  UNL     1       3.367  12.442  45.395  1.00  0.00     0.177 HD
HETATM    6  C4  UNL     1       3.156  14.608  45.467  1.00  0.00     0.168 C
HETATM    7  C5  UNL     1       4.224  15.596  45.887  1.00  0.00     0.058 C
HETATM    8  C6  UNL     1       4.700  16.330  44.655  1.00  0.00     0.040 C
HETATM    9  C7  UNL     1       3.711  16.564  46.941  1.00  0.00     0.040 C
ENDROOT
BRANCH   3  10
HETATM   10  N2  UNL     1       5.760  12.341  46.546  1.00  0.00    -0.193 N
ATOM     11  H2  UNL     1       6.323  12.378  47.396  1.00  0.00     0.184 HD
BRANCH  10  12
HETATM   12  C3  UNL     1       5.832  11.302  45.818  1.00  0.00     0.188 C
HETATM   13  S1  UNL     1       6.381   9.966  45.113  1.00  0.00    -0.074 SA
ENDBRANCH  10  12
ENDBRANCH   3  10
TORSDOF 2
ENDMDL