MODEL 1
REMARK VINA RESULT: -5.226831478      0.000      0.000
REMARK  1 active torsions:
REMARK  status: ('A' for Active; 'I' for Inactive)
REMARK    1  A    between atoms: N1_4  and  C4_5
ROOT
HETATM    1  C1  UNL     1       4.810  13.263  41.876  1.00  0.00     0.007 C
HETATM    2  C2  UNL     1       4.692  11.972  42.644  1.00  0.00     0.044 C
HETATM    3  C3  UNL     1       4.883  12.170  44.133  1.00  0.00     0.058 C
HETATM    4  N1  UNL     1       4.139  13.187  44.704  1.00  0.00    -0.388 N
HETATM    5  C8  UNL     1       3.704  14.195  43.798  1.00  0.00     0.122 C
HETATM    6  C9  UNL     1       4.837  14.457  42.829  1.00  0.00     0.020 C
ENDROOT
BRANCH   4   7
HETATM    7  C4  UNL     1       4.118  13.470  46.056  1.00  0.00     0.093 C
HETATM    8  C5  UNL     1       5.318  13.222  46.879  1.00  0.00     0.036 C
HETATM    9  C6  UNL     1       6.291  14.324  46.819  1.00  0.00     0.076 C
HETATM   10  S1  UNL     1       5.224  15.772  46.459  1.00  0.00    -0.167 SA
HETATM   11  C7  UNL     1       3.629  14.886  46.309  1.00  0.00     0.099 C
ENDBRANCH   4   7
TORSDOF 1
ENDMDL