MODEL 2
REMARK VINA RESULT: -5.756129296      1.668      2.283
REMARK  1 active torsions:
REMARK  status: ('A' for Active; 'I' for Inactive)
REMARK    1  A    between atoms: C3_3  and  N1_4
ROOT
HETATM    1  C1  UNL     1       4.000  13.509  43.332  1.00  0.00     0.052 C
HETATM    2  C2  UNL     1       4.764  12.300  43.669  1.00  0.00    -0.010 A
HETATM    3  C3  UNL     1       5.177  11.931  44.933  1.00  0.00     0.075 A
HETATM    4  C6  UNL     1       5.865  10.722  44.779  1.00  0.00     0.143 A
HETATM    5  C7  UNL     1       6.451  10.014  45.881  1.00  0.00     0.120 C
HETATM    6  N2  UNL     1       6.923   9.438  46.771  1.00  0.00    -0.190 NA
HETATM    7  N3  UNL     1       5.864  10.380  43.479  1.00  0.00    -0.344 N
HETATM    8  C8  UNL     1       6.489   9.181  42.962  1.00  0.00     0.157 C
HETATM    9  C9  UNL     1       5.203  11.321  42.783  1.00  0.00     0.016 A
HETATM   10  C10 UNL     1       4.953  11.361  41.323  1.00  0.00     0.069 C
ENDROOT
BRANCH   3  11
HETATM   11  N1  UNL     1       4.943  12.646  46.139  1.00  0.00    -0.387 N
HETATM   12  C4  UNL     1       5.870  13.701  46.535  1.00  0.00     0.149 C
HETATM   13  C5  UNL     1       3.815  12.368  46.995  1.00  0.00     0.149 C
ENDBRANCH   3  11
TORSDOF 1
ENDMDL