MODEL 5
REMARK VINA RESULT: -4.450690589      1.601      2.999
REMARK  1 active torsions:
REMARK  status: ('A' for Active; 'I' for Inactive)
REMARK    1  A    between atoms: C2_2  and  N1_3
ROOT
HETATM    1  N1  UNL     1       4.835  12.140  43.225  1.00  0.00    -0.363 N
HETATM    2  C3  UNL     1       4.676  11.508  44.528  1.00  0.00     0.200 C
HETATM    3  S1  UNL     1       4.437  12.828  45.736  1.00  0.00    -0.119 SA
HETATM    4  C4  UNL     1       3.993  14.387  44.945  1.00  0.00     0.074 C
HETATM    5  C5  UNL     1       2.675  14.908  45.533  1.00  0.00     0.050 C
HETATM    6  C6  UNL     1       5.010  15.463  45.256  1.00  0.00     0.050 C
HETATM    7  N2  UNL     1       3.786  14.285  43.549  1.00  0.00    -0.362 N
ATOM      8  H2  UNL     1       3.300  15.057  43.092  1.00  0.00     0.162 HD
HETATM    9  C7  UNL     1       4.156  13.309  42.813  1.00  0.00     0.072 C
HETATM   10  C8  UNL     1       3.803  13.417  41.343  1.00  0.00     0.088 C
ENDROOT
BRANCH   1  11
HETATM   11  C2  UNL     1       5.733  11.476  42.304  1.00  0.00     0.120 C
HETATM   12  C1  UNL     1       5.876  10.004  42.650  1.00  0.00     0.026 C
ENDBRANCH   1  11
TORSDOF 1
ENDMDL