MODEL 5
REMARK VINA RESULT: -5.385429222      2.180      7.004
REMARK  3 active torsions:
REMARK  status: ('A' for Active; 'I' for Inactive)
REMARK    1  A    between atoms: C2_3  and  C3_4
REMARK    2  A    between atoms: C4_5  and  C5_6
REMARK    3  A    between atoms: C6_7  and  C7_8
ROOT
HETATM    1  N1  UNL     1       5.108  16.412  48.006  1.00  0.00    -0.196 NA
HETATM    2  C1  UNL     1       4.298  16.270  47.219  1.00  0.00     0.071 C
HETATM    3  C2  UNL     1       3.273  16.107  46.209  1.00  0.00     0.217 C
ENDROOT
BRANCH   3   4
HETATM    4  C3  UNL     1       3.681  15.063  45.267  1.00  0.00    -0.088 C
HETATM    5  C4  UNL     1       4.023  14.193  44.479  1.00  0.00    -0.077 C
BRANCH   5   6
HETATM    6  C5  UNL     1       4.402  13.166  43.559  1.00  0.00     0.067 C
HETATM    7  C6  UNL     1       4.141  13.260  42.281  1.00  0.00     0.045 C
BRANCH   7   8
HETATM    8  C7  UNL     1       4.536  12.199  41.352  1.00  0.00     0.070 C
HETATM    9  N2  UNL     1       4.393  12.104  40.111  1.00  0.00    -0.363 N
HETATM   10  C8  UNL     1       4.844  11.001  39.395  1.00  0.00     0.072 C
ATOM     11  H2  UNL     1       3.930  12.863  39.609  1.00  0.00     0.165 HD
HETATM   12  C9  UNL     1       5.076   9.799  40.271  1.00  0.00     0.125 C
HETATM   13  S1  UNL     1       5.373  10.693  41.855  1.00  0.00    -0.107 SA
ENDBRANCH   7   8
ENDBRANCH   5   6
ENDBRANCH   3   4
TORSDOF 3
ENDMDL