MODEL 4
REMARK VINA RESULT: -5.315554268      2.798      4.127
REMARK  2 active torsions:
REMARK  status: ('A' for Active; 'I' for Inactive)
REMARK    1  A    between atoms: C2_2  and  O1_4
REMARK    2  A    between atoms: O1_4  and  C4_5
ROOT
HETATM    1  C4  UNL     1       5.604  11.241  45.690  1.00  0.00     0.217 C
HETATM    2  N1  UNL     1       5.402  11.308  44.422  1.00  0.00    -0.356 N
ATOM      3  H1  UNL     1       5.758  10.594  43.787  1.00  0.00     0.163 HD
HETATM    4  C5  UNL     1       4.645  12.445  43.935  1.00  0.00     0.129 C
HETATM    5  C6  UNL     1       5.127  13.734  44.565  1.00  0.00     0.022 C
HETATM    6  C7  UNL     1       4.201  14.843  44.075  1.00  0.00     0.014 C
HETATM    7  C8  UNL     1       5.063  13.637  46.060  1.00  0.00     0.088 C
HETATM    8  C9  UNL     1       6.226  14.340  46.730  1.00  0.00     0.033 C
HETATM    9  N2  UNL     1       5.078  12.270  46.507  1.00  0.00    -0.347 N
HETATM   10  C10 UNL     1       4.553  11.896  47.834  1.00  0.00     0.153 C
ENDROOT
BRANCH   1  11
HETATM   11  O1  UNL     1       6.325  10.174  46.231  1.00  0.00    -0.318 OA
BRANCH  11  12
HETATM   12  C2  UNL     1       7.065   9.288  45.429  1.00  0.00     0.123 C
HETATM   13  C1  UNL     1       8.156   8.700  46.320  1.00  0.00     0.040 C
HETATM   14  C3  UNL     1       6.220   8.142  44.918  1.00  0.00     0.040 C
ENDBRANCH  11  12
ENDBRANCH   1  11
TORSDOF 2
ENDMDL