MODEL 2
REMARK VINA RESULT: -5.720799641      1.057      2.315
REMARK  2 active torsions:
REMARK  status: ('A' for Active; 'I' for Inactive)
REMARK    1  A    between atoms: C4_7  and  S1_8
REMARK    2  A    between atoms: S1_8  and  C5_9
ROOT
HETATM    1  C1  UNL     1       3.168  15.192  45.703  1.00  0.00     0.151 C
HETATM    2  N1  UNL     1       4.515  14.912  46.155  1.00  0.00    -0.365 N
HETATM    3  C2  UNL     1       5.319  15.867  46.885  1.00  0.00     0.144 A
HETATM    4  C3  UNL     1       6.545  15.090  47.228  1.00  0.00     0.141 A
HETATM    5  N2  UNL     1       6.401  13.824  46.585  1.00  0.00    -0.369 N
ATOM      6  H2  UNL     1       7.110  13.090  46.600  1.00  0.00     0.161 HD
HETATM    7  C4  UNL     1       5.266  13.720  45.983  1.00  0.00     0.138 A
ENDROOT
BRANCH   7   8
HETATM    8  S1  UNL     1       4.660  12.302  45.046  1.00  0.00    -0.089 SA
BRANCH   8   9
HETATM    9  C5  UNL     1       4.936  12.523  43.286  1.00  0.00     0.055 C
HETATM   10  C6  UNL     1       4.877  11.251  42.495  1.00  0.00     0.015 C
HETATM   11  C7  UNL     1       4.899  11.802  41.065  1.00  0.00     0.001 C
HETATM   12  C8  UNL     1       4.204  13.148  41.155  1.00  0.00     0.001 C
HETATM   13  C9  UNL     1       3.915  13.383  42.627  1.00  0.00     0.015 C
ENDBRANCH   8   9
ENDBRANCH   7   8
TORSDOF 2
ENDMDL