MODEL 2
REMARK VINA RESULT: -4.451118949      6.348      7.204
REMARK  1 active torsions:
REMARK  status: ('A' for Active; 'I' for Inactive)
REMARK    1  A    between atoms: C2_2  and  O1_3
ROOT
HETATM    1  C1  UNL     1      11.194   5.313  41.470  1.00  0.00     0.048 C
HETATM    2  C2  UNL     1      10.257   6.112  42.334  1.00  0.00     0.087 C
HETATM    3  C3  UNL     1       9.738   7.353  41.651  1.00  0.00     0.070 C
HETATM    4  C4  UNL     1       8.289   7.057  41.315  1.00  0.00     0.276 C
HETATM    5  N1  UNL     1       8.058   5.674  41.598  1.00  0.00     0.096 N
HETATM    6  C5  UNL     1       6.782   5.445  42.283  1.00  0.00     0.273 C
HETATM    7  C6  UNL     1       6.916   6.127  43.616  1.00  0.00     0.032 C
HETATM    8  C7  UNL     1       8.392   6.051  43.897  1.00  0.00     0.040 C
HETATM    9  C8  UNL     1       8.992   5.383  42.676  1.00  0.00     0.256 C
ENDROOT
BRANCH   2  10
HETATM   10  O1  UNL     1      10.906   6.422  43.525  1.00  0.00    -0.388 OA
ATOM     11  H1  UNL     1      10.437   6.011  44.242  1.00  0.00     0.210 HD
ENDBRANCH   2  10
TORSDOF 1
ENDMDL