MODEL 2
REMARK VINA RESULT: -4.611921429      2.005      3.564
REMARK  1 active torsions:
REMARK  status: ('A' for Active; 'I' for Inactive)
REMARK    1  A    between atoms: C7_8  and  O1_10
ROOT
HETATM    1  C1  UNL     1       3.069  15.448  46.385  1.00  0.00     0.015 C
HETATM    2  C2  UNL     1       3.095  14.178  45.566  1.00  0.00     0.044 C
HETATM    3  C3  UNL     1       3.670  14.536  44.207  1.00  0.00     0.279 C
HETATM    4  N1  UNL     1       3.724  13.349  43.415  1.00  0.00     0.084 N
HETATM    5  C4  UNL     1       4.162  13.687  42.052  1.00  0.00     0.309 C
HETATM    6  C5  UNL     1       4.539  12.309  43.939  1.00  0.00     0.275 C
HETATM    7  C6  UNL     1       4.755  12.299  45.391  1.00  0.00     0.068 C
HETATM    8  C7  UNL     1       3.782  13.044  46.226  1.00  0.00     0.061 C
HETATM    9  C8  UNL     1       2.711  12.136  46.834  1.00  0.00     0.046 C
ENDROOT
BRANCH   8  10
HETATM   10  O1  UNL     1       4.498  13.566  47.330  1.00  0.00    -0.390 OA
ATOM     11  H1  UNL     1       5.421  13.397  47.178  1.00  0.00     0.210 HD
ENDBRANCH   8  10
TORSDOF 1
ENDMDL