MODEL 2
REMARK VINA RESULT: -4.689203843      1.432      3.588
REMARK  1 active torsions:
REMARK  status: ('A' for Active; 'I' for Inactive)
REMARK    1  A    between atoms: O1_1  and  C1_3
ROOT
HETATM    1  C1  UNL     1       5.209  12.383  43.786  1.00  0.00     0.258 C
HETATM    2  C2  UNL     1       4.289  11.829  44.843  1.00  0.00     0.071 C
HETATM    3  C3  UNL     1       4.047  12.967  45.842  1.00  0.00     0.007 C
HETATM    4  C4  UNL     1       3.250  14.014  45.065  1.00  0.00     0.030 C
HETATM    5  C5  UNL     1       4.129  14.537  43.980  1.00  0.00     0.276 C
HETATM    6  N1  UNL     1       4.783  13.581  43.185  1.00  0.00     0.123 N
HETATM    7  C6  UNL     1       4.090  13.290  41.958  1.00  0.00     0.276 C
HETATM    8  C7  UNL     1       4.535  11.926  41.503  1.00  0.00     0.035 C
HETATM    9  C8  UNL     1       5.355  11.387  42.641  1.00  0.00     0.073 C
ENDROOT
BRANCH   1  10
HETATM   10  O1  UNL     1       6.483  12.482  44.369  1.00  0.00    -0.363 OA
ATOM     11  H1  UNL     1       7.104  12.163  43.725  1.00  0.00     0.212 HD
ENDBRANCH   1  10
TORSDOF 1
ENDMDL