MODEL 5
REMARK VINA RESULT: -4.816721836      1.876      4.173
REMARK  0 active torsions:
REMARK  status: ('A' for Active; 'I' for Inactive)
ROOT
HETATM    1  C1  UNL     1       3.750  12.289  47.141  1.00  0.00     0.010 C
HETATM    2  C2  UNL     1       3.689  12.586  45.655  1.00  0.00    -0.015 C
HETATM    3  C3  UNL     1       5.099  12.456  45.145  1.00  0.00     0.025 C
HETATM    4  C4  UNL     1       5.263  12.946  43.734  1.00  0.00     0.135 C
HETATM    5  N1  UNL     1       4.172  13.787  43.313  1.00  0.00    -0.316 N
HETATM    6  C5  UNL     1       3.751  13.737  41.989  1.00  0.00     0.180 C
HETATM    7  N2  UNL     1       3.388  13.708  40.888  1.00  0.00    -0.172 NA
HETATM    8  C6  UNL     1       3.529  14.657  44.235  1.00  0.00     0.091 C
HETATM    9  C7  UNL     1       4.378  15.893  44.557  1.00  0.00     0.033 C
HETATM   10  C8  UNL     1       3.099  13.942  45.483  1.00  0.00     0.030 C
ENDROOT
TORSDOF 0
ENDMDL