MODEL 1
REMARK VINA RESULT: -4.547767816      0.000      0.000
REMARK  1 active torsions:
REMARK  status: ('A' for Active; 'I' for Inactive)
REMARK    1  A    between atoms: O1_1  and  C1_3
ROOT
HETATM    1  C1  UNL     1       5.730  10.827  45.220  1.00  0.00     0.126 C
HETATM    2  C2  UNL     1       5.276   9.924  44.109  1.00  0.00     0.064 C
HETATM    3  C3  UNL     1       5.341  10.511  42.758  1.00  0.00     0.123 C
HETATM    4  C4  UNL     1       6.738  10.261  42.194  1.00  0.00     0.032 C
HETATM    5  C5  UNL     1       7.798  10.539  43.195  1.00  0.00     0.003 C
HETATM    6  C6  UNL     1       7.655  11.816  43.943  1.00  0.00     0.009 C
HETATM    7  C7  UNL     1       6.356  12.041  44.605  1.00  0.00     0.038 C
HETATM    8  C8  UNL     1       5.333  12.643  43.665  1.00  0.00     0.175 C
HETATM    9  O2  UNL     1       5.004  11.819  42.625  1.00  0.00    -0.385 OA
ENDROOT
BRANCH   1  10
HETATM   10  O1  UNL     1       6.495  10.210  46.175  1.00  0.00    -0.395 OA
ATOM     11  H1  UNL     1       6.826  10.791  46.849  1.00  0.00     0.210 HD
ENDBRANCH   1  10
TORSDOF 1
ENDMDL