MODEL 5
REMARK VINA RESULT: -4.921134738      2.104      2.778
REMARK  1 active torsions:
REMARK  status: ('A' for Active; 'I' for Inactive)
REMARK    1  A    between atoms: O1_1  and  C1_3
ROOT
HETATM    1  C1  UNL     1       5.427  12.022  45.916  1.00  0.00     0.119 C
HETATM    2  C2  UNL     1       4.265  12.428  45.019  1.00  0.00     0.032 C
HETATM    3  C3  UNL     1       4.842  12.691  43.649  1.00  0.00     0.004 C
HETATM    4  C4  UNL     1       5.471  11.462  43.045  1.00  0.00     0.014 C
HETATM    5  C5  UNL     1       6.578  11.011  43.938  1.00  0.00     0.005 C
HETATM    6  C6  UNL     1       7.401   9.847  43.463  1.00  0.00     0.179 C
HETATM    7  O2  UNL     1       8.233  10.746  42.813  1.00  0.00    -0.389 OA
HETATM    8  C7  UNL     1       7.891  11.683  43.816  1.00  0.00     0.179 C
HETATM    9  C8  UNL     1       6.036  10.765  45.308  1.00  0.00     0.045 C
ENDROOT
BRANCH   1  10
HETATM   10  O1  UNL     1       4.991  11.680  47.186  1.00  0.00    -0.396 OA
ATOM     11  H1  UNL     1       4.672  12.439  47.660  1.00  0.00     0.210 HD
ENDBRANCH   1  10
TORSDOF 1
ENDMDL