MODEL 5
REMARK VINA RESULT: -4.680750180      3.756      5.776
REMARK  1 active torsions:
REMARK  status: ('A' for Active; 'I' for Inactive)
REMARK    1  A    between atoms: C3_3  and  O1_4
ROOT
HETATM    1  C1  UNL     1       3.683  13.708  42.084  1.00  0.00     0.017 C
HETATM    2  C2  UNL     1       4.362  12.878  42.637  1.00  0.00    -0.050 C
HETATM    3  C3  UNL     1       5.169  11.852  43.313  1.00  0.00     0.230 C
HETATM    4  C4  UNL     1       5.326  12.150  44.779  1.00  0.00     0.086 C
HETATM    5  C5  UNL     1       6.686  11.624  45.104  1.00  0.00     0.044 C
HETATM    6  C6  UNL     1       7.303  11.370  43.752  1.00  0.00     0.058 C
HETATM    7  C7  UNL     1       8.678  12.019  43.652  1.00  0.00     0.045 C
HETATM    8  C8  UNL     1       7.509   9.887  43.602  1.00  0.00     0.045 C
HETATM    9  O2  UNL     1       6.441  11.901  42.803  1.00  0.00    -0.335 OA
ENDROOT
BRANCH   3  10
HETATM   10  O1  UNL     1       4.539  10.614  43.091  1.00  0.00    -0.355 OA
ATOM     11  H1  UNL     1       4.921   9.991  43.697  1.00  0.00     0.214 HD
ENDBRANCH   3  10
TORSDOF 1
ENDMDL