MODEL 5
REMARK VINA RESULT: -4.880724642      1.918      3.081
REMARK  1 active torsions:
REMARK  status: ('A' for Active; 'I' for Inactive)
REMARK    1  A    between atoms: C8_9  and  O1_10
ROOT
HETATM    1  C1  UNL     1       6.300  11.154  44.787  1.00  0.00     0.018 C
HETATM    2  C2  UNL     1       5.582  12.420  44.308  1.00  0.00     0.049 C
HETATM    3  C3  UNL     1       4.525  12.793  45.294  1.00  0.00     0.064 C
HETATM    4  N1  UNL     1       3.574  13.695  44.777  1.00  0.00    -0.397 N
HETATM    5  C4  UNL     1       2.896  14.529  45.692  1.00  0.00     0.148 C
HETATM    6  C5  UNL     1       3.925  14.307  43.523  1.00  0.00     0.128 C
HETATM    7  C6  UNL     1       3.951  13.133  42.533  1.00  0.00     0.029 C
HETATM    8  C7  UNL     1       4.005  13.699  41.155  1.00  0.00     0.014 C
HETATM    9  C8  UNL     1       5.123  12.284  42.906  1.00  0.00     0.132 C
ENDROOT
BRANCH   9  10
HETATM   10  O1  UNL     1       4.804  10.962  42.649  1.00  0.00    -0.394 OA
ATOM     11  H1  UNL     1       4.210  10.917  41.909  1.00  0.00     0.210 HD
ENDBRANCH   9  10
TORSDOF 1
ENDMDL