MODEL 4
REMARK VINA RESULT: -3.961249286      2.046      3.696
REMARK  2 active torsions:
REMARK  status: ('A' for Active; 'I' for Inactive)
REMARK    1  A    between atoms: C3_3  and  C4_4
REMARK    2  A    between atoms: C4_4  and  O1_5
ROOT
HETATM    1  C1  UNL     1      10.568  13.085  43.056  1.00  0.00     0.112 C
HETATM    2  C2  UNL     1       9.358  12.327  43.403  1.00  0.00    -0.108 C
HETATM    3  C3  UNL     1       8.376  11.697  43.702  1.00  0.00    -0.068 C
ENDROOT
BRANCH   3   4
HETATM    4  C4  UNL     1       7.183  10.905  44.086  1.00  0.00     0.130 C
HETATM    5  C5  UNL     1       6.325  11.569  45.062  1.00  0.00     0.062 C
HETATM    6  C6  UNL     1       5.352  12.490  44.403  1.00  0.00     0.078 C
HETATM    7  S1  UNL     1       5.189  11.836  42.705  1.00  0.00    -0.165 SA
HETATM    8  C7  UNL     1       6.469  10.529  42.854  1.00  0.00     0.125 C
BRANCH   4   9
HETATM    9  O1  UNL     1       7.689   9.717  44.668  1.00  0.00    -0.377 OA
ATOM     10  H1  UNL     1       6.926   9.190  44.874  1.00  0.00     0.211 HD
ENDBRANCH   4   9
ENDBRANCH   3   4
TORSDOF 2
ENDMDL