MODEL 3
REMARK VINA RESULT: -4.765310831      2.406      3.523
REMARK  1 active torsions:
REMARK  status: ('A' for Active; 'I' for Inactive)
REMARK    1  A    between atoms: O1_1  and  C1_3
ROOT
HETATM    1  C1  UNL     1       5.795  10.526  43.651  1.00  0.00     0.158 C
HETATM    2  C2  UNL     1       6.384  11.103  44.954  1.00  0.00     0.152 C
HETATM    3  C3  UNL     1       6.662  12.338  44.076  1.00  0.00     0.049 C
HETATM    4  C4  UNL     1       5.341  11.901  43.497  1.00  0.00     0.017 C
HETATM    5  C5  UNL     1       4.675  12.553  42.466  1.00  0.00     0.015 C
HETATM    6  C6  UNL     1       3.766  13.580  43.169  1.00  0.00     0.004 C
HETATM    7  C7  UNL     1       4.093  13.431  44.666  1.00  0.00     0.033 C
HETATM    8  C8  UNL     1       4.429  12.002  44.736  1.00  0.00     0.133 C
HETATM    9  O2  UNL     1       5.321  11.585  45.688  1.00  0.00    -0.377 OA
ENDROOT
BRANCH   1  10
HETATM   10  O1  UNL     1       4.802   9.584  43.879  1.00  0.00    -0.392 OA
ATOM     11  H1  UNL     1       4.413   9.661  44.742  1.00  0.00     0.210 HD
ENDBRANCH   1  10
TORSDOF 1
ENDMDL