MODEL 1
REMARK VINA RESULT: -5.957515423      0.000      0.000
REMARK  10 active torsions:
REMARK  status: ('A' for Active; 'I' for Inactive)
REMARK    1  A    between atoms: N1_1  and  N2_4
REMARK       I    between atoms: N2_4  and  C1_6
REMARK    2  A    between atoms: C1_6  and  C2_8
REMARK    3  A    between atoms: C2_8  and  O3_10
REMARK    4  A    between atoms: O3_10  and  C3_11
REMARK    5  A    between atoms: C5_15  and  C6_16
REMARK    6  A    between atoms: C7_19  and  C8_20
REMARK    7  A    between atoms: C8_20  and  O5_21
REMARK    8  A    between atoms: C8_20  and  O6_23
REMARK    9  A    between atoms: C9_28  and  O7_29
REMARK   10  A    between atoms: C10_31  and  O8_32
ROOT
HETATM    1  C3  UNL     1      28.308 -34.804   5.996  1.00  0.00     0.234 C
HETATM    2  C4  UNL     1      28.175 -34.125   7.316  1.00  0.00     0.136 A
HETATM    3  N3  UNL     1      27.824 -34.671   8.470  1.00  0.00    -0.336 N
ATOM      4  H3  UNL     1      27.597 -35.656   8.601  1.00  0.00     0.167 HD
HETATM    5  C5  UNL     1      27.807 -33.725   9.470  1.00  0.00     0.129 A
HETATM    6  C7  UNL     1      28.166 -32.558   8.885  1.00  0.00     0.121 A
HETATM    7  N5  UNL     1      28.385 -32.840   7.554  1.00  0.00    -0.240 N
HETATM    8  N6  UNL     1      28.770 -32.019   6.493  1.00  0.00    -0.297 N
ATOM      9  H6  UNL     1      28.605 -31.013   6.519  1.00  0.00     0.183 HD
HETATM   10  C9  UNL     1      29.413 -32.644   5.353  1.00  0.00     0.265 C
HETATM   11  C10 UNL     1      28.709 -33.888   4.908  1.00  0.00     0.205 C
ENDROOT
BRANCH   1  12
HETATM   12  O3  UNL     1      29.244 -35.862   6.174  1.00  0.00    -0.298 OA
BRANCH  12  13
HETATM   13  C2  UNL     1      28.881 -37.200   6.107  1.00  0.00     0.354 C
HETATM   14  O2  UNL     1      28.674 -37.662   4.949  1.00  0.00    -0.254 OA
BRANCH  13  15
HETATM   15  C1  UNL     1      28.742 -38.035   7.293  1.00  0.00     0.334 C
HETATM   16  N2  UNL     1      29.721 -38.987   7.612  1.00  0.00    -0.268 N
ATOM     17  H2  UNL     1      30.539 -39.101   7.014  1.00  0.00     0.190 HD
HETATM   18  O1  UNL     1      27.728 -37.883   8.019  1.00  0.00    -0.260 OA
BRANCH  16  19
HETATM   19  N1  UNL     1      29.568 -39.783   8.761  1.00  0.00    -0.342 N
ATOM     20  H12 UNL     1      29.419 -40.787   8.654  1.00  0.00     0.176 HD
ATOM     21  H11 UNL     1      29.609 -39.351   9.684  1.00  0.00     0.176 HD
ENDBRANCH  16  19
ENDBRANCH  13  15
ENDBRANCH  12  13
ENDBRANCH   1  12
BRANCH  11  22
HETATM   22  O8  UNL     1      29.559 -34.564   4.015  1.00  0.00    -0.388 OA
ATOM     23  H8  UNL     1      30.394 -34.731   4.437  1.00  0.00     0.210 HD
ENDBRANCH  11  22
BRANCH  10  24
HETATM   24  O7  UNL     1      29.424 -31.723   4.321  1.00  0.00    -0.373 OA
ATOM     25  H7  UNL     1      30.091 -31.994   3.701  1.00  0.00     0.212 HD
ENDBRANCH  10  24
BRANCH   5  26
HETATM   26  C6  UNL     1      27.444 -34.038  10.849  1.00  0.00     0.283 C
HETATM   27  N4  UNL     1      26.338 -33.287  11.405  1.00  0.00    -0.056 NA
HETATM   28  O4  UNL     1      28.025 -34.890  11.532  1.00  0.00    -0.269 OA
ENDBRANCH   5  26
BRANCH   6  29
HETATM   29  C8  UNL     1      28.373 -31.203   9.420  1.00  0.00     0.309 C
BRANCH  29  30
HETATM   30  O5  UNL     1      29.726 -30.847   9.113  1.00  0.00    -0.366 OA
ATOM     31  H5  UNL     1      29.695 -29.987   8.711  1.00  0.00     0.213 HD
ENDBRANCH  29  30
BRANCH  29  32
HETATM   32  O6  UNL     1      28.269 -31.129  10.796  1.00  0.00    -0.366 OA
ATOM     33  H6  UNL     1      27.398 -30.903  11.100  1.00  0.00     0.213 HD
ENDBRANCH  29  32
ENDBRANCH   6  29
TORSDOF 10
ENDMDL