MODEL 5
REMARK VINA RESULT: -5.644090817      4.148      6.074
REMARK  5 active torsions:
REMARK  status: ('A' for Active; 'I' for Inactive)
REMARK    1  A    between atoms: N1_1  and  N2_4
REMARK       I    between atoms: N2_4  and  C1_6
REMARK       I    between atoms: C1_6  and  N3_8
REMARK    2  A    between atoms: N3_8  and  C2_10
REMARK    3  A    between atoms: C2_10  and  C3_11
REMARK    4  A    between atoms: C5_14  and  N4_15
REMARK    5  A    between atoms: C9_24  and  N8_25
REMARK       I    between atoms: N8_25  and  C10_27
REMARK       I    between atoms: C10_27  and  N9_28
REMARK       I    between atoms: C10_27  and  N10_32
ROOT
HETATM    1  N4  UNL     1      26.445 -32.365   8.015  1.00  0.00    -0.232 N
HETATM    2  C6  UNL     1      26.944 -32.016   6.813  1.00  0.00     0.333 A
HETATM    3  O3  UNL     1      26.180 -31.798   5.814  1.00  0.00    -0.246 OA
HETATM    4  N5  UNL     1      28.247 -31.880   6.593  1.00  0.00    -0.295 N
ATOM      5  H5  UNL     1      28.600 -31.617   5.674  1.00  0.00     0.172 HD
HETATM    6  C7  UNL     1      29.093 -32.102   7.628  1.00  0.00     0.148 A
HETATM    7  N6  UNL     1      30.495 -31.969   7.441  1.00  0.00    -0.080 NA
HETATM    8  C8  UNL     1      28.602 -32.466   8.887  1.00  0.00     0.131 A
HETATM    9  N7  UNL     1      29.582 -32.673   9.893  1.00  0.00    -0.095 NA
HETATM   10  C9  UNL     1      27.254 -32.599   9.083  1.00  0.00     0.142 A
ENDROOT
BRANCH   1  11
HETATM   11  C5  UNL     1      25.020 -32.496   8.185  1.00  0.00     0.383 C
HETATM   12  O2  UNL     1      24.721 -33.756   8.695  1.00  0.00    -0.341 OA
HETATM   13  C4  UNL     1      23.502 -33.536   9.422  1.00  0.00     0.210 C
HETATM   14  C3  UNL     1      23.822 -32.253  10.075  1.00  0.00     0.189 C
HETATM   15  O4  UNL     1      24.505 -31.552   9.034  1.00  0.00    -0.331 OA
BRANCH  14  16
HETATM   16  C2  UNL     1      22.764 -31.424  10.657  1.00  0.00     0.099 C
BRANCH  16  17
HETATM   17  N3  UNL     1      22.319 -31.740  11.945  1.00  0.00    -0.319 N
HETATM   18  C1  UNL     1      21.353 -31.123  12.733  1.00  0.00     0.338 C
HETATM   19  N2  UNL     1      21.046 -31.666  14.053  1.00  0.00    -0.258 N
HETATM   20  O1  UNL     1      20.731 -30.109  12.348  1.00  0.00    -0.245 OA
ATOM     21  H2  UNL     1      21.522 -32.491  14.418  1.00  0.00     0.191 HD
ATOM     22  H3  UNL     1      22.773 -32.548  12.373  1.00  0.00     0.169 HD
BRANCH  19  23
HETATM   23  N1  UNL     1      20.070 -31.000  14.785  1.00  0.00    -0.341 N
ATOM     24  H12 UNL     1      20.133 -29.995  14.948  1.00  0.00     0.177 HD
ATOM     25  H11 UNL     1      19.302 -31.569  15.140  1.00  0.00     0.177 HD
ENDBRANCH  19  23
ENDBRANCH  16  17
ENDBRANCH  14  16
ENDBRANCH   1  11
BRANCH  10  26
HETATM   26  N8  UNL     1      26.743 -32.915  10.160  1.00  0.00    -0.325 N
HETATM   27  C10 UNL     1      26.896 -33.883  11.148  1.00  0.00     0.481 C
HETATM   28  N9  UNL     1      26.228 -33.575  12.407  1.00  0.00    -0.033 N
HETATM   29  N10 UNL     1      26.418 -35.212  10.793  1.00  0.00    -0.033 N
ATOM     30  H93 UNL     1      26.528 -32.663  12.754  1.00  0.00     0.278 HD
ATOM     31  H92 UNL     1      25.238 -33.385  12.247  1.00  0.00     0.278 HD
ATOM     32  H91 UNL     1      26.340 -34.284  13.132  1.00  0.00     0.278 HD
ATOM     33 3H10 UNL     1      25.443 -35.166  10.495  1.00  0.00     0.278 HD
ATOM     34 2H10 UNL     1      26.856 -35.522   9.926  1.00  0.00     0.278 HD
ATOM     35 1H10 UNL     1      26.530 -35.921  11.518  1.00  0.00     0.278 HD
ATOM     36  H8  UNL     1      25.982 -32.278  10.397  1.00  0.00     0.165 HD
ENDBRANCH  10  26
TORSDOF 5
ENDMDL