MODEL 2
REMARK VINA RESULT: -5.997317745      0.969      1.129
REMARK  10 active torsions:
REMARK  status: ('A' for Active; 'I' for Inactive)
REMARK    1  A    between atoms: N1_1  and  N2_4
REMARK    2  A    between atoms: N2_4  and  C1_5
REMARK    3  A    between atoms: C1_5  and  O1_6
REMARK    4  A    between atoms: C1_5  and  C2_8
REMARK    5  A    between atoms: C2_8  and  O2_9
REMARK    6  A    between atoms: C2_8  and  C3_11
REMARK    7  A    between atoms: C4_15  and  O3_16
REMARK    8  A    between atoms: C5_18  and  N4_19
REMARK    9  A    between atoms: N4_19  and  C6_21
REMARK   10  A    between atoms: C11_33  and  O7_34
ROOT
HETATM    1  C3  UNL     1      26.851 -32.620   9.864  1.00  0.00     0.262 C
HETATM    2  N3  UNL     1      26.462 -33.490   8.786  1.00  0.00    -0.036 N
ATOM      3  H31 UNL     1      25.453 -33.466   8.637  1.00  0.00     0.281 HD
ATOM      4  H32 UNL     1      26.563 -34.470   9.047  1.00  0.00     0.281 HD
HETATM    5  C4  UNL     1      27.194 -33.188   7.544  1.00  0.00     0.349 C
HETATM    6  C5  UNL     1      28.628 -32.991   7.755  1.00  0.00     0.211 C
HETATM    7  C10 UNL     1      28.816 -31.755   8.589  1.00  0.00     0.184 C
HETATM    8  O6  UNL     1      29.756 -31.016   8.548  1.00  0.00    -0.293 OA
HETATM    9  C11 UNL     1      27.716 -31.469   9.529  1.00  0.00     0.223 C
ENDROOT
BRANCH   6  10
HETATM   10  N4  UNL     1      29.496 -33.058   6.653  1.00  0.00    -0.369 N
ATOM     11  H4  UNL     1      30.329 -33.615   6.842  1.00  0.00     0.160 HD
BRANCH  10  12
HETATM   12  C6  UNL     1      29.480 -32.538   5.363  1.00  0.00     0.113 A
HETATM   13  C7  UNL     1      29.703 -31.234   5.057  1.00  0.00     0.127 A
HETATM   14  N5  UNL     1      29.637 -30.777   3.766  1.00  0.00    -0.316 N
HETATM   15  C8  UNL     1      29.352 -31.597   2.755  1.00  0.00     0.327 A
ATOM     16  H5  UNL     1      29.810 -29.791   3.575  1.00  0.00     0.170 HD
HETATM   17  O4  UNL     1      29.288 -31.194   1.564  1.00  0.00    -0.247 OA
HETATM   18  N6  UNL     1      29.127 -32.901   3.039  1.00  0.00    -0.274 N
HETATM   19  C9  UNL     1      29.181 -33.380   4.282  1.00  0.00     0.277 A
ATOM     20  H6  UNL     1      28.907 -33.540   2.275  1.00  0.00     0.173 HD
HETATM   21  O5  UNL     1      28.953 -34.618   4.430  1.00  0.00    -0.266 OA
ENDBRANCH  10  12
ENDBRANCH   6  10
BRANCH   5  22
HETATM   22  O3  UNL     1      26.869 -34.195   6.664  1.00  0.00    -0.368 OA
ATOM     23  H3  UNL     1      27.638 -34.321   6.121  1.00  0.00     0.212 HD
ENDBRANCH   5  22
BRANCH   9  24
HETATM   24  O7  UNL     1      28.163 -30.908  10.729  1.00  0.00    -0.386 OA
ATOM     25  H7  UNL     1      28.125 -29.962  10.639  1.00  0.00     0.210 HD
ENDBRANCH   9  24
BRANCH   1  26
HETATM   26  C2  UNL     1      27.180 -33.323  11.161  1.00  0.00     0.243 C
BRANCH  26  27
HETATM   27  C1  UNL     1      25.936 -33.565  12.010  1.00  0.00     0.244 C
BRANCH  27  28
HETATM   28  N2  UNL     1      24.733 -33.119  11.727  1.00  0.00    -0.309 NA
BRANCH  28  29
HETATM   29  N1  UNL     1      23.497 -32.661  11.437  1.00  0.00    -0.278 N
ATOM     30  H12 UNL     1      24.439 -32.988  11.652  1.00  0.00     0.191 HD
ATOM     31  H11 UNL     1      22.563 -32.314  11.218  1.00  0.00     0.191 HD
ENDBRANCH  28  29
ENDBRANCH  27  28
BRANCH  27  32
HETATM   32  O1  UNL     1      26.261 -34.280  13.052  1.00  0.00    -0.335 OA
ATOM     33  H1  UNL     1      26.750 -35.094  13.038  1.00  0.00     0.220 HD
ENDBRANCH  27  32
ENDBRANCH  26  27
BRANCH  26  34
HETATM   34  O2  UNL     1      27.860 -34.490  11.052  1.00  0.00    -0.384 OA
ATOM     35  H2  UNL     1      28.275 -34.518  10.198  1.00  0.00     0.210 HD
ENDBRANCH  26  34
ENDBRANCH   1  26
TORSDOF 10
ENDMDL