MODEL 5
REMARK VINA RESULT: -5.631862778      1.762      5.522
REMARK  11 active torsions:
REMARK  status: ('A' for Active; 'I' for Inactive)
REMARK    1  A    between atoms: C5_7  and  O3_8
REMARK    2  A    between atoms: C7_12  and  O5_13
REMARK    3  A    between atoms: C7_12  and  C8_15
REMARK    4  A    between atoms: C8_15  and  O6_16
REMARK    5  A    between atoms: C8_15  and  C9_18
REMARK    6  A    between atoms: C9_18  and  O7_19
REMARK    7  A    between atoms: C9_18  and  O8_21
REMARK    8  A    between atoms: C9_18  and  C10_23
REMARK    9  A    between atoms: C10_23  and  O9_24
REMARK   10  A    between atoms: C11_26  and  O10_27
REMARK   11  A    between atoms: C11_26  and  O11_29
ROOT
HETATM    1  C1  UNL     1      26.256 -35.070  12.784  1.00  0.00     0.028 C
HETATM    2  C2  UNL     1      26.575 -35.301  11.532  1.00  0.00     0.022 A
HETATM    3  C3  UNL     1      26.485 -36.671  10.978  1.00  0.00     0.234 A
HETATM    4  O1  UNL     1      26.093 -37.581  11.764  1.00  0.00    -0.283 OA
HETATM    5  C4  UNL     1      26.836 -36.916   9.606  1.00  0.00     0.258 A
HETATM    6  O2  UNL     1      26.760 -38.074   9.137  1.00  0.00    -0.281 OA
HETATM    7  C5  UNL     1      27.277 -35.843   8.765  1.00  0.00     0.155 A
HETATM    8  C6  UNL     1      27.374 -34.599   9.215  1.00  0.00     0.121 A
HETATM    9  O4  UNL     1      27.806 -33.533   8.412  1.00  0.00    -0.302 OA
HETATM   10  C7  UNL     1      28.514 -32.514   9.124  1.00  0.00     0.261 C
HETATM   11  C11 UNL     1      27.572 -31.924  10.093  1.00  0.00     0.242 C
HETATM   12  C12 UNL     1      27.112 -33.019  11.033  1.00  0.00     0.061 C
HETATM   13  C13 UNL     1      27.031 -34.257  10.609  1.00  0.00     0.015 A
ENDROOT
BRANCH  10  14
HETATM   14  O5  UNL     1      29.502 -33.199   9.912  1.00  0.00    -0.358 OA
ATOM     15  H5  UNL     1      30.030 -33.692   9.294  1.00  0.00     0.213 HD
ENDBRANCH  10  14
BRANCH  10  16
HETATM   16  C8  UNL     1      29.312 -31.621   8.244  1.00  0.00     0.251 C
BRANCH  16  17
HETATM   17  O6  UNL     1      30.630 -31.686   8.823  1.00  0.00    -0.384 OA
ATOM     18  H6  UNL     1      30.686 -32.584   9.129  1.00  0.00     0.210 HD
ENDBRANCH  16  17
BRANCH  16  19
HETATM   19  C9  UNL     1      29.373 -31.915   6.802  1.00  0.00     0.213 C
BRANCH  19  20
HETATM   20  O7  UNL     1      30.069 -30.933   6.123  1.00  0.00    -0.362 OA
ATOM     21  H7  UNL     1      29.726 -30.816   5.245  1.00  0.00     0.213 HD
ENDBRANCH  19  20
BRANCH  19  22
HETATM   22  O8  UNL     1      28.094 -31.938   6.193  1.00  0.00    -0.362 OA
ATOM     23  H8  UNL     1      27.387 -32.000   6.823  1.00  0.00     0.213 HD
ENDBRANCH  19  22
BRANCH  19  24
HETATM   24  C10 UNL     1      30.006 -33.231   6.449  1.00  0.00     0.235 C
BRANCH  24  25
HETATM   25  O9  UNL     1      29.134 -34.162   5.941  1.00  0.00    -0.395 OA
ATOM     26  H9  UNL     1      29.138 -34.994   6.399  1.00  0.00     0.209 HD
ENDBRANCH  24  25
ENDBRANCH  19  24
ENDBRANCH  16  19
ENDBRANCH  10  16
BRANCH  11  27
HETATM   27  O10 UNL     1      28.081 -30.908  10.863  1.00  0.00    -0.358 OA
ATOM     28  H10 UNL     1      27.470 -30.211  11.072  1.00  0.00     0.213 HD
ENDBRANCH  11  27
BRANCH  11  29
HETATM   29  O11 UNL     1      26.364 -31.474   9.530  1.00  0.00    -0.358 OA
ATOM     30  H11 UNL     1      26.116 -30.593   9.783  1.00  0.00     0.213 HD
ENDBRANCH  11  29
BRANCH   7  31
HETATM   31  O3  UNL     1      27.621 -36.084   7.423  1.00  0.00    -0.355 OA
ATOM     32  H3  UNL     1      28.088 -35.428   6.920  1.00  0.00     0.218 HD
ENDBRANCH   7  31
TORSDOF 11
ENDMDL