MODEL 4
REMARK VINA RESULT: -5.197625062      2.267      3.734
REMARK  11 active torsions:
REMARK  status: ('A' for Active; 'I' for Inactive)
REMARK    1  A    between atoms: N1_1  and  N2_4
REMARK       I    between atoms: N2_4  and  C1_6
REMARK    2  A    between atoms: C1_6  and  O2_8
REMARK    3  A    between atoms: O2_8  and  N3_9
REMARK    4  A    between atoms: C3_13  and  N4_14
REMARK    5  A    between atoms: C4_18  and  O4_19
REMARK    6  A    between atoms: C4_18  and  C5_21
REMARK    7  A    between atoms: C8_26  and  O7_27
REMARK    8  A    between atoms: C8_26  and  C9_29
REMARK    9  A    between atoms: C9_29  and  O8_30
REMARK   10  A    between atoms: C9_29  and  C10_32
REMARK   11  A    between atoms: C10_32  and  O9_33
ROOT
HETATM    1  N3  UNL     1      28.137 -34.232  10.227  1.00  0.00    -0.235 N
ATOM      2  H3  UNL     1      28.687 -33.670  10.877  1.00  0.00     0.197 HD
HETATM    3  C2  UNL     1      27.889 -33.717   9.077  1.00  0.00     0.178 C
HETATM    4  O3  UNL     1      27.161 -34.407   8.151  1.00  0.00    -0.298 OA
HETATM    5  C3  UNL     1      27.071 -34.398   6.757  1.00  0.00     0.371 C
HETATM    6  C4  UNL     1      28.381 -34.169   6.055  1.00  0.00     0.198 C
HETATM    7  C6  UNL     1      29.325 -33.284   6.828  1.00  0.00     0.057 C
HETATM    8  C7  UNL     1      28.665 -32.075   7.426  1.00  0.00     0.053 C
HETATM    9  C8  UNL     1      28.459 -32.362   8.890  1.00  0.00     0.152 C
ENDROOT
BRANCH   1  10
HETATM   10  O2  UNL     1      27.737 -35.449  10.653  1.00  0.00    -0.178 OA
BRANCH  10  11
HETATM   11  C1  UNL     1      27.318 -35.622  11.964  1.00  0.00     0.401 C
HETATM   12  N2  UNL     1      26.549 -34.682  12.676  1.00  0.00    -0.250 N
ATOM     13  H2  UNL     1      26.264 -33.808  12.233  1.00  0.00     0.191 HD
HETATM   14  O1  UNL     1      27.680 -36.719  12.514  1.00  0.00    -0.235 OA
BRANCH  12  15
HETATM   15  N1  UNL     1      26.182 -34.956  13.989  1.00  0.00    -0.341 N
ATOM     16  H12 UNL     1      25.488 -35.681  14.173  1.00  0.00     0.177 HD
ATOM     17  H11 UNL     1      26.613 -34.429  14.748  1.00  0.00     0.177 HD
ENDBRANCH  12  15
ENDBRANCH  10  11
ENDBRANCH   1  10
BRANCH   9  18
HETATM   18  O7  UNL     1      29.758 -32.418   9.455  1.00  0.00    -0.379 OA
ATOM     19  H7  UNL     1      29.705 -31.916  10.260  1.00  0.00     0.211 HD
ENDBRANCH   9  18
BRANCH   9  20
HETATM   20  C9  UNL     1      27.726 -31.298   9.619  1.00  0.00     0.184 C
BRANCH  20  21
HETATM   21  O8  UNL     1      28.159 -31.294  10.943  1.00  0.00    -0.390 OA
ATOM     22  H8  UNL     1      28.439 -30.414  11.164  1.00  0.00     0.210 HD
ENDBRANCH  20  21
BRANCH  20  23
HETATM   23  C10 UNL     1      26.233 -31.474   9.635  1.00  0.00     0.199 C
BRANCH  23  24
HETATM   24  O9  UNL     1      25.800 -32.245  10.700  1.00  0.00    -0.398 OA
ATOM     25  H9  UNL     1      25.629 -33.146  10.453  1.00  0.00     0.209 HD
ENDBRANCH  23  24
ENDBRANCH  20  23
ENDBRANCH   9  20
BRANCH   5  26
HETATM   26  N4  UNL     1      26.042 -33.525   6.251  1.00  0.00    -0.049 N
ATOM     27  H43 UNL     1      25.711 -33.849   5.342  1.00  0.00     0.277 HD
ATOM     28  H42 UNL     1      25.183 -33.629   6.792  1.00  0.00     0.277 HD
ATOM     29  H41 UNL     1      26.321 -32.546   6.204  1.00  0.00     0.277 HD
ENDBRANCH   5  26
BRANCH   6  30
HETATM   30  O4  UNL     1      28.148 -33.532   4.831  1.00  0.00    -0.375 OA
ATOM     31  H4  UNL     1      28.892 -32.983   4.614  1.00  0.00     0.211 HD
ENDBRANCH   6  30
BRANCH   6  32
HETATM   32  C5  UNL     1      29.086 -35.440   5.792  1.00  0.00     0.213 C
HETATM   33  O5  UNL     1      30.047 -35.497   5.001  1.00  0.00    -0.646 OA
HETATM   34  O6  UNL     1      28.660 -36.578   6.443  1.00  0.00    -0.646 OA
ENDBRANCH   6  32
TORSDOF 11
ENDMDL