MODEL 2
REMARK VINA RESULT: -5.967155015      2.113      7.252
REMARK  6 active torsions:
REMARK  status: ('A' for Active; 'I' for Inactive)
REMARK    1  A    between atoms: N3_9  and  N4_10
REMARK    2  A    between atoms: N4_10  and  C3_12
REMARK    3  A    between atoms: C3_12  and  C4_13
REMARK    4  A    between atoms: C5_15  and  N5_16
REMARK    5  A    between atoms: C6_21  and  N8_22
REMARK    6  A    between atoms: C9_33  and  N11_34
ROOT
HETATM    1  C4  UNL     1      25.291 -34.702  10.164  1.00  0.00     0.237 C
HETATM    2  O2  UNL     1      26.362 -35.483  10.656  1.00  0.00    -0.331 OA
HETATM    3  C5  UNL     1      25.909 -35.725  11.992  1.00  0.00     0.361 C
HETATM    4  N10 UNL     1      25.653 -34.409  12.445  1.00  0.00    -0.314 N
ATOM      5  H10 UNL     1      25.775 -34.045  13.390  1.00  0.00     0.167 HD
HETATM    6  C8  UNL     1      25.178 -33.687  11.274  1.00  0.00     0.251 C
HETATM    7  O4  UNL     1      24.777 -32.504  11.234  1.00  0.00    -0.270 OA
ENDROOT
BRANCH   1   8
HETATM    8  C3  UNL     1      25.591 -34.070   8.852  1.00  0.00     0.181 C
BRANCH   8   9
HETATM    9  N4  UNL     1      26.100 -32.743   8.970  1.00  0.00    -0.325 N
ATOM     10  H4  UNL     1      25.495 -31.947   9.175  1.00  0.00     0.180 HD
BRANCH   9  11
HETATM   11  N3  UNL     1      27.454 -32.603   8.791  1.00  0.00    -0.208 N
HETATM   12  C2  UNL     1      28.253 -31.816   9.714  1.00  0.00     0.344 C
HETATM   13  N2  UNL     1      29.407 -31.357   9.028  1.00  0.00    -0.294 N
HETATM   14  O1  UNL     1      27.978 -31.572  10.927  1.00  0.00    -0.245 OA
HETATM   15  C1  UNL     1      29.304 -31.865   7.697  1.00  0.00     0.131 C
ATOM     16  H2  UNL     1      30.158 -30.780   9.409  1.00  0.00     0.172 HD
HETATM   17  N1  UNL     1      29.856 -31.385   6.632  1.00  0.00    -0.386 N
HETATM   18  C9  UNL     1      28.418 -33.076   7.841  1.00  0.00     0.375 C
ATOM     19  H12 UNL     1      30.454 -30.566   6.535  1.00  0.00     0.157 HD
ATOM     20  H11 UNL     1      29.782 -31.748   5.681  1.00  0.00     0.157 HD
BRANCH  18  21
HETATM   21  N11 UNL     1      27.929 -33.539   6.599  1.00  0.00    -0.049 N
ATOM     22 3H11 UNL     1      28.391 -33.066   5.823  1.00  0.00     0.277 HD
ATOM     23 2H11 UNL     1      28.238 -34.494   6.416  1.00  0.00     0.277 HD
ATOM     24 1H11 UNL     1      26.915 -33.461   6.525  1.00  0.00     0.277 HD
ENDBRANCH  18  21
ENDBRANCH   9  11
ENDBRANCH   8   9
ENDBRANCH   1   8
BRANCH   3  25
HETATM   25  N5  UNL     1      26.865 -36.522  12.666  1.00  0.00    -0.179 N
HETATM   26  N6  UNL     1      27.432 -37.498  11.921  1.00  0.00    -0.218 N
HETATM   27  N7  UNL     1      28.314 -38.308  12.419  1.00  0.00    -0.117 N
ATOM     28  H6  UNL     1      27.159 -37.600  10.943  1.00  0.00     0.209 HD
HETATM   29  C6  UNL     1      28.747 -38.272  13.681  1.00  0.00     0.695 A
ATOM     30  H7  UNL     1      28.703 -39.023  11.803  1.00  0.00     0.207 HD
HETATM   31  N9  UNL     1      28.204 -37.304  14.468  1.00  0.00    -0.139 N
HETATM   32  C7  UNL     1      27.275 -36.457  13.926  1.00  0.00     0.360 A
ATOM     33  H9  UNL     1      28.485 -37.211  15.444  1.00  0.00     0.189 HD
HETATM   34  O3  UNL     1      26.829 -35.603  14.711  1.00  0.00    -0.244 OA
BRANCH  29  35
HETATM   35  N8  UNL     1      29.633 -39.102  14.147  1.00  0.00    -0.233 N
ATOM     36  H82 UNL     1      30.565 -38.786  14.412  1.00  0.00     0.174 HD
ATOM     37  H81 UNL     1      29.448 -40.098  14.272  1.00  0.00     0.174 HD
ENDBRANCH  29  35
ENDBRANCH   3  25
TORSDOF 6
ENDMDL