MODEL 2
REMARK VINA RESULT: -5.356751802      2.085      3.556
REMARK  10 active torsions:
REMARK  status: ('A' for Active; 'I' for Inactive)
REMARK    1  A    between atoms: C2_3  and  C3_4
REMARK    2  A    between atoms: C3_4  and  N2_5
REMARK    3  A    between atoms: C3_4  and  O1_9
REMARK    4  A    between atoms: C3_4  and  C4_11
REMARK    5  A    between atoms: C4_11  and  O2_12
REMARK    6  A    between atoms: C4_11  and  O3_14
REMARK    7  A    between atoms: C9_28  and  O5_29
REMARK    8  A    between atoms: C10_31  and  C11_32
REMARK    9  A    between atoms: C11_32  and  O6_33
REMARK   10  A    between atoms: C11_32  and  O7_35
ROOT
HETATM    1  C1  UNL     1      27.128 -33.222  10.869  1.00  0.00     0.156 C
HETATM    2  N1  UNL     1      27.261 -34.306   9.994  1.00  0.00    -0.345 N
HETATM    3  C2  UNL     1      26.856 -35.508  10.511  1.00  0.00     0.126 C
HETATM    4  C5  UNL     1      26.183 -36.428   9.679  1.00  0.00     0.160 A
HETATM    5  N3  UNL     1      25.340 -37.339  10.249  1.00  0.00    -0.334 N
ATOM      6  H3  UNL     1      25.129 -37.436  11.242  1.00  0.00     0.168 HD
HETATM    7  C6  UNL     1      24.842 -38.081   9.246  1.00  0.00     0.199 A
HETATM    8  N4  UNL     1      25.378 -37.624   8.075  1.00  0.00    -0.285 N
ATOM      9  H4  UNL     1      25.183 -37.996   7.145  1.00  0.00     0.188 HD
HETATM   10  N5  UNL     1      26.185 -36.627   8.348  1.00  0.00    -0.199 N
HETATM   11  C7  UNL     1      26.883 -35.958   7.445  1.00  0.00     0.297 C
HETATM   12  O4  UNL     1      26.889 -36.365   6.245  1.00  0.00    -0.264 OA
HETATM   13  C8  UNL     1      27.645 -34.823   7.628  1.00  0.00     0.133 A
HETATM   14  N6  UNL     1      28.402 -34.256   6.681  1.00  0.00    -0.330 N
ATOM     15  H6  UNL     1      28.513 -34.610   5.732  1.00  0.00     0.168 HD
HETATM   16  C9  UNL     1      28.987 -33.167   7.158  1.00  0.00     0.154 A
HETATM   17  C10 UNL     1      28.617 -32.953   8.521  1.00  0.00     0.076 A
HETATM   18  C12 UNL     1      27.788 -34.012   8.767  1.00  0.00     0.083 A
ENDROOT
BRANCH   3  19
HETATM   19  C3  UNL     1      27.094 -35.827  11.889  1.00  0.00     0.318 C
BRANCH  19  20
HETATM   20  N2  UNL     1      27.707 -37.107  12.215  1.00  0.00    -0.036 N
ATOM     21  H23 UNL     1      28.018 -37.553  11.352  1.00  0.00     0.278 HD
ATOM     22  H22 UNL     1      28.597 -36.938  12.683  1.00  0.00     0.278 HD
ATOM     23  H21 UNL     1      27.170 -37.782  12.760  1.00  0.00     0.278 HD
ENDBRANCH  19  20
BRANCH  19  24
HETATM   24  O1  UNL     1      28.426 -35.133  12.018  1.00  0.00    -0.356 OA
ATOM     25  H1  UNL     1      28.097 -34.295  12.321  1.00  0.00     0.213 HD
ENDBRANCH  19  24
BRANCH  19  26
HETATM   26  C4  UNL     1      26.448 -35.127  13.021  1.00  0.00     0.324 C
BRANCH  26  27
HETATM   27  O2  UNL     1      26.945 -35.378  14.295  1.00  0.00    -0.367 OA
ATOM     28  H2  UNL     1      27.856 -35.163  14.460  1.00  0.00     0.212 HD
ENDBRANCH  26  27
BRANCH  26  29
HETATM   29  O3  UNL     1      25.051 -35.249  12.973  1.00  0.00    -0.367 OA
ATOM     30  H3  UNL     1      24.722 -35.158  12.086  1.00  0.00     0.212 HD
ENDBRANCH  26  29
ENDBRANCH  19  26
ENDBRANCH   3  19
BRANCH  17  31
HETATM   31  C11 UNL     1      29.113 -31.917   9.362  1.00  0.00     0.295 C
BRANCH  31  32
HETATM   32  O6  UNL     1      29.604 -30.724   8.804  1.00  0.00    -0.367 OA
ATOM     33  H6  UNL     1      30.174 -30.749   8.045  1.00  0.00     0.213 HD
ENDBRANCH  31  32
BRANCH  31  34
HETATM   34  O7  UNL     1      30.285 -32.377   9.963  1.00  0.00    -0.367 OA
ATOM     35  H7  UNL     1      30.997 -32.255   9.345  1.00  0.00     0.213 HD
ENDBRANCH  31  34
ENDBRANCH  17  31
BRANCH  16  36
HETATM   36  O5  UNL     1      29.843 -32.314   6.485  1.00  0.00    -0.345 OA
ATOM     37  H5  UNL     1      29.974 -31.386   6.645  1.00  0.00     0.219 HD
ENDBRANCH  16  36
TORSDOF 10
ENDMDL