MODEL 5
REMARK VINA RESULT: -5.297933756      2.609      3.446
REMARK  8 active torsions:
REMARK  status: ('A' for Active; 'I' for Inactive)
REMARK    1  A    between atoms: N2_3  and  O1_4
REMARK    2  A    between atoms: C4_8  and  N3_9
REMARK    3  A    between atoms: N6_19  and  C7_21
REMARK    4  A    between atoms: C7_21  and  C8_22
REMARK    5  A    between atoms: C8_22  and  N7_23
REMARK    6  A    between atoms: N8_27  and  C9_28
REMARK    7  A    between atoms: C10_32  and  O3_33
REMARK    8  A    between atoms: C11_35  and  O4_36
ROOT
HETATM    1  C1  UNL     1      25.364 -35.279   8.499  1.00  0.00     0.166 C
HETATM    2  N1  UNL     1      25.430 -34.052   9.240  1.00  0.00    -0.112 NA
HETATM    3  N2  UNL     1      24.316 -34.007  10.098  1.00  0.00    -0.160 N
HETATM    4  C2  UNL     1      24.708 -34.659  11.308  1.00  0.00     0.153 C
HETATM    5  C3  UNL     1      26.088 -34.653  11.287  1.00  0.00     0.128 C
HETATM    6  C4  UNL     1      26.920 -35.179  12.252  1.00  0.00     0.134 C
HETATM    7  N4  UNL     1      26.591 -35.519  13.510  1.00  0.00    -0.293 N
ATOM      8  H4  UNL     1      27.375 -35.565  14.160  1.00  0.00     0.172 HD
HETATM    9  C5  UNL     1      25.393 -35.810  14.050  1.00  0.00     0.327 C
HETATM   10  O2  UNL     1      25.363 -36.197  15.247  1.00  0.00    -0.247 OA
HETATM   11  N5  UNL     1      24.187 -35.726  13.417  1.00  0.00    -0.293 N
ATOM     12  H5  UNL     1      23.417 -36.169  13.918  1.00  0.00     0.172 HD
HETATM   13  C6  UNL     1      23.836 -35.161  12.251  1.00  0.00     0.138 C
HETATM   14  N6  UNL     1      22.603 -35.071  11.972  1.00  0.00    -0.373 N
ATOM     15  H6  UNL     1      22.380 -34.635  11.076  1.00  0.00     0.161 HD
HETATM   16  N8  UNL     1      26.553 -34.016  10.102  1.00  0.00    -0.251 N
ENDROOT
BRANCH  16  17
HETATM   17  C9  UNL     1      27.864 -33.486   9.885  1.00  0.00     0.340 C
HETATM   18  N9  UNL     1      28.160 -33.023   8.539  1.00  0.00    -0.021 N
HETATM   19  C10 UNL     1      28.918 -31.933   9.174  1.00  0.00     0.354 C
ATOM     20  H92 UNL     1      28.588 -33.637   7.846  1.00  0.00     0.283 HD
ATOM     21  H91 UNL     1      27.417 -32.833   7.867  1.00  0.00     0.283 HD
HETATM   22  C11 UNL     1      27.823 -31.985  10.247  1.00  0.00     0.226 C
BRANCH  19  23
HETATM   23  O3  UNL     1      30.159 -32.326   9.614  1.00  0.00    -0.368 OA
ATOM     24  H3  UNL     1      30.870 -31.864   9.184  1.00  0.00     0.212 HD
ENDBRANCH  19  23
BRANCH  22  25
HETATM   25  O4  UNL     1      26.674 -31.336   9.875  1.00  0.00    -0.387 OA
ATOM     26  H4  UNL     1      26.446 -30.589  10.415  1.00  0.00     0.210 HD
ENDBRANCH  22  25
ENDBRANCH  16  17
BRANCH   3  27
HETATM   27  O1  UNL     1      23.086 -33.465   9.878  1.00  0.00    -0.270 OA
ATOM     28  H1  UNL     1      22.402 -33.262  10.504  1.00  0.00     0.246 HD
ENDBRANCH   3  27
BRANCH   6  29
HETATM   29  N3  UNL     1      28.121 -35.344  11.861  1.00  0.00    -0.383 N
ATOM     30  H32 UNL     1      28.885 -35.043  12.468  1.00  0.00     0.157 HD
ATOM     31  H31 UNL     1      28.200 -35.779  10.942  1.00  0.00     0.157 HD
ENDBRANCH   6  29
BRANCH  14  32
HETATM   32  C7  UNL     1      21.492 -35.501  12.750  1.00  0.00     0.148 C
BRANCH  32  33
HETATM   33  C8  UNL     1      20.731 -34.344  13.373  1.00  0.00     0.249 C
BRANCH  33  34
HETATM   34  N7  UNL     1      21.006 -34.220  14.779  1.00  0.00    -0.078 N
ATOM     35  H73 UNL     1      21.221 -33.255  15.032  1.00  0.00     0.274 HD
ATOM     36  H72 UNL     1      20.160 -34.346  15.336  1.00  0.00     0.274 HD
ATOM     37  H71 UNL     1      21.745 -34.857  15.077  1.00  0.00     0.274 HD
ENDBRANCH  33  34
ENDBRANCH  32  33
ENDBRANCH  14  32
TORSDOF 8
ENDMDL