MODEL 2
REMARK VINA RESULT: -5.943308427      0.898      1.200
REMARK  8 active torsions:
REMARK  status: ('A' for Active; 'I' for Inactive)
REMARK    1  A    between atoms: N1_1  and  C1_4
REMARK    2  A    between atoms: C4_8  and  O2_9
REMARK    3  A    between atoms: C4_8  and  C5_11
REMARK    4  A    between atoms: C7_14  and  O4_15
REMARK    5  A    between atoms: C7_14  and  C8_17
REMARK    6  A    between atoms: C8_17  and  O5_18
REMARK    7  A    between atoms: C9_20  and  O6_21
REMARK    8  A    between atoms: N3_27  and  N4_28
ROOT
HETATM    1  C1  UNL     1      27.359 -36.103   8.560  1.00  0.00     0.143 A
HETATM    2  C2  UNL     1      27.394 -35.263   9.687  1.00  0.00     0.093 A
HETATM    3  C3  UNL     1      27.849 -33.893   9.598  1.00  0.00     0.105 C
HETATM    4  O1  UNL     1      28.306 -33.376   8.422  1.00  0.00    -0.307 OA
HETATM    5  C4  UNL     1      28.896 -32.170   8.910  1.00  0.00     0.225 C
HETATM    6  C6  UNL     1      27.643 -31.562   9.544  1.00  0.00     0.123 C
HETATM    7  C7  UNL     1      27.158 -32.824  10.357  1.00  0.00     0.134 C
HETATM    8  C9  UNL     1      27.117 -35.808  10.917  1.00  0.00     0.160 A
HETATM    9  N2  UNL     1      26.817 -37.141  11.039  1.00  0.00    -0.287 N
ATOM     10  H2  UNL     1      26.616 -37.539  11.957  1.00  0.00     0.172 HD
HETATM   11  C10 UNL     1      26.790 -37.911   9.955  1.00  0.00     0.349 A
HETATM   12  O7  UNL     1      26.514 -39.148  10.035  1.00  0.00    -0.244 OA
HETATM   13  N3  UNL     1      27.058 -37.399   8.729  1.00  0.00    -0.186 N
ENDROOT
BRANCH   1  14
HETATM   14  N1  UNL     1      27.595 -35.641   7.370  1.00  0.00    -0.383 N
ATOM     15  H12 UNL     1      27.886 -34.671   7.247  1.00  0.00     0.157 HD
ATOM     16  H11 UNL     1      27.510 -36.236   6.546  1.00  0.00     0.157 HD
ENDBRANCH   1  14
BRANCH   8  17
HETATM   17  O6  UNL     1      27.107 -35.155  12.130  1.00  0.00    -0.345 OA
ATOM     18  H6  UNL     1      26.662 -35.429  12.923  1.00  0.00     0.219 HD
ENDBRANCH   8  17
BRANCH  13  19
HETATM   19  N4  UNL     1      26.956 -38.254   7.615  1.00  0.00    -0.264 N
HETATM   20  C11 UNL     1      27.920 -38.808   7.007  1.00  0.00     0.216 C
HETATM   21  N5  UNL     1      27.733 -39.663   5.890  1.00  0.00    -0.065 NA
HETATM   22  N6  UNL     1      29.282 -38.591   7.427  1.00  0.00    -0.065 NA
ATOM     23  H4  UNL     1      26.018 -38.445   7.265  1.00  0.00     0.190 HD
ENDBRANCH  13  19
BRANCH   7  24
HETATM   24  O4  UNL     1      27.483 -32.625  11.643  1.00  0.00    -0.381 OA
ATOM     25  H4  UNL     1      27.208 -31.821  12.069  1.00  0.00     0.211 HD
ENDBRANCH   7  24
BRANCH   7  26
HETATM   26  C8  UNL     1      25.646 -32.866  10.159  1.00  0.00     0.209 C
BRANCH  26  27
HETATM   27  O5  UNL     1      25.015 -32.904  11.409  1.00  0.00    -0.397 OA
ATOM     28  H5  UNL     1      24.823 -32.017  11.692  1.00  0.00     0.209 HD
ENDBRANCH  26  27
ENDBRANCH   7  26
BRANCH   5  29
HETATM   29  O2  UNL     1      29.849 -32.388   9.896  1.00  0.00    -0.359 OA
ATOM     30  H2  UNL     1      29.502 -32.836  10.658  1.00  0.00     0.213 HD
ENDBRANCH   5  29
BRANCH   5  31
HETATM   31  C5  UNL     1      29.415 -31.327   7.829  1.00  0.00     0.299 C
HETATM   32  O3  UNL     1      30.400 -31.754   7.211  1.00  0.00    -0.301 OA
ENDBRANCH   5  31
TORSDOF 8
ENDMDL