MODEL 5
REMARK VINA RESULT: -5.049687341      2.619      4.259
REMARK  9 active torsions:
REMARK  status: ('A' for Active; 'I' for Inactive)
REMARK    1  A    between atoms: N1_1  and  C1_4
REMARK    2  A    between atoms: N4_12  and  C5_13
REMARK    3  A    between atoms: C5_13  and  C6_14
REMARK    4  A    between atoms: C7_18  and  C8_19
REMARK    5  A    between atoms: C8_19  and  N5_20
REMARK    6  A    between atoms: C8_19  and  C9_24
REMARK    7  A    between atoms: C9_24  and  O4_25
REMARK    8  A    between atoms: C10_27  and  O5_28
REMARK    9  A    between atoms: N6_32  and  N7_33
ROOT
HETATM    1  C1  UNL     1      27.365 -35.340   9.264  1.00  0.00     0.701 A
HETATM    2  N2  UNL     1      27.197 -36.152  10.325  1.00  0.00    -0.172 N
ATOM      3  H2  UNL     1      27.379 -37.152  10.241  1.00  0.00     0.186 HD
HETATM    4  C2  UNL     1      26.781 -35.626  11.512  1.00  0.00     0.160 A
HETATM    5  C3  UNL     1      26.544 -34.273  11.593  1.00  0.00     0.149 A
HETATM    6  N3  UNL     1      26.149 -33.981  12.838  1.00  0.00    -0.344 N
ATOM      7  H3  UNL     1      25.902 -33.061  13.200  1.00  0.00     0.167 HD
HETATM    8  C4  UNL     1      26.143 -35.130  13.506  1.00  0.00     0.189 A
HETATM    9  N4  UNL     1      26.524 -36.138  12.717  1.00  0.00    -0.282 N
HETATM   10  C11 UNL     1      26.723 -33.461  10.496  1.00  0.00     0.312 A
HETATM   11  O6  UNL     1      26.501 -32.227  10.592  1.00  0.00    -0.263 OA
HETATM   12  N6  UNL     1      27.137 -34.013   9.327  1.00  0.00    -0.052 N
ENDROOT
BRANCH   9  13
HETATM   13  C5  UNL     1      26.622 -37.507  13.140  1.00  0.00     0.262 C
HETATM   14  O3  UNL     1      27.385 -38.344  12.376  1.00  0.00    -0.339 OA
HETATM   15  C7  UNL     1      27.823 -38.967  13.538  1.00  0.00     0.192 C
HETATM   16  C10 UNL     1      27.628 -37.651  14.255  1.00  0.00     0.217 C
BRANCH  13  17
HETATM   17  C6  UNL     1      25.322 -38.142  13.495  1.00  0.00     0.235 C
HETATM   18  O1  UNL     1      24.878 -38.252  14.664  1.00  0.00    -0.644 OA
HETATM   19  O2  UNL     1      24.559 -38.642  12.460  1.00  0.00    -0.644 OA
ENDBRANCH  13  17
BRANCH  15  20
HETATM   20  C8  UNL     1      29.282 -39.363  13.529  1.00  0.00     0.238 C
BRANCH  20  21
HETATM   21  N5  UNL     1      29.720 -39.871  12.261  1.00  0.00    -0.070 N
ATOM     22  H53 UNL     1      30.083 -39.119  11.675  1.00  0.00     0.274 HD
ATOM     23  H52 UNL     1      30.570 -40.427  12.366  1.00  0.00     0.274 HD
ATOM     24  H51 UNL     1      28.999 -40.399  11.769  1.00  0.00     0.274 HD
ENDBRANCH  20  21
BRANCH  20  25
HETATM   25  C9  UNL     1      29.523 -40.396  14.601  1.00  0.00     0.199 C
BRANCH  25  26
HETATM   26  O4  UNL     1      30.878 -40.483  14.919  1.00  0.00    -0.399 OA
ATOM     27  H4  UNL     1      31.026 -41.106  15.622  1.00  0.00     0.209 HD
ENDBRANCH  25  26
ENDBRANCH  20  25
ENDBRANCH  15  20
BRANCH  16  28
HETATM   28  O5  UNL     1      28.766 -36.884  14.138  1.00  0.00    -0.387 OA
ATOM     29  H5  UNL     1      29.563 -37.273  14.477  1.00  0.00     0.210 HD
ENDBRANCH  16  28
ENDBRANCH   9  13
BRANCH   1  30
HETATM   30  N1  UNL     1      27.763 -35.850   8.136  1.00  0.00    -0.233 N
ATOM     31  H12 UNL     1      28.616 -35.489   7.711  1.00  0.00     0.174 HD
ATOM     32  H11 UNL     1      27.212 -36.595   7.708  1.00  0.00     0.174 HD
ENDBRANCH   1  30
BRANCH  12  33
HETATM   33  N7  UNL     1      27.305 -33.159   8.250  1.00  0.00    -0.321 N
ATOM     34  H72 UNL     1      26.501 -32.595   7.973  1.00  0.00     0.178 HD
ATOM     35  H71 UNL     1      28.180 -33.073   7.733  1.00  0.00     0.178 HD
ENDBRANCH  12  33
TORSDOF 9
ENDMDL