MODEL 5
REMARK VINA RESULT: -7.573408810      5.629      7.546
REMARK  4 active torsions:
REMARK  status: ('A' for Active; 'I' for Inactive)
REMARK    1  A    between atoms: C3_3  and  C4_4
REMARK       I    between atoms: C4_4  and  N1_6
REMARK    2  A    between atoms: N1_6  and  N2_8
REMARK       I    between atoms: N2_8  and  C5_10
REMARK    3  A    between atoms: C5_10  and  C6_12
REMARK    4  A    between atoms: C6_12  and  C9_15
ROOT
HETATM    1  C1  UNL     1      20.088 -21.877  24.755  1.00  0.00     0.071 C
HETATM    2  C2  UNL     1      20.477 -21.332  26.082  1.00  0.00     0.041 A
HETATM    3  C3  UNL     1      20.612 -20.036  26.484  1.00  0.00     0.126 A
HETATM    4  N3  UNL     1      20.987 -20.090  27.788  1.00  0.00    -0.338 N
ATOM      5  H3  UNL     1      21.171 -19.284  28.384  1.00  0.00     0.167 HD
HETATM    6  C10 UNL     1      21.077 -21.377  28.167  1.00  0.00     0.108 A
HETATM    7  N4  UNL     1      20.765 -22.153  27.124  1.00  0.00    -0.334 N
HETATM    8  C11 UNL     1      20.778 -23.596  27.251  1.00  0.00     0.167 C
HETATM    9  C12 UNL     1      21.659 -23.958  28.417  1.00  0.00     0.070 C
HETATM   10  C13 UNL     1      23.105 -23.789  28.056  1.00  0.00     0.047 C
HETATM   11  C14 UNL     1      21.466 -25.450  28.716  1.00  0.00     0.047 C
HETATM   12  O3  UNL     1      21.286 -23.292  29.565  1.00  0.00    -0.372 OA
HETATM   13  C15 UNL     1      21.455 -21.937  29.506  1.00  0.00     0.245 C
ENDROOT
BRANCH   3  14
HETATM   14  C4  UNL     1      20.406 -18.825  25.697  1.00  0.00     0.288 C
HETATM   15  O1  UNL     1      21.238 -18.447  24.852  1.00  0.00    -0.264 OA
HETATM   16  N1  UNL     1      19.233 -18.047  25.889  1.00  0.00    -0.262 N
ATOM     17  H1  UNL     1      18.554 -18.359  26.583  1.00  0.00     0.190 HD
BRANCH  16  18
HETATM   18  N2  UNL     1      18.960 -16.870  25.174  1.00  0.00    -0.267 N
HETATM   19  C5  UNL     1      19.342 -15.599  25.646  1.00  0.00     0.245 C
HETATM   20  O2  UNL     1      19.953 -15.430  26.743  1.00  0.00    -0.271 OA
ATOM     21  H2  UNL     1      18.468 -16.938  24.283  1.00  0.00     0.190 HD
BRANCH  19  22
HETATM   22  C6  UNL     1      19.044 -14.374  24.867  1.00  0.00     0.048 C
HETATM   23  C7  UNL     1      19.430 -14.657  23.408  1.00  0.00     0.026 C
HETATM   24  C8  UNL     1      19.827 -13.191  25.326  1.00  0.00     0.026 C
BRANCH  22  25
HETATM   25  C9  UNL     1      17.585 -14.006  24.859  1.00  0.00     0.133 C
HETATM   26 CL1  UNL     1      17.195 -13.422  26.510  1.00  0.00    -0.129 Cl
ENDBRANCH  22  25
ENDBRANCH  19  22
ENDBRANCH  16  18
ENDBRANCH   3  14
TORSDOF 4
ENDMDL