MODEL 2
REMARK VINA RESULT: -7.193667719      1.805      4.784
REMARK  4 active torsions:
REMARK  status: ('A' for Active; 'I' for Inactive)
REMARK    1  A    between atoms: C4_4  and  N1_5
REMARK    2  A    between atoms: N1_5  and  C5_7
REMARK    3  A    between atoms: C8_15  and  C9_16
REMARK       I    between atoms: C9_16  and  N4_18
REMARK    4  A    between atoms: N4_18  and  C10_20
ROOT
HETATM    1  C10 UNL     1      24.761 -23.309  24.100  1.00  0.00     0.115 C
HETATM    2  C11 UNL     1      26.212 -23.159  24.557  1.00  0.00     0.055 C
HETATM    3  C12 UNL     1      24.265 -24.642  24.592  1.00  0.00     0.055 C
HETATM    4  C13 UNL     1      24.797 -23.343  22.641  1.00  0.00     0.090 C
HETATM    5  N5  UNL     1      24.833 -23.383  21.483  1.00  0.00    -0.195 NA
ENDROOT
BRANCH   1   6
HETATM    6  N4  UNL     1      23.952 -22.210  24.550  1.00  0.00    -0.334 N
HETATM    7  C9  UNL     1      22.534 -22.177  24.402  1.00  0.00     0.273 C
HETATM    8  O1  UNL     1      21.897 -23.117  23.863  1.00  0.00    -0.266 OA
ATOM      9  H4  UNL     1      24.413 -21.417  24.995  1.00  0.00     0.164 HD
BRANCH   7  10
HETATM   10  C8  UNL     1      21.771 -21.038  24.877  1.00  0.00     0.146 A
HETATM   11  C5  UNL     1      20.838 -21.153  25.928  1.00  0.00     0.134 A
HETATM   12  N2  UNL     1      20.151 -20.060  26.336  1.00  0.00    -0.347 N
HETATM   13  C6  UNL     1      20.359 -18.871  25.740  1.00  0.00     0.132 A
ATOM     14  H2  UNL     1      19.475 -20.137  27.096  1.00  0.00     0.167 HD
HETATM   15  C7  UNL     1      21.265 -18.740  24.713  1.00  0.00     0.119 A
HETATM   16 CL1  UNL     1      21.529 -17.192  23.945  1.00  0.00    -0.063 Cl
HETATM   17  N3  UNL     1      21.949 -19.849  24.314  1.00  0.00    -0.338 N
ATOM     18  H3  UNL     1      22.623 -19.763  23.554  1.00  0.00     0.167 HD
BRANCH  11  19
HETATM   19  N1  UNL     1      20.683 -22.253  26.439  1.00  0.00    -0.367 N
ATOM     20  H1  UNL     1      19.762 -22.562  26.130  1.00  0.00     0.161 HD
BRANCH  19  21
HETATM   21  C4  UNL     1      21.152 -23.262  27.224  1.00  0.00     0.114 C
HETATM   22  C3  UNL     1      19.969 -23.959  27.951  1.00  0.00     0.059 C
HETATM   23  C2  UNL     1      20.656 -24.457  29.196  1.00  0.00     0.120 C
HETATM   24  C1  UNL     1      20.406 -25.924  29.450  1.00  0.00     0.039 C
HETATM   25  O2  UNL     1      22.023 -24.263  29.016  1.00  0.00    -0.379 OA
HETATM   26  C14 UNL     1      22.013 -22.960  28.423  1.00  0.00     0.140 C
HETATM   27  C15 UNL     1      23.445 -22.672  28.099  1.00  0.00     0.041 C
ENDBRANCH  19  21
ENDBRANCH  11  19
ENDBRANCH   7  10
ENDBRANCH   1   6
TORSDOF 4
ENDMDL