MODEL 2
REMARK VINA RESULT: -7.019835334      1.128      1.242
REMARK  4 active torsions:
REMARK  status: ('A' for Active; 'I' for Inactive)
REMARK    1  A    between atoms: C2_2  and  C3_4
REMARK    2  A    between atoms: C4_5  and  O2_6
REMARK    3  A    between atoms: C5_10  and  N2_11
REMARK    4  A    between atoms: C13_21  and  C14_22
ROOT
HETATM    1  C3  UNL     1      19.387 -21.292  31.262  1.00  0.00     0.111 A
HETATM    2  C4  UNL     1      20.116 -20.420  30.464  1.00  0.00     0.159 A
HETATM    3  N1  UNL     1      20.879 -20.875  29.463  1.00  0.00    -0.321 N
ATOM      4  H1  UNL     1      21.399 -20.202  28.899  1.00  0.00     0.169 HD
HETATM    5  C5  UNL     1      20.991 -22.208  29.164  1.00  0.00     0.128 A
HETATM    6  C13 UNL     1      20.268 -23.100  29.952  1.00  0.00     0.097 A
HETATM    7  C15 UNL     1      19.476 -22.644  30.990  1.00  0.00     0.207 A
HETATM    8  O4  UNL     1      18.829 -23.444  31.697  1.00  0.00    -0.286 OA
ENDROOT
BRANCH   5   9
HETATM    9  N2  UNL     1      21.761 -22.604  28.075  1.00  0.00    -0.315 N
HETATM   10  C6  UNL     1      23.085 -23.180  28.000  1.00  0.00     0.162 C
HETATM   11  C7  UNL     1      23.537 -23.114  26.557  1.00  0.00     0.043 C
HETATM   12  C8  UNL     1      24.768 -22.285  26.343  1.00  0.00     0.040 C
HETATM   13  C9  UNL     1      23.757 -24.465  25.945  1.00  0.00     0.040 C
HETATM   14  N3  UNL     1      22.451 -22.471  25.850  1.00  0.00    -0.360 N
HETATM   15  C10 UNL     1      22.599 -21.882  24.535  1.00  0.00     0.152 C
HETATM   16  C11 UNL     1      21.316 -22.562  26.699  1.00  0.00     0.118 C
HETATM   17  C12 UNL     1      20.080 -22.623  26.239  1.00  0.00     0.133 C
HETATM   18 CL1  UNL     1      19.787 -22.549  24.518  1.00  0.00    -0.093 Cl
ENDBRANCH   5   9
BRANCH   6  19
HETATM   19  C14 UNL     1      20.332 -24.523  29.708  1.00  0.00     0.277 C
HETATM   20  O3  UNL     1      19.682 -25.019  28.759  1.00  0.00    -0.301 OA
ENDBRANCH   6  19
BRANCH   2  21
HETATM   21  O2  UNL     1      20.043 -19.060  30.717  1.00  0.00    -0.345 OA
ATOM     22  H2  UNL     1      19.469 -18.752  31.409  1.00  0.00     0.219 HD
ENDBRANCH   2  21
BRANCH   1  23
HETATM   23  C2  UNL     1      18.555 -20.825  32.349  1.00  0.00     0.164 C
HETATM   24  C1  UNL     1      18.651 -21.324  33.736  1.00  0.00     0.097 C
HETATM   25  O1  UNL     1      17.683 -19.934  32.119  1.00  0.00    -0.292 OA
ENDBRANCH   1  23
TORSDOF 4
ENDMDL