MODEL 1
REMARK VINA RESULT: -6.663070191      0.000      0.000
REMARK  5 active torsions:
REMARK  status: ('A' for Active; 'I' for Inactive)
REMARK    1  A    between atoms: O1_2  and  C2_3
REMARK    2  A    between atoms: C2_3  and  C3_5
REMARK    3  A    between atoms: C5_7  and  C6_8
REMARK    4  A    between atoms: N1_9  and  N2_11
REMARK       I    between atoms: N2_11  and  C7_13
REMARK       I    between atoms: C7_13  and  N3_15
REMARK    5  A    between atoms: C12_21  and  O4_22
ROOT
HETATM    1  C3  UNL     1      21.170 -22.536  26.139  1.00  0.00     0.074 A
HETATM    2  C4  UNL     1      21.000 -22.634  27.519  1.00  0.00     0.033 A
HETATM    3  C5  UNL     1      21.923 -23.241  28.347  1.00  0.00    -0.017 A
HETATM    4  C10 UNL     1      23.058 -23.769  27.783  1.00  0.00     0.034 A
HETATM    5  C11 UNL     1      23.253 -23.687  26.424  1.00  0.00     0.046 A
HETATM    6 BR1  UNL     1      24.835 -24.428  25.669  1.00  0.00    -0.048 Br
HETATM    7  C12 UNL     1      22.315 -23.071  25.589  1.00  0.00     0.099 A
ENDROOT
BRANCH   3   8
HETATM    8  C6  UNL     1      21.652 -23.292  29.777  1.00  0.00     0.118 C
HETATM    9  N1  UNL     1      20.541 -22.837  30.278  1.00  0.00    -0.307 N
ATOM     10  H1  UNL     1      19.842 -22.436  29.652  1.00  0.00     0.186 HD
BRANCH   9  11
HETATM   11  N2  UNL     1      20.281 -22.882  31.633  1.00  0.00    -0.252 N
HETATM   12  C7  UNL     1      19.353 -22.037  32.278  1.00  0.00     0.336 C
HETATM   13  O3  UNL     1      18.707 -21.182  31.616  1.00  0.00    -0.245 OA
HETATM   14  N3  UNL     1      19.113 -22.111  33.669  1.00  0.00    -0.342 N
HETATM   15  C8  UNL     1      19.852 -23.092  34.443  1.00  0.00     0.154 C
HETATM   16  C9  UNL     1      18.161 -21.243  34.325  1.00  0.00     0.154 C
ATOM     17  H2  UNL     1      20.788 -23.563  32.199  1.00  0.00     0.191 HD
ENDBRANCH   9  11
ENDBRANCH   3   8
BRANCH   1  18
HETATM   18  C2  UNL     1      20.190 -21.897  25.292  1.00  0.00     0.295 C
HETATM   19  O2  UNL     1      19.620 -22.558  24.387  1.00  0.00    -0.259 OA
BRANCH  18  20
HETATM   20  O1  UNL     1      19.826 -20.566  25.411  1.00  0.00    -0.322 OA
HETATM   21  C1  UNL     1      20.805 -19.539  25.430  1.00  0.00     0.213 C
ENDBRANCH  18  20
ENDBRANCH   1  18
BRANCH   7  22
HETATM   22  O4  UNL     1      22.551 -23.010  24.223  1.00  0.00    -0.358 OA
ATOM     23  H4  UNL     1      23.435 -23.037  23.876  1.00  0.00     0.217 HD
ENDBRANCH   7  22
TORSDOF 5
ENDMDL