MODEL 1
REMARK VINA RESULT: -7.115499119      0.000      0.000
REMARK  3 active torsions:
REMARK  status: ('A' for Active; 'I' for Inactive)
REMARK    1  A    between atoms: C3_3  and  N1_4
REMARK    2  A    between atoms: C6_13  and  N3_14
REMARK       I    between atoms: N3_14  and  C7_16
REMARK    3  A    between atoms: C7_16  and  C8_18
ROOT
HETATM    1  C1  UNL     1      20.904 -17.090  23.913  1.00  0.00     0.103 C
HETATM    2  C2  UNL     1      21.916 -17.916  23.975  1.00  0.00    -0.143 C
HETATM    3  C3  UNL     1      22.843 -18.831  24.085  1.00  0.00     0.140 C
ENDROOT
BRANCH   3   4
HETATM    4  N1  UNL     1      22.442 -20.110  24.461  1.00  0.00    -0.347 N
HETATM    5  C4  UNL     1      23.114 -21.195  24.235  1.00  0.00     0.115 C
HETATM    6  N2  UNL     1      24.337 -21.199  23.579  1.00  0.00    -0.271 N
HETATM    7  C6  UNL     1      22.611 -22.495  24.674  1.00  0.00     0.168 C
HETATM    8  S1  UNL     1      24.740 -22.845  23.257  1.00  0.00     0.234 S
ATOM      9  H2  UNL     1      24.894 -20.380  23.333  1.00  0.00     0.180 HD
HETATM   10  O1  UNL     1      24.570 -23.153  21.797  1.00  0.00    -0.206 OA
HETATM   11  O2  UNL     1      26.104 -23.209  23.748  1.00  0.00    -0.206 OA
HETATM   12  C5  UNL     1      23.441 -23.606  24.184  1.00  0.00     0.196 C
ATOM     13  H1  UNL     1      21.553 -20.200  24.952  1.00  0.00     0.167 HD
BRANCH   7  14
HETATM   14  N3  UNL     1      22.550 -22.582  26.147  1.00  0.00    -0.344 N
HETATM   15  C7  UNL     1      21.297 -22.662  26.747  1.00  0.00     0.253 C
HETATM   16  O3  UNL     1      20.274 -22.668  25.965  1.00  0.00    -0.268 OA
ATOM     17  H3  UNL     1      23.402 -22.584  26.709  1.00  0.00     0.163 HD
BRANCH  15  18
HETATM   18  C8  UNL     1      21.046 -22.746  28.221  1.00  0.00     0.046 A
HETATM   19  C9  UNL     1      20.841 -21.624  28.975  1.00  0.00     0.049 A
HETATM   20  C10 UNL     1      20.576 -21.786  30.292  1.00  0.00     0.076 A
HETATM   21 CL1  UNL     1      20.269 -20.515  31.495  1.00  0.00    -0.076 Cl
HETATM   22  S2  UNL     1      20.605 -23.472  30.502  1.00  0.00    -0.082 SA
HETATM   23  C11 UNL     1      20.960 -23.934  28.890  1.00  0.00    -0.004 A
HETATM   24  C12 UNL     1      21.146 -25.352  28.416  1.00  0.00     0.057 C
ENDBRANCH  15  18
ENDBRANCH   7  14
ENDBRANCH   3   4
TORSDOF 3
ENDMDL