MODEL 2
REMARK VINA RESULT: -6.894984593      2.032      2.127
REMARK  6 active torsions:
REMARK  status: ('A' for Active; 'I' for Inactive)
REMARK    1  A    between atoms: N1_1  and  S1_4
REMARK    2  A    between atoms: S1_4  and  C1_7
REMARK    3  A    between atoms: C1_7  and  C2_8
REMARK    4  A    between atoms: C3_9  and  C4_10
REMARK    5  A    between atoms: C6_12  and  C7_13
REMARK    6  A    between atoms: C7_13  and  C8_14
ROOT
HETATM    1  C4  UNL     1      20.317 -22.087  31.157  1.00  0.00     0.021 A
HETATM    2  C5  UNL     1      19.243 -21.210  31.116  1.00  0.00     0.030 A
HETATM    3  C6  UNL     1      18.388 -21.169  32.201  1.00  0.00    -0.020 A
HETATM    4  C9  UNL     1      18.592 -21.970  33.284  1.00  0.00     0.111 A
HETATM    5  C10 UNL     1      19.658 -22.855  33.349  1.00  0.00     0.106 A
HETATM    6  C11 UNL     1      20.509 -22.897  32.271  1.00  0.00     0.060 A
HETATM    7  O3  UNL     1      19.652 -23.554  34.541  1.00  0.00    -0.323 OA
HETATM    8  C12 UNL     1      18.469 -23.211  35.220  1.00  0.00     0.352 C
HETATM    9  O4  UNL     1      17.915 -22.137  34.481  1.00  0.00    -0.322 OA
ENDROOT
BRANCH   1  10
HETATM   10  C3  UNL     1      21.214 -22.138  30.031  1.00  0.00    -0.066 C
HETATM   11  C2  UNL     1      21.967 -22.163  29.071  1.00  0.00    -0.084 C
BRANCH  11  12
HETATM   12  C1  UNL     1      22.858 -22.169  27.909  1.00  0.00     0.256 C
BRANCH  12  13
HETATM   13  S1  UNL     1      22.103 -21.115  26.694  1.00  0.00     0.234 S
HETATM   14  O1  UNL     1      20.703 -21.654  26.477  1.00  0.00    -0.205 OA
HETATM   15  O2  UNL     1      22.911 -21.230  25.226  1.00  0.00    -0.205 OA
BRANCH  13  16
HETATM   16  N1  UNL     1      21.981 -19.659  27.173  1.00  0.00    -0.328 N
ATOM     17  H12 UNL     1      21.596 -18.889  26.625  1.00  0.00     0.168 HD
ATOM     18  H11 UNL     1      22.351 -19.609  28.122  1.00  0.00     0.168 HD
ENDBRANCH  13  16
ENDBRANCH  12  13
ENDBRANCH  11  12
ENDBRANCH   1  10
BRANCH   3  19
HETATM   19  C7  UNL     1      17.245 -20.247  32.180  1.00  0.00     0.052 C
BRANCH  19  20
HETATM   20  C8  UNL     1      15.966 -20.896  31.718  1.00  0.00     0.089 C
HETATM   21 BR1  UNL     1      14.556 -19.552  31.822  1.00  0.00    -0.096 Br
ENDBRANCH  19  20
ENDBRANCH   3  19
TORSDOF 6
ENDMDL