MODEL 2
REMARK VINA RESULT: -7.211420515      1.567      1.741
REMARK  5 active torsions:
REMARK  status: ('A' for Active; 'I' for Inactive)
REMARK    1  A    between atoms: C2_2  and  C3_3
REMARK    2  A    between atoms: C3_3  and  N1_4
REMARK    3  A    between atoms: N1_4  and  C4_6
REMARK    4  A    between atoms: C4_6  and  N2_8
REMARK    5  A    between atoms: N2_8  and  C5_10
ROOT
HETATM    1  C5  UNL     1      20.982 -22.214  29.281  1.00  0.00     0.059 A
HETATM    2  C6  UNL     1      21.294 -21.098  28.566  1.00  0.00     0.070 A
HETATM    3  C7  UNL     1      21.264 -21.018  27.164  1.00  0.00     0.102 A
HETATM    4  C8  UNL     1      20.891 -22.163  26.512  1.00  0.00     0.115 A
HETATM    5  C9  UNL     1      20.568 -23.315  27.222  1.00  0.00     0.054 A
HETATM    6  C10 UNL     1      20.601 -23.378  28.581  1.00  0.00     0.062 A
HETATM    7 CL1  UNL     1      20.192 -24.866  29.430  1.00  0.00    -0.082 Cl
HETATM    8  S2  UNL     1      20.814 -22.157  24.761  1.00  0.00     0.266 S
HETATM    9  O1  UNL     1      19.411 -22.491  24.308  1.00  0.00    -0.200 OA
HETATM   10  O2  UNL     1      21.748 -23.225  24.258  1.00  0.00    -0.200 OA
HETATM   11  N3  UNL     1      21.271 -20.578  24.252  1.00  0.00    -0.270 N
ATOM     12  H3  UNL     1      21.298 -20.347  23.259  1.00  0.00     0.180 HD
HETATM   13  C11 UNL     1      21.574 -19.704  25.119  1.00  0.00     0.244 A
HETATM   14  O3  UNL     1      21.578 -19.883  26.471  1.00  0.00    -0.304 OA
ENDROOT
BRANCH   1  15
HETATM   15  N2  UNL     1      20.897 -22.307  30.675  1.00  0.00    -0.332 N
ATOM     16  H2  UNL     1      21.715 -22.707  31.135  1.00  0.00     0.168 HD
BRANCH  15  17
HETATM   17  C4  UNL     1      19.869 -21.939  31.520  1.00  0.00     0.172 C
HETATM   18  S1  UNL     1      19.314 -20.360  31.324  1.00  0.00    -0.041 SA
BRANCH  17  19
HETATM   19  N1  UNL     1      19.197 -22.671  32.530  1.00  0.00    -0.364 N
ATOM     20  H1  UNL     1      18.381 -23.240  32.306  1.00  0.00     0.162 HD
BRANCH  19  21
HETATM   21  C3  UNL     1      19.702 -22.593  33.908  1.00  0.00     0.148 C
BRANCH  21  22
HETATM   22  C2  UNL     1      18.847 -23.249  34.886  1.00  0.00    -0.018 C
HETATM   23  C1  UNL     1      17.507 -23.272  34.908  1.00  0.00     0.008 C
ENDBRANCH  21  22
ENDBRANCH  19  21
ENDBRANCH  17  19
ENDBRANCH  15  17
ENDBRANCH   1  15
TORSDOF 5
ENDMDL