MODEL 5
REMARK VINA RESULT: -6.039186349      2.867      4.575
REMARK  5 active torsions:
REMARK  status: ('A' for Active; 'I' for Inactive)
REMARK    1  A    between atoms: O1_2  and  C2_3
REMARK    2  A    between atoms: C2_3  and  C3_5
REMARK    3  A    between atoms: C8_11  and  O3_12
REMARK    4  A    between atoms: C9_14  and  N1_15
REMARK    5  A    between atoms: N1_15  and  S1_17
ROOT
HETATM    1  C3  UNL     1      21.839 -22.999  29.108  1.00  0.00     0.070 A
HETATM    2  C4  UNL     1      21.277 -22.958  30.368  1.00  0.00     0.028 A
HETATM    3  C5  UNL     1      20.587 -21.832  30.740  1.00  0.00    -0.041 A
HETATM    4  C6  UNL     1      19.978 -21.776  32.094  1.00  0.00     0.049 C
HETATM    5  C7  UNL     1      20.461 -20.774  29.877  1.00  0.00     0.052 A
HETATM    6 BR1  UNL     1      19.480 -19.250  30.484  1.00  0.00    -0.048 Br
HETATM    7  C8  UNL     1      21.029 -20.830  28.622  1.00  0.00     0.112 A
HETATM    8  C9  UNL     1      21.737 -21.942  28.202  1.00  0.00     0.093 A
ENDROOT
BRANCH   8   9
HETATM    9  N1  UNL     1      22.316 -21.952  26.915  1.00  0.00    -0.281 N
ATOM     10  H1  UNL     1      23.329 -21.845  26.862  1.00  0.00     0.178 HD
BRANCH   9  11
HETATM   11  S1  UNL     1      21.470 -22.128  25.432  1.00  0.00     0.227 S
HETATM   12  C10 UNL     1      22.576 -23.007  24.308  1.00  0.00     0.186 C
HETATM   13  O4  UNL     1      20.174 -22.835  25.517  1.00  0.00    -0.206 OA
HETATM   14  O5  UNL     1      21.210 -20.769  24.825  1.00  0.00    -0.206 OA
ENDBRANCH   9  11
ENDBRANCH   8   9
BRANCH   1  15
HETATM   15  C2  UNL     1      22.474 -24.244  28.707  1.00  0.00     0.295 C
HETATM   16  O2  UNL     1      23.730 -24.295  28.679  1.00  0.00    -0.259 OA
BRANCH  15  17
HETATM   17  O1  UNL     1      21.790 -25.392  28.355  1.00  0.00    -0.322 OA
HETATM   18  C1  UNL     1      20.404 -25.333  28.030  1.00  0.00     0.213 C
ENDBRANCH  15  17
ENDBRANCH   1  15
BRANCH   7  19
HETATM   19  O3  UNL     1      20.862 -19.712  27.783  1.00  0.00    -0.357 OA
ATOM     20  H3  UNL     1      21.126 -18.866  28.124  1.00  0.00     0.217 HD
ENDBRANCH   7  19
TORSDOF 5
ENDMDL