MODEL 1
REMARK VINA RESULT: -7.086952188      0.000      0.000
REMARK  5 active torsions:
REMARK  status: ('A' for Active; 'I' for Inactive)
REMARK    1  A    between atoms: O1_2  and  C2_3
REMARK    2  A    between atoms: N1_5  and  C4_6
REMARK    3  A    between atoms: C4_6  and  O2_7
REMARK    4  A    between atoms: C11_16  and  C12_17
REMARK    5  A    between atoms: C12_17  and  O4_18
ROOT
HETATM    1  C2  UNL     1      22.186 -23.047  28.562  1.00  0.00     0.169 C
HETATM    2  C3  UNL     1      22.351 -21.540  28.309  1.00  0.00     0.309 C
HETATM    3  N1  UNL     1      23.153 -21.305  27.168  1.00  0.00     0.124 N
HETATM    4  C5  UNL     1      22.548 -20.820  25.992  1.00  0.00     0.278 C
HETATM    5  C6  UNL     1      21.043 -20.608  26.085  1.00  0.00     0.208 C
HETATM    6  O3  UNL     1      20.324 -21.751  26.257  1.00  0.00    -0.382 OA
HETATM    7  C7  UNL     1      20.706 -22.803  25.476  1.00  0.00     0.143 C
HETATM    8  C8  UNL     1      21.582 -22.417  24.305  1.00  0.00     0.069 C
HETATM    9  C9  UNL     1      22.786 -21.597  24.731  1.00  0.00    -0.046 C
HETATM   10  C10 UNL     1      24.067 -22.299  24.609  1.00  0.00    -0.015 C
HETATM   11  C11 UNL     1      24.400 -23.505  25.350  1.00  0.00     0.036 C
HETATM   12  C13 UNL     1      23.675 -24.758  25.051  1.00  0.00     0.045 C
HETATM   13  C14 UNL     1      22.290 -24.668  25.608  1.00  0.00    -0.065 A
HETATM   14  C15 UNL     1      21.097 -25.247  25.798  1.00  0.00    -0.004 A
HETATM   15  C16 UNL     1      21.420 -23.857  26.292  1.00  0.00     0.046 A
HETATM   16  C17 UNL     1      21.133 -23.677  27.731  1.00  0.00     0.132 C
HETATM   17 CL1  UNL     1      20.681 -25.219  28.541  1.00  0.00    -0.121 Cl
ENDROOT
BRANCH   3  18
HETATM   18  C4  UNL     1      24.291 -20.465  27.589  1.00  0.00     0.438 C
BRANCH  18  19
HETATM   19  O2  UNL     1      24.573 -19.495  26.660  1.00  0.00    -0.373 OA
ATOM     20  H2  UNL     1      24.684 -18.644  27.067  1.00  0.00     0.211 HD
ENDBRANCH  18  19
ENDBRANCH   3  18
BRANCH   1  21
HETATM   21  O1  UNL     1      21.859 -23.269  29.901  1.00  0.00    -0.387 OA
HETATM   22  C1  UNL     1      21.058 -22.291  30.440  1.00  0.00     0.202 C
ENDBRANCH   1  21
BRANCH  11  23
HETATM   23  C12 UNL     1      25.863 -23.829  24.931  1.00  0.00     0.172 C
BRANCH  23  24
HETATM   24  O4  UNL     1      25.790 -25.099  24.359  1.00  0.00    -0.400 OA
ATOM     25  H4  UNL     1      26.525 -25.571  24.733  1.00  0.00     0.209 HD
ENDBRANCH  23  24
ENDBRANCH  11  23
TORSDOF 5
ENDMDL