MODEL 4
REMARK VINA RESULT: -5.303826308      3.314      4.201
REMARK  10 active torsions:
REMARK  status: ('A' for Active; 'I' for Inactive)
REMARK    1  A    between atoms: C1_4  and  S1_6
REMARK    2  A    between atoms: S1_6  and  C2_7
REMARK    3  A    between atoms: C2_7  and  C3_8
REMARK    4  A    between atoms: C3_8  and  C4_10
REMARK    5  A    between atoms: C7_13  and  N3_14
REMARK    6  A    between atoms: N3_14  and  C8_15
REMARK    7  A    between atoms: N3_14  and  N5_21
REMARK    8  A    between atoms: C8_15  and  C9_16
REMARK    9  A    between atoms: C9_16  and  N4_17
REMARK   10  A    between atoms: N5_21  and  O2_23
ROOT
HETATM    1  C4  UNL     1      10.651  -5.771 -39.041  1.00  0.00     0.011 A
HETATM    2  C5  UNL     1       9.728  -5.408 -38.090  1.00  0.00     0.017 A
HETATM    3  C6  UNL     1       9.702  -6.002 -36.827  1.00  0.00     0.032 A
HETATM    4  C7  UNL     1      10.608  -6.984 -36.484  1.00  0.00     0.052 A
HETATM    5  C10 UNL     1      11.535  -7.331 -37.476  1.00  0.00     0.032 A
HETATM    6  C11 UNL     1      11.565  -6.751 -38.717  1.00  0.00     0.017 A
ENDROOT
BRANCH   4   7
HETATM    7  N3  UNL     1      10.649  -7.621 -35.210  1.00  0.00    -0.272 N
BRANCH   7   8
HETATM    8  C8  UNL     1      11.858  -7.961 -34.501  1.00  0.00     0.178 C
BRANCH   8   9
HETATM    9  C9  UNL     1      12.561  -6.758 -33.919  1.00  0.00     0.251 C
BRANCH   9  10
HETATM   10  N4  UNL     1      13.798  -6.465 -34.628  1.00  0.00    -0.078 N
ATOM     11  H43 UNL     1      14.371  -7.302 -34.737  1.00  0.00     0.274 HD
ATOM     12  H42 UNL     1      13.624  -6.263 -35.612  1.00  0.00     0.274 HD
ATOM     13  H41 UNL     1      14.319  -5.712 -34.178  1.00  0.00     0.274 HD
ENDBRANCH   9  10
ENDBRANCH   8   9
ENDBRANCH   7   8
BRANCH   7  14
HETATM   14  N5  UNL     1       9.437  -7.936 -34.587  1.00  0.00    -0.207 N
ATOM     15  H5  UNL     1       9.150  -8.914 -34.550  1.00  0.00     0.216 HD
BRANCH  14  16
HETATM   16  O2  UNL     1       8.694  -7.082 -34.078  1.00  0.00    -0.274 OA
ATOM     17  H2  UNL     1       7.775  -7.237 -33.895  1.00  0.00     0.246 HD
ENDBRANCH  14  16
ENDBRANCH   7  14
ENDBRANCH   4   7
BRANCH   1  18
HETATM   18  C3  UNL     1      10.635  -5.116 -40.345  1.00  0.00     0.169 C
HETATM   19  O1  UNL     1      10.551  -5.813 -41.384  1.00  0.00    -0.291 OA
BRANCH  18  20
HETATM   20  C2  UNL     1      10.713  -3.651 -40.511  1.00  0.00     0.165 C
BRANCH  20  21
HETATM   21  S1  UNL     1       9.214  -2.833 -40.981  1.00  0.00    -0.090 SA
BRANCH  21  22
HETATM   22  C1  UNL     1       7.721  -3.764 -40.813  1.00  0.00     0.148 C
HETATM   23  N1  UNL     1       6.939  -3.734 -39.799  1.00  0.00    -0.382 N
ATOM     24  H12 UNL     1       6.078  -4.271 -39.702  1.00  0.00     0.157 HD
ATOM     25  H11 UNL     1       7.173  -3.128 -39.013  1.00  0.00     0.157 HD
HETATM   26  N2  UNL     1       7.389  -4.623 -41.926  1.00  0.00    -0.075 NA
ENDBRANCH  21  22
ENDBRANCH  20  21
ENDBRANCH  18  20
ENDBRANCH   1  18
TORSDOF 10
ENDMDL