MODEL 2
REMARK VINA RESULT: -5.059580305      3.083      4.142
REMARK  10 active torsions:
REMARK  status: ('A' for Active; 'I' for Inactive)
REMARK    1  A    between atoms: N1_1  and  N2_4
REMARK    2  A    between atoms: N2_4  and  C1_5
REMARK    3  A    between atoms: C1_5  and  C2_6
REMARK    4  A    between atoms: C2_6  and  O1_7
REMARK    5  A    between atoms: C2_6  and  N3_9
REMARK    6  A    between atoms: N3_9  and  N4_10
REMARK    7  A    between atoms: C3_12  and  C4_13
REMARK    8  A    between atoms: C4_13  and  C5_15
REMARK    9  A    between atoms: C5_15  and  C6_16
REMARK       I    between atoms: C6_16  and  N5_18
REMARK   10  A    between atoms: N5_18  and  C7_20
ROOT
HETATM    1  N4  UNL     1      10.730  -6.339 -37.901  1.00  0.00    -0.241 N
ATOM      2  H4  UNL     1      10.924  -6.600 -38.868  1.00  0.00     0.201 HD
HETATM    3  C3  UNL     1      10.012  -5.296 -37.640  1.00  0.00     0.171 C
ENDROOT
BRANCH   3   4
HETATM    4  C4  UNL     1       9.438  -4.451 -38.618  1.00  0.00     0.175 C
HETATM    5  O2  UNL     1       9.190  -3.233 -38.276  1.00  0.00    -0.291 OA
BRANCH   4   6
HETATM    6  C5  UNL     1       9.091  -4.861 -39.980  1.00  0.00     0.187 C
BRANCH   6   7
HETATM    7  C6  UNL     1       7.970  -4.048 -40.544  1.00  0.00     0.229 C
HETATM    8  O3  UNL     1       8.112  -3.570 -41.690  1.00  0.00    -0.273 OA
HETATM    9  N5  UNL     1       6.783  -3.800 -39.845  1.00  0.00    -0.326 N
ATOM     10  H5  UNL     1       6.692  -4.212 -38.917  1.00  0.00     0.169 HD
BRANCH   9  11
HETATM   11  C7  UNL     1       5.667  -3.005 -40.330  1.00  0.00     0.041 A
HETATM   12  C8  UNL     1       4.648  -3.512 -41.054  1.00  0.00     0.037 A
HETATM   13  C9  UNL     1       3.628  -2.662 -41.400  1.00  0.00     0.052 A
HETATM   14  S1  UNL     1       4.111  -1.182 -40.711  1.00  0.00    -0.111 SA
HETATM   15  C10 UNL     1       5.572  -1.662 -40.009  1.00  0.00     0.079 A
ENDBRANCH   9  11
ENDBRANCH   6   7
ENDBRANCH   4   6
ENDBRANCH   3   4
BRANCH   1  16
HETATM   16  N3  UNL     1      11.238  -7.105 -36.848  1.00  0.00    -0.304 NA
BRANCH  16  17
HETATM   17  C2  UNL     1      11.710  -7.813 -35.877  1.00  0.00     0.230 C
BRANCH  17  18
HETATM   18  C1  UNL     1      11.067  -7.885 -34.483  1.00  0.00     0.236 C
BRANCH  18  19
HETATM   19  N2  UNL     1       9.800  -7.209 -34.580  1.00  0.00    -0.139 NA
BRANCH  19  20
HETATM   20  N1  UNL     1       8.760  -8.104 -34.895  1.00  0.00    -0.348 N
ATOM     21  H12 UNL     1       8.716  -8.630 -35.769  1.00  0.00     0.172 HD
ATOM     22  H11 UNL     1       8.071  -8.155 -34.145  1.00  0.00     0.172 HD
ENDBRANCH  19  20
ENDBRANCH  18  19
ENDBRANCH  17  18
BRANCH  17  23
HETATM   23  O1  UNL     1      12.778  -8.571 -35.887  1.00  0.00    -0.336 OA
ATOM     24  H1  UNL     1      13.547  -8.014 -35.842  1.00  0.00     0.220 HD
ENDBRANCH  17  23
ENDBRANCH  16  17
ENDBRANCH   1  16
TORSDOF 10
ENDMDL