MODEL 3
REMARK VINA RESULT: -5.874608274      2.569      3.393
REMARK  8 active torsions:
REMARK  status: ('A' for Active; 'I' for Inactive)
REMARK    1  A    between atoms: N1_1  and  N2_4
REMARK       I    between atoms: N2_4  and  C1_6
REMARK    2  A    between atoms: C1_6  and  C2_8
REMARK    3  A    between atoms: C2_8  and  C3_9
REMARK    4  A    between atoms: C3_9  and  N3_10
REMARK    5  A    between atoms: N3_10  and  C4_13
REMARK    6  A    between atoms: C4_13  and  C5_14
REMARK       I    between atoms: C5_14  and  N4_16
REMARK    7  A    between atoms: N4_16  and  C6_18
REMARK    8  A    between atoms: C10_22  and  N5_23
ROOT
HETATM    1  C4  UNL     1      11.706  -5.035 -36.106  1.00  0.00     0.334 C
ENDROOT
BRANCH   1   2
HETATM    2  N3  UNL     1      12.652  -6.072 -35.855  1.00  0.00    -0.066 N
ATOM      3  H32 UNL     1      13.524  -5.909 -36.357  1.00  0.00     0.277 HD
ATOM      4  H31 UNL     1      12.373  -6.946 -36.299  1.00  0.00     0.277 HD
BRANCH   2   5
HETATM    5  C3  UNL     1      12.883  -6.250 -34.452  1.00  0.00     0.242 C
BRANCH   5   6
HETATM    6  C2  UNL     1      12.561  -7.641 -34.029  1.00  0.00     0.132 C
BRANCH   6   7
HETATM    7  C1  UNL     1      11.330  -8.156 -34.727  1.00  0.00     0.237 C
HETATM    8  N2  UNL     1      10.050  -7.746 -34.305  1.00  0.00    -0.277 N
ATOM      9  H2  UNL     1       9.990  -7.097 -33.520  1.00  0.00     0.189 HD
HETATM   10  O1  UNL     1      11.417  -8.959 -35.697  1.00  0.00    -0.272 OA
BRANCH   8  11
HETATM   11  N1  UNL     1       8.863  -8.169 -34.889  1.00  0.00    -0.343 N
ATOM     12  H12 UNL     1       8.675  -7.843 -35.837  1.00  0.00     0.176 HD
ATOM     13  H11 UNL     1       8.183  -8.776 -34.430  1.00  0.00     0.176 HD
ENDBRANCH   8  11
ENDBRANCH   6   7
ENDBRANCH   5   6
ENDBRANCH   2   5
ENDBRANCH   1   2
BRANCH   1  14
HETATM   14  C5  UNL     1      10.802  -5.358 -37.270  1.00  0.00     0.247 C
HETATM   15  O2  UNL     1       9.790  -6.024 -36.987  1.00  0.00    -0.271 OA
HETATM   16  N4  UNL     1      11.163  -4.900 -38.529  1.00  0.00    -0.326 N
ATOM     17  H4  UNL     1      12.032  -4.369 -38.580  1.00  0.00     0.169 HD
BRANCH  16  18
HETATM   18  C6  UNL     1      10.470  -5.078 -39.757  1.00  0.00     0.037 A
HETATM   19  C7  UNL     1       9.327  -4.406 -40.110  1.00  0.00     0.029 A
HETATM   20  C8  UNL     1       8.684  -4.629 -41.338  1.00  0.00     0.005 A
HETATM   21  C9  UNL     1       9.176  -5.538 -42.247  1.00  0.00     0.036 A
HETATM   22  C10 UNL     1      10.322  -6.216 -41.898  1.00  0.00     0.105 A
HETATM   23  C11 UNL     1      10.954  -5.999 -40.696  1.00  0.00     0.065 A
BRANCH  22  24
HETATM   24  N5  UNL     1      10.846  -7.158 -42.823  1.00  0.00    -0.116 N
HETATM   25  O3  UNL     1      10.143  -7.671 -43.713  1.00  0.00    -0.532 OA
HETATM   26  O4  UNL     1      12.171  -7.522 -42.741  1.00  0.00    -0.532 OA
ENDBRANCH  22  24
ENDBRANCH  16  18
ENDBRANCH   1  14
TORSDOF 8
ENDMDL