MODEL 3
REMARK VINA RESULT: -5.439629160      2.436      3.559
REMARK  9 active torsions:
REMARK  status: ('A' for Active; 'I' for Inactive)
REMARK    1  A    between atoms: C2_2  and  C4_4
REMARK    2  A    between atoms: C4_4  and  C5_5
REMARK    3  A    between atoms: C4_4  and  C6_10
REMARK    4  A    between atoms: C6_10  and  N3_11
REMARK    5  A    between atoms: C6_10  and  C7_15
REMARK    6  A    between atoms: C7_15  and  O1_16
REMARK    7  A    between atoms: C7_15  and  C8_18
REMARK    8  A    between atoms: C8_18  and  C9_20
REMARK    9  A    between atoms: C9_20  and  N4_21
ROOT
HETATM    1  C6  UNL     1      10.644  -7.652 -35.359  1.00  0.00     0.234 C
ENDROOT
BRANCH   1   2
HETATM    2  C4  UNL     1      11.928  -6.996 -35.627  1.00  0.00     0.111 C
BRANCH   2   3
HETATM    3  C2  UNL     1      12.693  -7.397 -36.810  1.00  0.00    -0.080 C
HETATM    4  C1  UNL     1      12.676  -8.554 -37.434  1.00  0.00     0.015 C
HETATM    5  C3  UNL     1      13.610  -6.342 -37.361  1.00  0.00     0.043 C
ENDBRANCH   2   3
BRANCH   2   6
HETATM    6  C5  UNL     1      12.773  -6.962 -34.408  1.00  0.00     0.097 C
HETATM    7  N1  UNL     1      13.531  -7.900 -34.025  1.00  0.00    -0.390 N
ATOM      8  H12 UNL     1      13.562  -8.743 -34.598  1.00  0.00     0.157 HD
ATOM      9  H11 UNL     1      14.112  -7.877 -33.187  1.00  0.00     0.157 HD
HETATM   10  N2  UNL     1      12.728  -5.770 -33.597  1.00  0.00    -0.087 NA
ENDBRANCH   2   6
ENDBRANCH   1   2
BRANCH   1  11
HETATM   11  N3  UNL     1      10.561  -7.987 -33.952  1.00  0.00    -0.071 N
ATOM     12  H33 UNL     1       9.896  -8.740 -33.772  1.00  0.00     0.274 HD
ATOM     13  H32 UNL     1      11.403  -8.455 -33.616  1.00  0.00     0.274 HD
ATOM     14  H31 UNL     1      10.347  -7.146 -33.416  1.00  0.00     0.274 HD
ENDBRANCH   1  11
BRANCH   1  15
HETATM   15  C7  UNL     1       9.398  -7.020 -35.884  1.00  0.00     0.220 C
BRANCH  15  16
HETATM   16  O1  UNL     1       8.430  -6.841 -34.909  1.00  0.00    -0.386 OA
ATOM     17  H1  UNL     1       7.784  -6.185 -35.143  1.00  0.00     0.210 HD
ENDBRANCH  15  16
BRANCH  15  18
HETATM   18  C8  UNL     1       9.804  -5.727 -36.506  1.00  0.00     0.176 C
HETATM   19  O2  UNL     1      10.194  -4.843 -35.736  1.00  0.00    -0.293 OA
BRANCH  18  20
HETATM   20  C9  UNL     1       9.737  -5.534 -37.957  1.00  0.00     0.229 C
BRANCH  20  21
HETATM   21  N4  UNL     1       9.374  -4.139 -38.253  1.00  0.00    -0.296 N
HETATM   22  C10 UNL     1       8.295  -3.736 -38.940  1.00  0.00     0.112 A
HETATM   23  C11 UNL     1       8.281  -2.357 -39.021  1.00  0.00     0.045 A
HETATM   24  C12 UNL     1       9.414  -1.958 -38.343  1.00  0.00     0.023 A
HETATM   25  C13 UNL     1       9.843  -0.527 -38.153  1.00  0.00     0.070 C
HETATM   26  N5  UNL     1      10.029  -3.050 -37.907  1.00  0.00    -0.303 N
ATOM     27  H5  UNL     1      10.897  -3.047 -37.372  1.00  0.00     0.186 HD
ENDBRANCH  20  21
ENDBRANCH  18  20
ENDBRANCH  15  18
ENDBRANCH   1  15
TORSDOF 9
ENDMDL