MODEL 2
REMARK VINA RESULT: -5.679351105      0.902      1.171
REMARK  9 active torsions:
REMARK  status: ('A' for Active; 'I' for Inactive)
REMARK    1  A    between atoms: C1_2  and  C2_4
REMARK    2  A    between atoms: C2_4  and  C3_5
REMARK    3  A    between atoms: C2_4  and  C8_12
REMARK    4  A    between atoms: C8_12  and  O2_13
REMARK    5  A    between atoms: C8_12  and  S1_15
REMARK    6  A    between atoms: S1_15  and  C9_16
REMARK    7  A    between atoms: C9_16  and  C10_17
REMARK    8  A    between atoms: C10_17  and  N3_18
REMARK    9  A    between atoms: C10_17  and  C11_22
ROOT
HETATM    1  C8  UNL     1      11.902  -5.402 -37.790  1.00  0.00     0.196 C
ENDROOT
BRANCH   1   2
HETATM    2  C2  UNL     1      11.670  -6.749 -38.441  1.00  0.00     0.148 C
BRANCH   2   3
HETATM    3  C1  UNL     1      12.867  -7.593 -38.445  1.00  0.00     0.243 C
HETATM    4  N1  UNL     1      14.089  -7.249 -39.042  1.00  0.00    -0.061 NA
HETATM    5  O1  UNL     1      12.815  -8.719 -37.874  1.00  0.00    -0.276 OA
ENDBRANCH   2   3
BRANCH   2   6
HETATM    6  C3  UNL     1      11.135  -6.581 -39.813  1.00  0.00    -0.027 A
HETATM    7  C4  UNL     1      10.471  -5.441 -40.224  1.00  0.00     0.011 A
HETATM    8  C5  UNL     1       9.981  -5.311 -41.517  1.00  0.00     0.018 A
HETATM    9  C6  UNL     1      10.147  -6.328 -42.434  1.00  0.00     0.087 A
HETATM   10  N2  UNL     1      10.797  -7.436 -42.018  1.00  0.00    -0.375 N
HETATM   11  C7  UNL     1      11.272  -7.572 -40.783  1.00  0.00     0.095 A
ATOM     12  H2  UNL     1      10.930  -8.201 -42.680  1.00  0.00     0.164 HD
ENDBRANCH   2   6
ENDBRANCH   1   2
BRANCH   1  13
HETATM   13  O2  UNL     1      13.180  -5.218 -37.331  1.00  0.00    -0.384 OA
ATOM     14  H2  UNL     1      13.730  -4.708 -37.914  1.00  0.00     0.211 HD
ENDBRANCH   1  13
BRANCH   1  15
HETATM   15  S1  UNL     1      10.663  -5.201 -36.459  1.00  0.00    -0.134 SA
BRANCH  15  16
HETATM   16  C9  UNL     1       9.689  -6.700 -36.397  1.00  0.00     0.120 C
BRANCH  16  17
HETATM   17  C10 UNL     1       9.657  -7.343 -35.037  1.00  0.00     0.292 C
BRANCH  17  18
HETATM   18  N3  UNL     1       8.536  -8.229 -34.897  1.00  0.00    -0.065 N
ATOM     19  H33 UNL     1       7.674  -7.792 -35.223  1.00  0.00     0.275 HD
ATOM     20  H32 UNL     1       8.586  -9.000 -35.563  1.00  0.00     0.275 HD
ATOM     21  H31 UNL     1       8.443  -8.568 -33.940  1.00  0.00     0.275 HD
ENDBRANCH  17  18
BRANCH  17  22
HETATM   22  C11 UNL     1      10.897  -8.018 -34.673  1.00  0.00     0.205 C
HETATM   23  O3  UNL     1      11.244  -9.126 -35.160  1.00  0.00    -0.646 OA
HETATM   24  O4  UNL     1      11.742  -7.422 -33.750  1.00  0.00    -0.646 OA
ENDBRANCH  17  22
ENDBRANCH  16  17
ENDBRANCH  15  16
ENDBRANCH   1  15
TORSDOF 9
ENDMDL