MODEL 3
REMARK VINA RESULT: -5.274486287      1.222      1.448
REMARK  8 active torsions:
REMARK  status: ('A' for Active; 'I' for Inactive)
REMARK    1  A    between atoms: N1_1  and  C1_5
REMARK    2  A    between atoms: C1_5  and  C2_6
REMARK    3  A    between atoms: C2_6  and  N2_7
REMARK    4  A    between atoms: C2_6  and  C10_23
REMARK    5  A    between atoms: N2_7  and  C3_9
REMARK    6  A    between atoms: C3_9  and  C4_10
REMARK    7  A    between atoms: C4_10  and  N3_11
REMARK       I    between atoms: N3_11  and  C5_13
REMARK    8  A    between atoms: C5_13  and  C6_15
ROOT
HETATM    1  N2  UNL     1      10.243  -5.739 -37.149  1.00  0.00    -0.409 N
ATOM      2  H2  UNL     1      10.386  -4.794 -36.791  1.00  0.00     0.154 HD
ENDROOT
BRANCH   1   3
HETATM    3  C2  UNL     1      10.208  -6.869 -36.299  1.00  0.00     0.153 C
BRANCH   3   4
HETATM    4  C1  UNL     1       9.077  -6.902 -35.311  1.00  0.00     0.260 C
BRANCH   4   5
HETATM    5  N1  UNL     1       8.637  -8.235 -34.983  1.00  0.00    -0.077 N
ATOM      6  H13 UNL     1       8.403  -8.757 -35.828  1.00  0.00     0.274 HD
ATOM      7  H12 UNL     1       9.417  -8.799 -34.645  1.00  0.00     0.274 HD
ATOM      8  H11 UNL     1       7.862  -8.257 -34.320  1.00  0.00     0.274 HD
ENDBRANCH   4   5
ENDBRANCH   3   4
BRANCH   3   9
HETATM    9  C10 UNL     1      11.483  -6.873 -35.495  1.00  0.00     0.050 A
HETATM   10  C11 UNL     1      12.085  -7.943 -34.874  1.00  0.00     0.116 A
HETATM   11  N6  UNL     1      13.195  -7.480 -34.283  1.00  0.00    -0.360 N
HETATM   12  C12 UNL     1      13.328  -6.162 -34.500  1.00  0.00     0.180 A
ATOM     13  H6  UNL     1      13.846  -8.049 -33.743  1.00  0.00     0.166 HD
HETATM   14  N7  UNL     1      12.270  -5.808 -35.244  1.00  0.00    -0.353 N
ATOM     15  H7  UNL     1      12.086  -4.861 -35.576  1.00  0.00     0.166 HD
ENDBRANCH   3   9
ENDBRANCH   1   3
BRANCH   1  16
HETATM   16  C3  UNL     1      10.062  -6.006 -38.546  1.00  0.00     0.134 C
BRANCH  16  17
HETATM   17  C4  UNL     1      11.197  -6.764 -39.171  1.00  0.00     0.142 C
BRANCH  17  18
HETATM   18  N3  UNL     1      12.430  -6.036 -38.942  1.00  0.00    -0.354 N
HETATM   19  C5  UNL     1      13.597  -6.694 -38.450  1.00  0.00     0.268 C
HETATM   20  O1  UNL     1      13.509  -7.945 -38.224  1.00  0.00    -0.266 OA
ATOM     21  H3  UNL     1      12.463  -5.035 -39.135  1.00  0.00     0.162 HD
BRANCH  19  22
HETATM   22  C6  UNL     1      14.842  -6.005 -38.208  1.00  0.00     0.102 A
HETATM   23  C7  UNL     1      14.836  -4.619 -38.149  1.00  0.00     0.052 A
HETATM   24  C8  UNL     1      15.992  -3.918 -37.923  1.00  0.00     0.091 A
HETATM   25  N4  UNL     1      17.134  -4.637 -37.761  1.00  0.00    -0.362 N
HETATM   26  C9  UNL     1      17.160  -5.964 -37.814  1.00  0.00     0.180 A
ATOM     27  H4  UNL     1      18.007  -4.137 -37.592  1.00  0.00     0.165 HD
HETATM   28  N5  UNL     1      16.017  -6.632 -38.037  1.00  0.00    -0.348 N
ATOM     29  H5  UNL     1      16.043  -7.651 -38.078  1.00  0.00     0.167 HD
ENDBRANCH  19  22
ENDBRANCH  17  18
ENDBRANCH  16  17
ENDBRANCH   1  16
TORSDOF 8
ENDMDL