MODEL 1
REMARK VINA RESULT: -5.944268503      0.000      0.000
REMARK  8 active torsions:
REMARK  status: ('A' for Active; 'I' for Inactive)
REMARK    1  A    between atoms: C1_2  and  C2_4
REMARK    2  A    between atoms: C2_4  and  C3_5
REMARK    3  A    between atoms: C2_4  and  C4_7
REMARK    4  A    between atoms: C4_7  and  O2_8
REMARK    5  A    between atoms: C4_7  and  N2_10
REMARK    6  A    between atoms: N2_10  and  C5_12
REMARK    7  A    between atoms: C5_12  and  C6_13
REMARK    8  A    between atoms: C5_12  and  C7_16
ROOT
HETATM    1  N2  UNL     1      13.323  -6.613 -37.047  1.00  0.00    -0.379 N
ATOM      2  H2  UNL     1      14.047  -6.402 -36.361  1.00  0.00     0.157 HD
ENDROOT
BRANCH   1   3
HETATM    3  C4  UNL     1      12.396  -7.609 -36.773  1.00  0.00     0.227 C
BRANCH   3   4
HETATM    4  C2  UNL     1      11.712  -7.460 -35.422  1.00  0.00     0.133 C
BRANCH   4   5
HETATM    5  C1  UNL     1      12.660  -7.408 -34.289  1.00  0.00     0.240 C
HETATM    6  N1  UNL     1      12.947  -6.187 -33.611  1.00  0.00    -0.062 NA
HETATM    7  O1  UNL     1      13.197  -8.507 -33.958  1.00  0.00    -0.276 OA
ENDBRANCH   4   5
BRANCH   4   8
HETATM    8  C3  UNL     1      10.604  -8.405 -35.171  1.00  0.00     0.104 C
HETATM    9  S1  UNL     1       8.960  -7.665 -35.329  1.00  0.00    -0.097 SA
ENDBRANCH   4   8
ENDBRANCH   3   4
BRANCH   3  10
HETATM   10  O2  UNL     1      13.026  -8.853 -36.765  1.00  0.00    -0.376 OA
ATOM     11  H2  UNL     1      13.747  -8.787 -36.150  1.00  0.00     0.212 HD
ENDBRANCH   3  10
ENDBRANCH   1   3
BRANCH   1  12
HETATM   12  C5  UNL     1      13.284  -5.881 -38.264  1.00  0.00     0.215 C
BRANCH  12  13
HETATM   13  C6  UNL     1      13.771  -6.595 -39.430  1.00  0.00     0.201 C
HETATM   14  O3  UNL     1      14.315  -5.878 -40.404  1.00  0.00    -0.646 OA
HETATM   15  O4  UNL     1      13.786  -7.925 -39.748  1.00  0.00    -0.646 OA
ENDBRANCH  12  13
BRANCH  12  16
HETATM   16  C7  UNL     1      11.942  -5.279 -38.383  1.00  0.00    -0.010 A
HETATM   17  C8  UNL     1      11.040  -5.858 -39.303  1.00  0.00     0.012 A
HETATM   18  C9  UNL     1       9.757  -5.402 -39.463  1.00  0.00     0.018 A
HETATM   19  C10 UNL     1       9.294  -4.343 -38.717  1.00  0.00     0.087 A
HETATM   20  N3  UNL     1      10.150  -3.795 -37.844  1.00  0.00    -0.375 N
HETATM   21  C11 UNL     1      11.433  -4.234 -37.670  1.00  0.00     0.097 A
ATOM     22  H3  UNL     1       9.827  -3.008 -37.280  1.00  0.00     0.164 HD
ENDBRANCH  12  16
ENDBRANCH   1  12
TORSDOF 8
ENDMDL