MODEL 2
REMARK VINA RESULT: -5.318636195      1.531      2.316
REMARK  9 active torsions:
REMARK  status: ('A' for Active; 'I' for Inactive)
REMARK    1  A    between atoms: N1_2  and  O1_3
REMARK    2  A    between atoms: N1_2  and  C2_5
REMARK    3  A    between atoms: C2_5  and  C3_6
REMARK    4  A    between atoms: C3_6  and  N2_7
REMARK    5  A    between atoms: N2_7  and  C4_10
REMARK    6  A    between atoms: C4_10  and  C5_11
REMARK    7  A    between atoms: N3_13  and  C7_14
REMARK    8  A    between atoms: C7_14  and  C9_16
REMARK    9  A    between atoms: C11_20  and  N5_21
ROOT
HETATM    1  C5  UNL     1      14.316  -6.543 -38.768  1.00  0.00     0.070 A
HETATM    2  C6  UNL     1      13.211  -6.488 -37.987  1.00  0.00     0.140 A
HETATM    3  N3  UNL     1      13.555  -6.146 -36.723  1.00  0.00    -0.277 N
HETATM    4  N7  UNL     1      14.869  -5.996 -36.763  1.00  0.00    -0.240 N
ATOM      5  H7  UNL     1      15.424  -5.731 -35.949  1.00  0.00     0.208 HD
HETATM    6  N8  UNL     1      15.384  -6.216 -37.930  1.00  0.00    -0.287 N
ATOM      7  H8  UNL     1      16.371  -6.162 -38.185  1.00  0.00     0.188 HD
ENDROOT
BRANCH   3   8
HETATM    8  C7  UNL     1      12.768  -5.953 -35.549  1.00  0.00     0.156 C
HETATM    9  C8  UNL     1      13.664  -5.896 -34.289  1.00  0.00     0.041 C
BRANCH   8  10
HETATM   10  C9  UNL     1      11.677  -6.907 -35.294  1.00  0.00     0.067 A
HETATM   11  C10 UNL     1      11.806  -8.219 -34.803  1.00  0.00     0.134 A
HETATM   12  N4  UNL     1      10.576  -8.765 -34.727  1.00  0.00    -0.200 N
HETATM   13  C11 UNL     1       9.684  -7.887 -35.144  1.00  0.00     0.676 A
ATOM     14  H4  UNL     1      10.368  -9.708 -34.398  1.00  0.00     0.183 HD
HETATM   15  N6  UNL     1      10.347  -6.743 -35.494  1.00  0.00    -0.192 N
ATOM     16  H6  UNL     1       9.908  -5.895 -35.851  1.00  0.00     0.184 HD
BRANCH  13  17
HETATM   17  N5  UNL     1       8.372  -8.049 -35.193  1.00  0.00    -0.234 N
ATOM     18  H52 UNL     1       7.767  -7.698 -35.935  1.00  0.00     0.174 HD
ATOM     19  H51 UNL     1       7.786  -8.514 -34.500  1.00  0.00     0.174 HD
ENDBRANCH  13  17
ENDBRANCH   8  10
ENDBRANCH   3   8
BRANCH   1  20
HETATM   20  C4  UNL     1      14.626  -6.900 -40.173  1.00  0.00     0.292 C
BRANCH  20  21
HETATM   21  N2  UNL     1      16.000  -6.450 -40.417  1.00  0.00    -0.068 N
ATOM     22  H22 UNL     1      16.450  -6.177 -39.543  1.00  0.00     0.277 HD
ATOM     23  H21 UNL     1      16.005  -5.551 -40.899  1.00  0.00     0.277 HD
BRANCH  21  24
HETATM   24  C3  UNL     1      16.798  -7.405 -41.120  1.00  0.00     0.254 C
BRANCH  24  25
HETATM   25  C2  UNL     1      18.264  -7.190 -40.733  1.00  0.00     0.181 C
BRANCH  25  26
HETATM   26  N1  UNL     1      18.466  -7.397 -39.308  1.00  0.00    -0.281 N
HETATM   27  C1  UNL     1      19.151  -6.900 -38.480  1.00  0.00     0.149 C
BRANCH  26  28
HETATM   28  O1  UNL     1      17.545  -8.429 -38.857  1.00  0.00    -0.289 OA
ATOM     29  H1  UNL     1      16.882  -8.708 -39.478  1.00  0.00     0.244 HD
ENDBRANCH  26  28
ENDBRANCH  25  26
ENDBRANCH  24  25
ENDBRANCH  21  24
ENDBRANCH  20  21
ENDBRANCH   1  20
TORSDOF 9
ENDMDL