MODEL 1
REMARK VINA RESULT: -5.575964006      0.000      0.000
REMARK  10 active torsions:
REMARK  status: ('A' for Active; 'I' for Inactive)
REMARK    1  A    between atoms: C1_2  and  C2_4
REMARK    2  A    between atoms: C2_4  and  O2_5
REMARK    3  A    between atoms: C2_4  and  C3_7
REMARK    4  A    between atoms: C3_7  and  N2_8
REMARK    5  A    between atoms: C3_7  and  C4_12
REMARK    6  A    between atoms: C4_12  and  N3_13
REMARK    7  A    between atoms: C4_12  and  C5_17
REMARK    8  A    between atoms: C5_17  and  C6_18
REMARK    9  A    between atoms: C6_18  and  C7_19
REMARK   10  A    between atoms: C7_19  and  C8_21
ROOT
HETATM    1  C4  UNL     1      10.468  -6.283 -36.178  1.00  0.00     0.217 C
ENDROOT
BRANCH   1   2
HETATM    2  C3  UNL     1      11.375  -7.491 -36.118  1.00  0.00     0.251 C
BRANCH   2   3
HETATM    3  C2  UNL     1      11.368  -7.999 -34.682  1.00  0.00     0.239 C
BRANCH   3   4
HETATM    4  C1  UNL     1      12.609  -7.612 -33.994  1.00  0.00     0.262 C
HETATM    5  N1  UNL     1      12.765  -6.303 -33.500  1.00  0.00    -0.060 NA
HETATM    6  O1  UNL     1      13.522  -8.444 -33.850  1.00  0.00    -0.274 OA
ENDBRANCH   3   4
BRANCH   3   7
HETATM    7  O2  UNL     1      10.229  -7.565 -34.004  1.00  0.00    -0.384 OA
ATOM      8  H2  UNL     1       9.430  -7.745 -34.486  1.00  0.00     0.210 HD
ENDBRANCH   3   7
ENDBRANCH   2   3
BRANCH   2   9
HETATM    9  N2  UNL     1      12.723  -7.151 -36.491  1.00  0.00    -0.070 N
ATOM     10  H23 UNL     1      13.401  -7.410 -35.774  1.00  0.00     0.274 HD
ATOM     11  H22 UNL     1      13.078  -7.741 -37.243  1.00  0.00     0.274 HD
ATOM     12  H21 UNL     1      12.765  -6.159 -36.724  1.00  0.00     0.274 HD
ENDBRANCH   2   9
ENDBRANCH   1   2
BRANCH   1  13
HETATM   13  N3  UNL     1      11.250  -5.064 -36.102  1.00  0.00    -0.073 N
ATOM     14  H33 UNL     1      12.139  -5.150 -36.595  1.00  0.00     0.274 HD
ATOM     15  H32 UNL     1      10.841  -4.314 -36.660  1.00  0.00     0.274 HD
ATOM     16  H31 UNL     1      11.379  -4.787 -35.128  1.00  0.00     0.274 HD
ENDBRANCH   1  13
BRANCH   1  17
HETATM   17  C5  UNL     1       9.534  -6.271 -37.344  1.00  0.00     0.043 C
BRANCH  17  18
HETATM   18  C6  UNL     1      10.144  -5.630 -38.554  1.00  0.00     0.086 C
BRANCH  18  19
HETATM   19  C7  UNL     1       9.441  -4.384 -38.942  1.00  0.00     0.166 C
HETATM   20  O3  UNL     1       9.582  -3.367 -38.257  1.00  0.00    -0.292 OA
BRANCH  19  21
HETATM   21  C8  UNL     1       8.587  -4.362 -40.133  1.00  0.00     0.050 A
HETATM   22  C9  UNL     1       8.829  -4.903 -41.361  1.00  0.00     0.023 A
HETATM   23  C10 UNL     1       7.889  -4.752 -42.303  1.00  0.00     0.009 A
HETATM   24  C11 UNL     1       6.755  -4.064 -41.957  1.00  0.00     0.050 A
HETATM   25  S1  UNL     1       7.047  -3.655 -40.325  1.00  0.00    -0.098 SA
ENDBRANCH  19  21
ENDBRANCH  18  19
ENDBRANCH  17  18
ENDBRANCH   1  17
TORSDOF 10
ENDMDL