MODEL 2
REMARK VINA RESULT: -5.949764434      1.811      2.204
REMARK  8 active torsions:
REMARK  status: ('A' for Active; 'I' for Inactive)
REMARK    1  A    between atoms: C1_2  and  C2_4
REMARK    2  A    between atoms: C2_4  and  C3_5
REMARK    3  A    between atoms: C2_4  and  C10_17
REMARK    4  A    between atoms: C3_5  and  N2_6
REMARK    5  A    between atoms: N2_6  and  C4_8
REMARK    6  A    between atoms: C7_11  and  N3_12
REMARK    7  A    between atoms: C10_17  and  N4_18
REMARK    8  A    between atoms: C10_17  and  C11_22
ROOT
HETATM    1  C2  UNL     1      10.700  -6.280 -35.314  1.00  0.00     0.133 C
ENDROOT
BRANCH   1   2
HETATM    2  C1  UNL     1       9.336  -6.872 -35.279  1.00  0.00     0.239 C
HETATM    3  N1  UNL     1       8.760  -7.494 -36.396  1.00  0.00    -0.062 NA
HETATM    4  O1  UNL     1       8.690  -6.808 -34.216  1.00  0.00    -0.276 OA
ENDBRANCH   1   2
BRANCH   1   5
HETATM    5  C3  UNL     1      10.801  -5.588 -36.661  1.00  0.00     0.136 C
BRANCH   5   6
HETATM    6  N2  UNL     1      11.448  -6.475 -37.605  1.00  0.00    -0.389 N
ATOM      7  H2  UNL     1      12.165  -7.117 -37.268  1.00  0.00     0.159 HD
BRANCH   6   8
HETATM    8  C4  UNL     1      11.115  -6.478 -38.980  1.00  0.00     0.028 A
HETATM    9  C5  UNL     1      11.703  -7.365 -39.846  1.00  0.00     0.031 A
HETATM   10  C6  UNL     1      11.370  -7.356 -41.184  1.00  0.00     0.038 A
HETATM   11  C7  UNL     1      10.440  -6.467 -41.717  1.00  0.00     0.103 A
HETATM   12  C8  UNL     1       9.856  -5.580 -40.839  1.00  0.00     0.038 A
HETATM   13  C9  UNL     1      10.194  -5.589 -39.483  1.00  0.00     0.031 A
BRANCH  11  14
HETATM   14  N3  UNL     1      10.127  -6.491 -43.099  1.00  0.00    -0.116 N
HETATM   15  O2  UNL     1       9.727  -5.450 -43.644  1.00  0.00    -0.532 OA
HETATM   16  O3  UNL     1      10.258  -7.637 -43.828  1.00  0.00    -0.532 OA
ENDBRANCH  11  14
ENDBRANCH   6   8
ENDBRANCH   5   6
ENDBRANCH   1   5
BRANCH   1  17
HETATM   17  C10 UNL     1      11.753  -7.353 -35.129  1.00  0.00     0.297 C
BRANCH  17  18
HETATM   18  N4  UNL     1      11.034  -8.546 -34.642  1.00  0.00    -0.064 N
ATOM     19  H43 UNL     1      10.437  -8.361 -33.836  1.00  0.00     0.275 HD
ATOM     20  H42 UNL     1      10.296  -8.862 -35.271  1.00  0.00     0.275 HD
ATOM     21  H41 UNL     1      11.749  -9.252 -34.466  1.00  0.00     0.275 HD
ENDBRANCH  17  18
BRANCH  17  22
HETATM   22  C11 UNL     1      12.712  -6.980 -34.084  1.00  0.00     0.205 C
HETATM   23  O4  UNL     1      13.566  -7.777 -33.600  1.00  0.00    -0.646 OA
HETATM   24  O5  UNL     1      12.711  -5.686 -33.574  1.00  0.00    -0.646 OA
ENDBRANCH  17  22
ENDBRANCH   1  17
TORSDOF 8
ENDMDL