MODEL 4
REMARK VINA RESULT: -7.903943654      3.422      6.591
REMARK  9 active torsions:
REMARK  status: ('A' for Active; 'I' for Inactive)
REMARK       I    between atoms: C2_2  and  N1_4
REMARK    1  A    between atoms: N1_4  and  C3_6
REMARK    2  A    between atoms: C3_6  and  C4_7
REMARK    3  A    between atoms: C3_6  and  C27_47
REMARK       I    between atoms: C4_7  and  N2_9
REMARK    4  A    between atoms: C8_15  and  C9_16
REMARK       I    between atoms: C9_16  and  N3_18
REMARK    5  A    between atoms: C13_23  and  C14_24
REMARK       I    between atoms: C14_24  and  N4_26
REMARK    6  A    between atoms: N4_26  and  C15_28
REMARK    7  A    between atoms: C22_35  and  C23_36
REMARK       I    between atoms: C23_36  and  N5_38
REMARK    8  A    between atoms: C24_40  and  C25_41
REMARK    9  A    between atoms: C25_41  and  N6_43
ROOT
HETATM    1  C9  UNL     1      14.341 -14.963  15.449  1.00  0.00     0.243 C
HETATM    2  O3  UNL     1      13.738 -14.759  14.346  1.00  0.00    -0.271 OA
HETATM    3  N3  UNL     1      14.871 -16.244  15.768  1.00  0.00    -0.333 N
HETATM    4  C10 UNL     1      15.505 -16.469  17.058  1.00  0.00     0.164 C
HETATM    5  C11 UNL     1      16.731 -17.320  16.953  1.00  0.00     0.189 C
HETATM    6  F3  UNL     1      17.893 -16.614  17.262  1.00  0.00    -0.248 F
HETATM    7  C12 UNL     1      16.939 -17.964  15.616  1.00  0.00     0.055 C
HETATM    8  C13 UNL     1      15.625 -18.481  15.104  1.00  0.00     0.112 C
HETATM    9  C22 UNL     1      14.771 -17.293  14.775  1.00  0.00     0.192 C
ENDROOT
BRANCH   1  10
HETATM   10  C8  UNL     1      14.454 -13.801  16.364  1.00  0.00     0.185 C
HETATM   11  N2  UNL     1      13.241 -13.028  16.482  1.00  0.00    -0.331 N
HETATM   12  C4  UNL     1      12.345 -13.053  17.577  1.00  0.00     0.244 C
HETATM   13  C5  UNL     1      13.137 -12.227  15.287  1.00  0.00     0.205 C
HETATM   14  O2  UNL     1      12.615 -13.816  18.559  1.00  0.00    -0.271 OA
HETATM   15  C6  UNL     1      14.562 -12.011  14.836  1.00  0.00     0.261 C
HETATM   16  F1  UNL     1      14.754 -12.474  13.526  1.00  0.00    -0.204 F
HETATM   17  F2  UNL     1      14.916 -10.677  14.816  1.00  0.00    -0.204 F
HETATM   18  C7  UNL     1      15.437 -12.843  15.715  1.00  0.00     0.115 C
BRANCH  12  19
HETATM   19  C3  UNL     1      11.115 -12.274  17.707  1.00  0.00     0.184 C
BRANCH  19  20
HETATM   20  N1  UNL     1      10.776 -12.025  19.107  1.00  0.00    -0.347 N
HETATM   21  C2  UNL     1      11.436 -10.953  19.766  1.00  0.00     0.214 C
HETATM   22  C1  UNL     1      11.199 -10.581  21.174  1.00  0.00     0.117 C
HETATM   23  O1  UNL     1      12.272 -10.274  19.125  1.00  0.00    -0.274 OA
ATOM     24  H1  UNL     1      10.089 -12.601  19.594  1.00  0.00     0.163 HD
ENDBRANCH  19  20
BRANCH  19  25
HETATM   25  C27 UNL     1       9.935 -13.092  17.178  1.00  0.00    -0.022 C
HETATM   26  C28 UNL     1       8.825 -13.209  18.185  1.00  0.00     0.017 C
HETATM   27  C29 UNL     1      10.348 -14.433  16.632  1.00  0.00     0.017 C
HETATM   28  C30 UNL     1       9.321 -12.352  15.971  1.00  0.00     0.017 C
ENDBRANCH  19  25
ENDBRANCH  12  19
ENDBRANCH   1  10
BRANCH   9  29
HETATM   29  C23 UNL     1      13.414 -17.743  14.477  1.00  0.00     0.245 C
HETATM   30  O5  UNL     1      12.433 -17.683  15.258  1.00  0.00    -0.271 OA
HETATM   31  N5  UNL     1      13.169 -18.297  13.197  1.00  0.00    -0.337 N
HETATM   32  C24 UNL     1      12.403 -17.886  12.292  1.00  0.00     0.096 C
ATOM     33  H5  UNL     1      13.688 -19.149  12.981  1.00  0.00     0.168 HD
BRANCH  32  34
HETATM   34  C25 UNL     1      11.551 -16.676  12.366  1.00  0.00     0.217 C
HETATM   35  C26 UNL     1      10.084 -17.072  12.586  1.00  0.00     0.045 C
BRANCH  34  36
HETATM   36  N6  UNL     1      11.597 -15.973  11.107  1.00  0.00    -0.071 N
ATOM     37  H63 UNL     1      11.335 -16.570  10.323  1.00  0.00     0.275 HD
ATOM     38  H62 UNL     1      10.848 -15.285  11.023  1.00  0.00     0.275 HD
ATOM     39  H61 UNL     1      12.518 -15.556  10.981  1.00  0.00     0.275 HD
ENDBRANCH  34  36
ENDBRANCH  32  34
ENDBRANCH   9  29
BRANCH   8  40
HETATM   40  C14 UNL     1      14.977 -19.460  15.994  1.00  0.00     0.224 C
HETATM   41  O4  UNL     1      14.961 -20.699  15.773  1.00  0.00    -0.273 OA
HETATM   42  N4  UNL     1      14.337 -18.993  17.164  1.00  0.00    -0.356 N
ATOM     43  H4  UNL     1      14.337 -17.993  17.367  1.00  0.00     0.162 HD
BRANCH  42  44
HETATM   44  C15 UNL     1      13.682 -19.898  18.078  1.00  0.00     0.084 C
HETATM   45  C16 UNL     1      14.460 -20.015  19.387  1.00  0.00     0.025 C
HETATM   46  C17 UNL     1      13.781 -21.099  20.178  1.00  0.00     0.007 C
HETATM   47  C18 UNL     1      12.321 -20.907  20.379  1.00  0.00    -0.010 A
HETATM   48  C19 UNL     1      11.734 -19.652  20.858  1.00  0.00     0.010 A
HETATM   49  C20 UNL     1      11.572 -20.145  19.403  1.00  0.00    -0.008 A
HETATM   50  C21 UNL     1      12.342 -19.329  18.420  1.00  0.00     0.030 C
ENDBRANCH  42  44
ENDBRANCH   8  40
TORSDOF 9
ENDMDL