MODEL 4
REMARK VINA RESULT: -6.961724246      2.909      7.417
REMARK  8 active torsions:
REMARK  status: ('A' for Active; 'I' for Inactive)
REMARK    1  A    between atoms: C2_2  and  C3_3
REMARK    2  A    between atoms: C3_3  and  C4_4
REMARK    3  A    between atoms: C6_9  and  C7_10
REMARK    4  A    between atoms: C7_10  and  O2_12
REMARK    5  A    between atoms: C11_17  and  C12_18
REMARK    6  A    between atoms: C15_26  and  C16_27
REMARK    7  A    between atoms: C16_27  and  C18_29
REMARK    8  A    between atoms: C22_35  and  C23_36
ROOT
HETATM    1  C4  UNL     1      11.608 -18.802  13.091  1.00  0.00     0.179 C
HETATM    2  C5  UNL     1      11.383 -17.567  12.293  1.00  0.00     0.245 C
HETATM    3  O1  UNL     1      12.466 -17.112  11.749  1.00  0.00    -0.271 OA
HETATM    4  N1  UNL     1      10.225 -16.852  12.050  1.00  0.00    -0.323 N
ATOM      5  H1  UNL     1       9.987 -16.811  11.059  1.00  0.00     0.169 HD
HETATM    6  C6  UNL     1       9.287 -16.157  12.873  1.00  0.00     0.091 C
HETATM    7  C9  UNL     1       9.385 -14.671  12.688  1.00  0.00     0.197 C
HETATM    8  O3  UNL     1       9.493 -14.372  11.437  1.00  0.00    -0.286 OA
HETATM    9  C10 UNL     1       9.372 -13.617  13.633  1.00  0.00     0.064 C
HETATM   10  C11 UNL     1      10.258 -13.145  14.480  1.00  0.00    -0.024 C
HETATM   11  C13 UNL     1      11.650 -13.616  14.665  1.00  0.00     0.291 C
HETATM   12  F1  UNL     1      12.137 -14.241  13.550  1.00  0.00    -0.234 F
HETATM   13  C14 UNL     1      11.865 -14.332  15.936  1.00  0.00     0.256 C
HETATM   14  O4  UNL     1      10.851 -14.614  16.632  1.00  0.00    -0.270 OA
HETATM   15  N2  UNL     1      13.107 -14.742  16.466  1.00  0.00    -0.345 N
ATOM     16  H2  UNL     1      13.210 -14.706  17.480  1.00  0.00     0.163 HD
HETATM   17  C15 UNL     1      14.249 -15.209  15.708  1.00  0.00     0.180 C
HETATM   18  C20 UNL     1      14.935 -16.368  16.344  1.00  0.00     0.243 C
HETATM   19  O5  UNL     1      15.697 -16.129  17.352  1.00  0.00    -0.271 OA
HETATM   20  N3  UNL     1      14.836 -17.718  15.952  1.00  0.00    -0.341 N
HETATM   21  C21 UNL     1      16.052 -18.526  15.812  1.00  0.00     0.153 C
HETATM   22  C22 UNL     1      13.579 -18.426  15.674  1.00  0.00     0.182 C
HETATM   23  C26 UNL     1      13.713 -19.273  14.454  1.00  0.00     0.243 C
HETATM   24  O6  UNL     1      14.539 -20.261  14.489  1.00  0.00    -0.271 OA
HETATM   25  N4  UNL     1      13.029 -19.116  13.246  1.00  0.00    -0.341 N
HETATM   26  C27 UNL     1      13.804 -19.280  12.004  1.00  0.00     0.153 C
ENDROOT
BRANCH   6  27
HETATM   27  C7  UNL     1       9.034 -16.634  14.245  1.00  0.00     0.168 C
HETATM   28  C8  UNL     1       8.173 -17.913  14.201  1.00  0.00     0.046 C
BRANCH  27  29
HETATM   29  O2  UNL     1       8.202 -15.751  14.938  1.00  0.00    -0.390 OA
ATOM     30  H2  UNL     1       7.554 -16.222  15.448  1.00  0.00     0.210 HD
ENDBRANCH  27  29
ENDBRANCH   6  27
BRANCH   1  31
HETATM   31  C3  UNL     1      11.022 -20.018  12.369  1.00  0.00     0.035 C
BRANCH  31  32
HETATM   32  C2  UNL     1      10.255 -20.913  13.265  1.00  0.00    -0.002 C
HETATM   33  C1  UNL     1      11.157 -22.118  13.577  1.00  0.00     0.005 C
ENDBRANCH  31  32
ENDBRANCH   1  31
BRANCH  10  34
HETATM   34  C12 UNL     1       9.888 -11.975  15.366  1.00  0.00     0.122 C
HETATM   35 BR1  UNL     1       8.216 -12.302  16.273  1.00  0.00    -0.092 Br
ENDBRANCH  10  34
BRANCH  22  36
HETATM   36  C23 UNL     1      13.314 -19.362  16.865  1.00  0.00     0.009 C
HETATM   37  C24 UNL     1      13.124 -18.544  18.132  1.00  0.00     0.012 C
HETATM   38  C25 UNL     1      12.099 -20.199  16.697  1.00  0.00     0.012 C
ENDBRANCH  22  36
BRANCH  17  39
HETATM   39  C16 UNL     1      15.160 -14.011  15.531  1.00  0.00     0.013 C
HETATM   40  C17 UNL     1      14.844 -12.880  16.462  1.00  0.00     0.012 C
BRANCH  39  41
HETATM   41  C18 UNL     1      15.402 -13.620  14.116  1.00  0.00     0.002 C
HETATM   42  C19 UNL     1      16.109 -12.289  13.980  1.00  0.00     0.005 C
ENDBRANCH  39  41
ENDBRANCH  17  39
TORSDOF 8
ENDMDL