MODEL 2
REMARK VINA RESULT: -7.046222809      3.573      6.828
REMARK  9 active torsions:
REMARK  status: ('A' for Active; 'I' for Inactive)
REMARK    1  A    between atoms: C2_2  and  C4_4
REMARK    2  A    between atoms: C4_4  and  S1_5
REMARK    3  A    between atoms: S1_5  and  N1_8
REMARK    4  A    between atoms: C8_15  and  C9_16
REMARK       I    between atoms: C9_16  and  N3_18
REMARK    5  A    between atoms: N3_18  and  C10_20
REMARK    6  A    between atoms: C10_20  and  C11_21
REMARK    7  A    between atoms: C10_20  and  C12_23
REMARK    8  A    between atoms: C16_29  and  C17_30
REMARK    9  A    between atoms: C17_30  and  O5_31
ROOT
HETATM    1  N1  UNL     1       9.841 -13.471  13.985  1.00  0.00    -0.180 NA
HETATM    2  C5  UNL     1       8.541 -13.086  14.538  1.00  0.00     0.135 C
HETATM    3  C6  UNL     1       8.778 -12.968  16.004  1.00  0.00     0.107 C
HETATM    4  N2  UNL     1       9.084 -14.246  16.554  1.00  0.00    -0.352 N
ATOM      5  H2  UNL     1       8.512 -14.774  17.214  1.00  0.00     0.163 HD
HETATM    6  C7  UNL     1      10.350 -14.655  16.006  1.00  0.00     0.252 C
HETATM    7  O3  UNL     1      11.010 -15.688  16.205  1.00  0.00    -0.271 OA
HETATM    8  C8  UNL     1      10.747 -13.547  15.104  1.00  0.00     0.196 C
HETATM    9  C16 UNL     1      10.203 -12.358  15.925  1.00  0.00     0.076 C
ENDROOT
BRANCH   8  10
HETATM   10  C9  UNL     1      12.148 -13.459  14.781  1.00  0.00     0.252 C
HETATM   11  O4  UNL     1      12.453 -13.390  13.540  1.00  0.00    -0.271 OA
HETATM   12  N3  UNL     1      13.230 -13.443  15.698  1.00  0.00    -0.353 N
ATOM     13  H3  UNL     1      13.013 -13.488  16.694  1.00  0.00     0.163 HD
BRANCH  12  14
HETATM   14  C10 UNL     1      14.610 -13.367  15.314  1.00  0.00     0.098 C
BRANCH  14  15
HETATM   15  C11 UNL     1      15.266 -12.040  15.539  1.00  0.00     0.110 C
HETATM   16 BR1  UNL     1      16.315 -11.460  14.021  1.00  0.00    -0.094 Br
ENDBRANCH  14  15
BRANCH  14  17
HETATM   17  C12 UNL     1      15.403 -14.521  15.846  1.00  0.00     0.014 C
HETATM   18  C13 UNL     1      14.679 -15.439  16.796  1.00  0.00     0.039 C
HETATM   19  C14 UNL     1      15.484 -16.584  16.168  1.00  0.00     0.076 C
HETATM   20 BR2  UNL     1      14.482 -18.196  15.920  1.00  0.00    -0.073 Br
HETATM   21 BR3  UNL     1      17.172 -16.835  17.058  1.00  0.00    -0.073 Br
HETATM   22  C15 UNL     1      15.569 -15.692  14.919  1.00  0.00     0.039 C
ENDBRANCH  14  17
ENDBRANCH  12  14
ENDBRANCH   8  10
BRANCH   1  23
HETATM   23  S1  UNL     1       9.573 -14.955  13.170  1.00  0.00     0.213 S
HETATM   24  O1  UNL     1       8.232 -15.548  13.548  1.00  0.00    -0.211 OA
HETATM   25  O2  UNL     1      10.594 -16.000  13.430  1.00  0.00    -0.211 OA
BRANCH  23  26
HETATM   26  C4  UNL     1       9.629 -14.595  11.427  1.00  0.00     0.161 C
BRANCH  26  27
HETATM   27  C2  UNL     1       8.254 -14.561  10.810  1.00  0.00    -0.007 C
HETATM   28  C1  UNL     1       8.366 -15.197   9.439  1.00  0.00     0.010 C
HETATM   29  C3  UNL     1       7.720 -13.171  10.627  1.00  0.00     0.010 C
ENDBRANCH  26  27
ENDBRANCH  23  26
ENDBRANCH   1  23
BRANCH   9  30
HETATM   30  C17 UNL     1      10.708 -12.296  17.316  1.00  0.00     0.173 C
BRANCH  30  31
HETATM   31  O5  UNL     1      11.733 -11.386  17.521  1.00  0.00    -0.400 OA
ATOM     32  H5  UNL     1      11.449 -10.488  17.640  1.00  0.00     0.209 HD
ENDBRANCH  30  31
ENDBRANCH   9  30
TORSDOF 9
ENDMDL