MODEL 2
REMARK VINA RESULT: -8.111354424      1.573      2.644
REMARK  11 active torsions:
REMARK  status: ('A' for Active; 'I' for Inactive)
REMARK    1  A    between atoms: O1_2  and  C2_3
REMARK    2  A    between atoms: C2_3  and  C3_5
REMARK    3  A    between atoms: C3_5  and  N1_6
REMARK       I    between atoms: N1_6  and  C4_8
REMARK    4  A    between atoms: C4_8  and  C5_10
REMARK    5  A    between atoms: C5_10  and  C6_11
REMARK       I    between atoms: C6_11  and  N2_13
REMARK    6  A    between atoms: N2_13  and  C7_15
REMARK    7  A    between atoms: C8_20  and  C9_21
REMARK    8  A    between atoms: C9_21  and  C10_22
REMARK    9  A    between atoms: C10_22  and  S1_23
REMARK   10  A    between atoms: S1_23  and  C11_24
REMARK   11  A    between atoms: C11_24  and  C12_25
ROOT
HETATM    1  C7  UNL     1      12.985 -12.159  16.278  1.00  0.00     0.700 A
HETATM    2  N3  UNL     1      12.631 -11.229  15.347  1.00  0.00    -0.130 N
ATOM      3  H3  UNL     1      13.271 -10.607  14.854  1.00  0.00     0.205 HD
HETATM    4  N4  UNL     1      11.320 -11.268  15.190  1.00  0.00    -0.274 N
ATOM      5  H4  UNL     1      10.789 -10.675  14.552  1.00  0.00     0.189 HD
HETATM    6  C8  UNL     1      10.791 -12.204  15.996  1.00  0.00     0.113 A
HETATM    7  N5  UNL     1      11.833 -12.738  16.653  1.00  0.00    -0.178 N
ATOM      8  H5  UNL     1      11.759 -13.484  17.344  1.00  0.00     0.185 HD
ENDROOT
BRANCH   1   9
HETATM    9  N2  UNL     1      14.196 -12.396  16.680  1.00  0.00    -0.158 N
HETATM   10  C6  UNL     1      14.817 -13.644  16.399  1.00  0.00     0.244 C
HETATM   11  O4  UNL     1      14.368 -14.697  16.970  1.00  0.00    -0.272 OA
ATOM     12  H2  UNL     1      14.706 -11.683  17.202  1.00  0.00     0.187 HD
BRANCH  10  13
HETATM   13  C5  UNL     1      15.949 -13.773  15.479  1.00  0.00     0.206 C
BRANCH  13  14
HETATM   14  C4  UNL     1      15.777 -12.876  14.325  1.00  0.00     0.226 C
HETATM   15  N1  UNL     1      16.764 -11.890  14.058  1.00  0.00    -0.351 N
ATOM     16  H1  UNL     1      17.578 -11.815  14.668  1.00  0.00     0.163 HD
HETATM   17  O3  UNL     1      14.765 -12.997  13.600  1.00  0.00    -0.273 OA
BRANCH  15  18
HETATM   18  C3  UNL     1      16.626 -10.978  12.917  1.00  0.00     0.233 C
BRANCH  18  19
HETATM   19  C2  UNL     1      15.798  -9.827  13.349  1.00  0.00     0.276 C
HETATM   20  O2  UNL     1      15.326  -9.741  14.509  1.00  0.00    -0.263 OA
BRANCH  19  21
HETATM   21  O1  UNL     1      15.527  -8.802  12.453  1.00  0.00    -0.325 OA
HETATM   22  C1  UNL     1      16.455  -8.539  11.422  1.00  0.00     0.213 C
ENDBRANCH  19  21
ENDBRANCH  18  19
ENDBRANCH  15  18
ENDBRANCH  13  14
ENDBRANCH  10  13
ENDBRANCH   1   9
BRANCH   6  23
HETATM   23  C9  UNL     1       9.348 -12.542  16.102  1.00  0.00     0.088 C
BRANCH  23  24
HETATM   24  C10 UNL     1       9.256 -13.736  17.065  1.00  0.00     0.081 C
BRANCH  24  25
HETATM   25  S1  UNL     1       8.841 -15.244  16.155  1.00  0.00    -0.164 SA
BRANCH  25  26
HETATM   26  C11 UNL     1      10.210 -15.655  15.040  1.00  0.00     0.114 C
BRANCH  26  27
HETATM   27  C12 UNL     1       9.758 -15.465  13.648  1.00  0.00    -0.030 A
HETATM   28  C13 UNL     1       8.558 -14.865  13.389  1.00  0.00     0.029 A
HETATM   29  C14 UNL     1       8.106 -14.674  12.079  1.00  0.00     0.029 A
HETATM   30 BR1  UNL     1       6.436 -13.840  11.720  1.00  0.00    -0.050 Br
HETATM   31  C15 UNL     1       8.887 -15.098  11.054  1.00  0.00     0.029 A
HETATM   32 BR2  UNL     1       8.292 -14.847   9.242  1.00  0.00    -0.050 Br
HETATM   33  C16 UNL     1      10.109 -15.709  11.267  1.00  0.00     0.040 A
HETATM   34  C17 UNL     1      10.528 -15.885  12.589  1.00  0.00     0.019 A
HETATM   35 BR3  UNL     1      12.198 -16.718  12.990  1.00  0.00    -0.050 Br
ENDBRANCH  26  27
ENDBRANCH  25  26
ENDBRANCH  24  25
ENDBRANCH  23  24
ENDBRANCH   6  23
TORSDOF 11
ENDMDL