MODEL 2
REMARK VINA RESULT: -8.070450695      0.833      1.095
REMARK  8 active torsions:
REMARK  status: ('A' for Active; 'I' for Inactive)
REMARK    1  A    between atoms: C2_2  and  O1_3
REMARK    2  A    between atoms: O1_3  and  C3_4
REMARK    3  A    between atoms: C3_4  and  C4_6
REMARK    4  A    between atoms: C4_6  and  N1_7
REMARK       I    between atoms: N2_13  and  C8_15
REMARK       I    between atoms: C8_15  and  N3_17
REMARK    5  A    between atoms: C13_22  and  C14_23
REMARK    6  A    between atoms: C15_26  and  C16_27
REMARK       I    between atoms: C16_27  and  N4_29
REMARK    7  A    between atoms: N4_29  and  C17_31
REMARK    8  A    between atoms: C17_31  and  C20_34
ROOT
HETATM    1  N1  UNL     1      14.739 -12.604  15.107  1.00  0.00    -0.319 N
HETATM    2  C5  UNL     1      15.621 -13.647  14.642  1.00  0.00     0.215 C
HETATM    3  C6  UNL     1      15.121 -14.966  15.179  1.00  0.00     0.317 C
HETATM    4  F1  UNL     1      15.971 -15.963  14.740  1.00  0.00    -0.196 F
HETATM    5  F2  UNL     1      15.063 -14.974  16.560  1.00  0.00    -0.196 F
HETATM    6  C7  UNL     1      13.745 -15.152  14.613  1.00  0.00     0.164 C
HETATM    7  N2  UNL     1      13.473 -16.221  13.990  1.00  0.00    -0.293 N
ATOM      8  H2  UNL     1      14.202 -16.928  13.892  1.00  0.00     0.172 HD
HETATM    9  C8  UNL     1      12.203 -16.474  13.427  1.00  0.00     0.325 C
HETATM   10  O3  UNL     1      11.689 -15.593  12.704  1.00  0.00    -0.247 OA
HETATM   11  N3  UNL     1      11.503 -17.685  13.658  1.00  0.00    -0.309 N
HETATM   12  C9  UNL     1      12.135 -18.669  14.488  1.00  0.00     0.099 C
HETATM   13  C10 UNL     1      12.067 -20.042  13.784  1.00  0.00     0.032 C
HETATM   14  C11 UNL     1      10.625 -20.022  14.305  1.00  0.00     0.005 C
HETATM   15  C12 UNL     1       9.718 -19.184  13.489  1.00  0.00     0.046 A
HETATM   16  C13 UNL     1       9.935 -18.948  12.046  1.00  0.00     0.132 A
HETATM   17  C15 UNL     1      10.205 -17.859  13.042  1.00  0.00     0.137 A
HETATM   18  C21 UNL     1      11.237 -19.320  15.506  1.00  0.00    -0.023 C
HETATM   19  C22 UNL     1      10.389 -18.502  16.371  1.00  0.00     0.017 C
HETATM   20  C23 UNL     1      12.042 -20.321  16.321  1.00  0.00     0.017 C
HETATM   21  N5  UNL     1      12.809 -14.098  14.812  1.00  0.00    -0.293 N
ATOM     22  H5  UNL     1      11.803 -14.262  14.777  1.00  0.00     0.172 HD
HETATM   23  C24 UNL     1      13.342 -12.814  15.061  1.00  0.00     0.324 C
HETATM   24  O7  UNL     1      12.553 -11.856  15.243  1.00  0.00    -0.247 OA
ENDROOT
BRANCH  17  25
HETATM   25  C16 UNL     1       9.315 -16.691  12.961  1.00  0.00     0.248 C
HETATM   26  O6  UNL     1       8.726 -16.337  14.038  1.00  0.00    -0.271 OA
HETATM   27  N4  UNL     1       9.095 -15.969  11.775  1.00  0.00    -0.350 N
ATOM     28  H4  UNL     1       9.588 -16.268  10.933  1.00  0.00     0.163 HD
BRANCH  27  29
HETATM   29  C17 UNL     1       8.212 -14.829  11.676  1.00  0.00     0.034 C
HETATM   30  C18 UNL     1       8.511 -13.780  12.723  1.00  0.00     0.039 C
HETATM   31  C19 UNL     1       8.329 -14.159  10.332  1.00  0.00     0.039 C
BRANCH  29  32
HETATM   32  C20 UNL     1       6.762 -15.225  11.853  1.00  0.00     0.115 C
HETATM   33 BR1  UNL     1       5.573 -13.740  11.618  1.00  0.00    -0.094 Br
ENDBRANCH  29  32
ENDBRANCH  27  29
ENDBRANCH  17  25
BRANCH  16  34
HETATM   34  C14 UNL     1       8.734 -19.022  11.209  1.00  0.00     0.180 C
HETATM   35  O4  UNL     1       7.687 -19.671  11.540  1.00  0.00    -0.648 OA
HETATM   36  O5  UNL     1       8.629 -18.379   9.962  1.00  0.00    -0.648 OA
ENDBRANCH  16  34
BRANCH   1  37
HETATM   37  C4  UNL     1      15.213 -11.343  15.621  1.00  0.00     0.238 C
BRANCH  37  38
HETATM   38  C3  UNL     1      15.544 -10.414  14.534  1.00  0.00     0.276 C
HETATM   39  O2  UNL     1      14.717  -9.586  14.092  1.00  0.00    -0.263 OA
BRANCH  38  40
HETATM   40  O1  UNL     1      16.818 -10.463  13.982  1.00  0.00    -0.321 OA
BRANCH  40  41
HETATM   41  C2  UNL     1      16.978 -10.974  12.666  1.00  0.00     0.174 C
HETATM   42  C1  UNL     1      17.078  -9.813  11.700  1.00  0.00     0.034 C
ENDBRANCH  40  41
ENDBRANCH  38  40
ENDBRANCH  37  38
ENDBRANCH   1  37
TORSDOF 8
ENDMDL