MODEL 2
REMARK VINA RESULT: -9.990189795      0.827      1.145
REMARK  11 active torsions:
REMARK  status: ('A' for Active; 'I' for Inactive)
REMARK    1  A    between atoms: N1_1  and  S1_4
REMARK    2  A    between atoms: S1_4  and  C1_6
REMARK    3  A    between atoms: S1_4  and  N2_9
REMARK    4  A    between atoms: C5_12  and  C6_13
REMARK    5  A    between atoms: C6_13  and  O2_14
REMARK    6  A    between atoms: C6_13  and  C7_16
REMARK    7  A    between atoms: C7_16  and  C8_17
REMARK    8  A    between atoms: C18_27  and  C19_28
REMARK       I    between atoms: C19_28  and  N4_30
REMARK    9  A    between atoms: C22_33  and  C23_34
REMARK   10  A    between atoms: N5_40  and  C26_41
REMARK   11  A    between atoms: C26_41  and  C27_42
ROOT
HETATM    1  N2  UNL     1      13.081 -16.483  13.784  1.00  0.00    -0.105 NA
HETATM    2  N3  UNL     1      13.054 -17.567  12.889  1.00  0.00    -0.146 NA
HETATM    3  C4  UNL     1      11.911 -18.387  13.218  1.00  0.00     0.143 C
HETATM    4  C5  UNL     1      10.907 -17.248  13.592  1.00  0.00     0.083 C
HETATM    5  C18 UNL     1      11.862 -16.522  14.499  1.00  0.00     0.097 C
ENDROOT
BRANCH   5   6
HETATM    6  C19 UNL     1      11.380 -15.385  15.230  1.00  0.00     0.282 C
HETATM    7  O3  UNL     1      10.393 -15.695  16.012  1.00  0.00    -0.265 OA
HETATM    8  N4  UNL     1      11.784 -14.048  15.243  1.00  0.00    -0.251 N
HETATM    9  C20 UNL     1      12.820 -13.482  14.340  1.00  0.00     0.159 C
HETATM   10  N5  UNL     1      11.236 -13.132  16.204  1.00  0.00    -0.247 N
HETATM   11  C21 UNL     1      13.777 -12.840  15.250  1.00  0.00     0.035 A
HETATM   12  C22 UNL     1      14.390 -11.567  15.375  1.00  0.00     0.107 A
HETATM   13  C24 UNL     1      12.978 -11.523  15.581  1.00  0.00     0.101 A
HETATM   14  C25 UNL     1      12.061 -11.993  16.577  1.00  0.00     0.244 C
HETATM   15  O6  UNL     1      11.969 -11.456  17.706  1.00  0.00    -0.271 OA
BRANCH  12  16
HETATM   16  C23 UNL     1      14.967 -10.900  14.190  1.00  0.00     0.178 C
HETATM   17  O4  UNL     1      14.763  -9.692  13.991  1.00  0.00    -0.648 OA
HETATM   18  O5  UNL     1      15.730 -11.629  13.307  1.00  0.00    -0.648 OA
ENDBRANCH  12  16
BRANCH  10  19
HETATM   19  C26 UNL     1       9.948 -13.272  16.816  1.00  0.00     0.269 C
BRANCH  19  20
HETATM   20  C27 UNL     1       8.817 -12.664  15.998  1.00  0.00     0.405 C
HETATM   21  F1  UNL     1       8.348 -13.493  15.015  1.00  0.00    -0.169 F
HETATM   22  F2  UNL     1       7.808 -12.237  16.840  1.00  0.00    -0.169 F
HETATM   23  F3  UNL     1       9.268 -11.503  15.351  1.00  0.00    -0.169 F
ENDBRANCH  19  20
ENDBRANCH  10  19
ENDBRANCH   5   6
BRANCH   1  24
HETATM   24  S1  UNL     1      14.455 -16.859  14.809  1.00  0.00     0.108 S
HETATM   25  O1  UNL     1      15.071 -18.161  14.468  1.00  0.00    -0.232 OA
BRANCH  24  26
HETATM   26  N1  UNL     1      15.559 -15.768  14.657  1.00  0.00    -0.347 N
ATOM     27  H12 UNL     1      16.414 -15.862  14.109  1.00  0.00     0.166 HD
ATOM     28  H11 UNL     1      15.263 -14.957  15.200  1.00  0.00     0.166 HD
ENDBRANCH  24  26
BRANCH  24  29
HETATM   29  C1  UNL     1      13.910 -16.975  16.502  1.00  0.00     0.104 A
HETATM   30  C2  UNL     1      15.019 -17.055  17.505  1.00  0.00     0.021 A
HETATM   31  C3  UNL     1      14.097 -15.848  17.434  1.00  0.00     0.021 A
ENDBRANCH  24  29
ENDBRANCH   1  24
BRANCH   4  32
HETATM   32  C6  UNL     1      10.582 -16.644  12.279  1.00  0.00     0.130 C
BRANCH  32  33
HETATM   33  O2  UNL     1       9.616 -17.559  11.750  1.00  0.00    -0.395 OA
ATOM     34  H2  UNL     1       8.939 -16.977  11.426  1.00  0.00     0.210 HD
ENDBRANCH  32  33
BRANCH  32  35
HETATM   35  C7  UNL     1      10.002 -15.284  12.273  1.00  0.00     0.042 C
BRANCH  35  36
HETATM   36  C8  UNL     1       8.834 -15.071  11.362  1.00  0.00    -0.037 C
HETATM   37  C9  UNL     1       8.602 -13.547  11.404  1.00  0.00     0.014 C
HETATM   38  C10 UNL     1       7.496 -13.107  10.508  1.00  0.00    -0.013 C
HETATM   39  C11 UNL     1       6.190 -13.719  11.035  1.00  0.00     0.009 C
HETATM   40  C15 UNL     1       7.651 -13.558   9.089  1.00  0.00     0.009 C
HETATM   41  C12 UNL     1       6.389 -15.197  10.983  1.00  0.00    -0.013 C
HETATM   42  C13 UNL     1       6.658 -15.717   9.588  1.00  0.00     0.009 C
HETATM   43  C17 UNL     1       7.555 -15.682  11.843  1.00  0.00     0.014 C
HETATM   44  C14 UNL     1       7.917 -15.046   9.095  1.00  0.00    -0.013 C
HETATM   45  C16 UNL     1       9.127 -15.377   9.918  1.00  0.00     0.014 C
ENDBRANCH  35  36
ENDBRANCH  32  35
ENDBRANCH   4  32
TORSDOF 11
ENDMDL