MODEL 3
REMARK VINA RESULT: -8.130471310      1.175      3.209
REMARK  13 active torsions:
REMARK  status: ('A' for Active; 'I' for Inactive)
REMARK    1  A    between atoms: C2_2  and  C3_3
REMARK    2  A    between atoms: C3_3  and  C4_4
REMARK    3  A    between atoms: C3_3  and  C15_33
REMARK       I    between atoms: C4_4  and  N1_6
REMARK    4  A    between atoms: N1_6  and  N2_8
REMARK       I    between atoms: N2_8  and  C5_10
REMARK    5  A    between atoms: C5_10  and  C6_12
REMARK    6  A    between atoms: C7_13  and  C8_14
REMARK    7  A    between atoms: N3_16  and  O3_17
REMARK    8  A    between atoms: C9_19  and  O4_20
REMARK    9  A    between atoms: C9_19  and  C10_22
REMARK   10  A    between atoms: N4_25  and  C11_26
REMARK   11  A    between atoms: C11_26  and  O7_27
REMARK   12  A    between atoms: C11_26  and  C12_29
REMARK   13  A    between atoms: C19_37  and  C20_38
ROOT
HETATM    1  N2  UNL     1      10.810 -15.026  15.078  1.00  0.00    -0.265 N
ATOM      2  H2  UNL     1      10.451 -15.012  16.032  1.00  0.00     0.190 HD
HETATM    3  C5  UNL     1      12.147 -14.657  14.866  1.00  0.00     0.265 C
HETATM    4  O2  UNL     1      12.580 -14.679  13.683  1.00  0.00    -0.269 OA
ENDROOT
BRANCH   3   5
HETATM    5  C6  UNL     1      13.076 -14.250  15.911  1.00  0.00     0.234 C
HETATM    6  C7  UNL     1      14.460 -14.681  15.679  1.00  0.00     0.060 C
HETATM    7  N3  UNL     1      15.209 -13.667  15.648  1.00  0.00    -0.201 N
HETATM    8  C9  UNL     1      14.468 -12.424  15.851  1.00  0.00     0.336 C
HETATM    9  N4  UNL     1      13.140 -12.813  16.170  1.00  0.00    -0.283 N
BRANCH   6  10
HETATM   10  C8  UNL     1      14.817 -16.125  15.520  1.00  0.00     0.143 C
HETATM   11 BR1  UNL     1      15.602 -16.766  17.161  1.00  0.00    -0.090 Br
ENDBRANCH   6  10
BRANCH   7  12
HETATM   12  O3  UNL     1      16.580 -13.657  15.450  1.00  0.00    -0.283 OA
ATOM     13  H3  UNL     1      17.209 -13.082  15.870  1.00  0.00     0.245 HD
ENDBRANCH   7  12
BRANCH   8  14
HETATM   14  O4  UNL     1      15.115 -11.841  16.969  1.00  0.00    -0.344 OA
ATOM     15  H4  UNL     1      15.066 -10.910  16.786  1.00  0.00     0.215 HD
ENDBRANCH   8  14
BRANCH   8  16
HETATM   16  C10 UNL     1      14.651 -11.517  14.715  1.00  0.00     0.258 C
HETATM   17  O5  UNL     1      14.335 -10.307  14.666  1.00  0.00    -0.643 OA
HETATM   18  O6  UNL     1      15.235 -12.022  13.547  1.00  0.00    -0.643 OA
ENDBRANCH   8  16
BRANCH   9  19
HETATM   19  C11 UNL     1      12.006 -12.134  16.680  1.00  0.00     0.159 C
BRANCH  19  20
HETATM   20  O7  UNL     1      11.570 -11.143  15.955  1.00  0.00    -0.347 OA
ATOM     21  H7  UNL     1      10.706 -11.260  15.579  1.00  0.00     0.219 HD
ENDBRANCH  19  20
BRANCH  19  22
HETATM   22  C12 UNL     1      11.242 -12.368  17.899  1.00  0.00     0.160 C
HETATM   23  C13 UNL     1       9.785 -12.560  17.630  1.00  0.00     0.060 C
HETATM   24  C14 UNL     1      11.428 -11.329  18.988  1.00  0.00     0.060 C
HETATM   25  F1  UNL     1      11.691 -13.609  18.437  1.00  0.00    -0.235 F
ENDBRANCH  19  22
ENDBRANCH   9  19
ENDBRANCH   3   5
BRANCH   1  26
HETATM   26  N1  UNL     1       9.937 -15.414  14.042  1.00  0.00    -0.263 N
HETATM   27  C4  UNL     1       9.201 -14.523  13.233  1.00  0.00     0.267 C
HETATM   28  O1  UNL     1       9.421 -13.282  13.547  1.00  0.00    -0.266 OA
ATOM     29  H1  UNL     1       9.829 -16.414  13.865  1.00  0.00     0.190 HD
BRANCH  27  30
HETATM   30  C3  UNL     1       8.273 -14.864  12.142  1.00  0.00     0.021 C
BRANCH  30  31
HETATM   31  C2  UNL     1       7.240 -13.853  11.901  1.00  0.00     0.003 C
HETATM   32  C1  UNL     1       5.928 -13.990  12.038  1.00  0.00     0.012 C
ENDBRANCH  30  31
BRANCH  30  33
HETATM   33  C15 UNL     1       8.893 -15.498  10.943  1.00  0.00     0.010 C
HETATM   34  C16 UNL     1       8.404 -14.969   9.613  1.00  0.00     0.022 C
HETATM   35  C17 UNL     1      10.387 -15.021  10.976  1.00  0.00     0.017 C
HETATM   36  C18 UNL     1      11.134 -16.225  10.418  1.00  0.00     0.012 C
HETATM   37  C19 UNL     1      10.399 -17.323  11.220  1.00  0.00     0.037 C
HETATM   38  C23 UNL     1       8.993 -16.985  10.904  1.00  0.00     0.052 C
HETATM   39  C24 UNL     1       8.014 -17.740  11.764  1.00  0.00     0.034 C
HETATM   40 CL1  UNL     1       8.642 -17.463   9.206  1.00  0.00    -0.118 Cl
BRANCH  37  41
HETATM   41  C20 UNL     1      10.967 -18.599  10.878  1.00  0.00    -0.087 C
HETATM   42  C21 UNL     1      11.425 -19.105   9.775  1.00  0.00     0.014 C
HETATM   43  C22 UNL     1      11.046 -19.585  12.061  1.00  0.00     0.043 C
ENDBRANCH  37  41
ENDBRANCH  30  33
ENDBRANCH  27  30
ENDBRANCH   1  26
TORSDOF 13
ENDMDL