MODEL 2
REMARK VINA RESULT: -7.444952844      3.576      6.681
REMARK  12 active torsions:
REMARK  status: ('A' for Active; 'I' for Inactive)
REMARK    1  A    between atoms: C3_3  and  N1_4
REMARK    2  A    between atoms: N1_4  and  C4_5
REMARK    3  A    between atoms: C7_8  and  O1_9
REMARK    4  A    between atoms: C7_8  and  N2_11
REMARK    5  A    between atoms: C8_12  and  C9_13
REMARK    6  A    between atoms: C9_13  and  N3_14
REMARK    7  A    between atoms: N3_14  and  N4_16
REMARK    8  A    between atoms: N5_22  and  C14_23
REMARK    9  A    between atoms: C14_23  and  C16_25
REMARK   10  A    between atoms: C16_25  and  O2_26
REMARK   11  A    between atoms: C22_34  and  C23_35
REMARK   12  A    between atoms: C29_43  and  C30_44
ROOT
HETATM    1  C1  UNL     1      10.914 -20.485  18.472  1.00  0.00     0.013 C
HETATM    2  C2  UNL     1      11.693 -20.392  17.557  1.00  0.00    -0.089 C
HETATM    3  C3  UNL     1      12.619 -20.311  16.457  1.00  0.00     0.337 C
ENDROOT
BRANCH   3   4
HETATM    4  N1  UNL     1      13.026 -18.994  16.012  1.00  0.00    -0.014 N
HETATM    5  C6  UNL     1      12.523 -17.902  16.822  1.00  0.00     0.167 C
HETATM    6  C7  UNL     1      11.656 -16.861  16.351  1.00  0.00     0.174 C
HETATM    7  C24 UNL     1      13.395 -17.466  17.960  1.00  0.00     0.079 C
HETATM    8  C25 UNL     1      14.778 -17.955  18.081  1.00  0.00    -0.040 C
HETATM    9  C26 UNL     1      15.806 -16.841  17.788  1.00  0.00     0.015 C
HETATM   10  C27 UNL     1      15.147 -18.343  19.526  1.00  0.00     0.015 C
HETATM   11  C28 UNL     1      15.121 -19.103  17.209  1.00  0.00     0.052 C
HETATM   12  C29 UNL     1      14.437 -18.816  15.857  1.00  0.00     0.304 C
BRANCH   4  13
HETATM   13  C4  UNL     1      12.386 -18.896  14.693  1.00  0.00     0.241 C
HETATM   14  C5  UNL     1      11.843 -20.147  14.106  1.00  0.00     0.035 C
ENDBRANCH   4  13
BRANCH   6  15
HETATM   15  O1  UNL     1      10.414 -17.255  16.486  1.00  0.00    -0.344 OA
ATOM     16  H1  UNL     1       9.846 -16.494  16.450  1.00  0.00     0.219 HD
ENDBRANCH   6  15
BRANCH   6  17
HETATM   17  N2  UNL     1      11.648 -15.563  15.795  1.00  0.00    -0.317 N
HETATM   18  C8  UNL     1      12.389 -15.273  14.595  1.00  0.00     0.112 C
HETATM   19  C11 UNL     1      13.784 -14.697  14.848  1.00  0.00     0.024 C
HETATM   20  C12 UNL     1      14.879 -15.668  14.431  1.00  0.00     0.014 C
HETATM   21  C13 UNL     1      14.043 -13.430  14.091  1.00  0.00     0.132 C
HETATM   22  N5  UNL     1      14.432 -12.367  14.984  1.00  0.00    -0.345 N
HETATM   23  C17 UNL     1      13.576 -12.127  16.114  1.00  0.00     0.221 C
HETATM   24  O3  UNL     1      14.144 -11.755  17.174  1.00  0.00    -0.273 OA
HETATM   25  C18 UNL     1      12.102 -12.307  16.023  1.00  0.00     0.118 C
HETATM   26  C19 UNL     1      11.478 -13.271  16.916  1.00  0.00     0.010 C
HETATM   27  C20 UNL     1      10.210 -12.516  17.481  1.00  0.00     0.022 C
HETATM   28  C21 UNL     1      12.257 -13.398  18.210  1.00  0.00     0.022 C
HETATM   29  C22 UNL     1      10.861 -14.533  16.425  1.00  0.00     0.099 C
BRANCH  18  30
HETATM   30  C9  UNL     1      12.540 -16.292  13.520  1.00  0.00     0.138 C
BRANCH  30  31
HETATM   31  N3  UNL     1      11.523 -16.362  12.504  1.00  0.00    -0.240 NA
HETATM   32  C10 UNL     1      12.069 -17.245  11.437  1.00  0.00     0.135 C
BRANCH  31  33
HETATM   33  N4  UNL     1      11.478 -15.100  11.823  1.00  0.00    -0.364 NA
ATOM     34  H42 UNL     1      10.554 -14.764  12.092  1.00  0.00     0.171 HD
ATOM     35  H41 UNL     1      11.432 -15.278  10.820  1.00  0.00     0.171 HD
ENDBRANCH  31  33
ENDBRANCH  30  31
ENDBRANCH  18  30
BRANCH  22  36
HETATM   36  C14 UNL     1      15.613 -11.534  14.768  1.00  0.00     0.106 C
HETATM   37  C15 UNL     1      15.161 -10.220  14.204  1.00  0.00     0.034 C
BRANCH  36  38
HETATM   38  C16 UNL     1      16.652 -12.125  13.892  1.00  0.00     0.189 C
BRANCH  38  39
HETATM   39  O2  UNL     1      16.577 -11.486  12.656  1.00  0.00    -0.399 OA
ATOM     40  H2  UNL     1      17.390 -11.013  12.526  1.00  0.00     0.209 HD
ENDBRANCH  38  39
ENDBRANCH  36  38
ENDBRANCH  22  36
BRANCH  29  41
HETATM   41  C23 UNL     1       9.585 -14.225  15.680  1.00  0.00     0.223 C
HETATM   42  O4  UNL     1       8.481 -14.748  15.933  1.00  0.00    -0.643 OA
HETATM   43  O5  UNL     1       9.521 -13.311  14.634  1.00  0.00    -0.643 OA
ENDBRANCH  29  41
ENDBRANCH   6  17
BRANCH  12  44
HETATM   44  C30 UNL     1      15.278 -19.482  14.886  1.00  0.00     0.416 C
HETATM   45  F1  UNL     1      15.409 -20.854  14.936  1.00  0.00    -0.169 F
HETATM   46  F2  UNL     1      16.592 -19.049  15.144  1.00  0.00    -0.169 F
HETATM   47  F3  UNL     1      15.173 -19.044  13.568  1.00  0.00    -0.169 F
ENDBRANCH  12  44
ENDBRANCH   3   4
TORSDOF 12
ENDMDL