MODEL 1
REMARK VINA RESULT: -7.390513262      0.000      0.000
REMARK  12 active torsions:
REMARK  status: ('A' for Active; 'I' for Inactive)
REMARK    1  A    between atoms: C1_2  and  C2_4
REMARK    2  A    between atoms: C2_4  and  C3_5
REMARK    3  A    between atoms: N2_14  and  O2_15
REMARK    4  A    between atoms: N4_19  and  C9_20
REMARK    5  A    between atoms: C9_20  and  C10_21
REMARK    6  A    between atoms: C10_21  and  C11_22
REMARK    7  A    between atoms: C11_22  and  C12_23
REMARK    8  A    between atoms: C12_23  and  C13_24
REMARK    9  A    between atoms: C13_24  and  N5_25
REMARK   10  A    between atoms: C13_24  and  C14_29
REMARK   11  A    between atoms: C13_24  and  C19_34
REMARK   12  A    between atoms: C15_30  and  C16_31
ROOT
HETATM    1  C3  UNL     1       8.859 -14.717  12.207  1.00  0.00     0.002 A
HETATM    2  C4  UNL     1       9.462 -15.562  11.318  1.00  0.00     0.038 A
HETATM    3 BR1  UNL     1       8.968 -15.575   9.483  1.00  0.00    -0.049 Br
HETATM    4  C5  UNL     1      10.425 -16.459  11.725  1.00  0.00     0.048 A
HETATM    5 BR2  UNL     1      11.285 -17.648  10.488  1.00  0.00    -0.048 Br
HETATM    6  C6  UNL     1      10.794 -16.515  13.052  1.00  0.00     0.060 A
HETATM    7 BR3  UNL     1      12.131 -17.759  13.576  1.00  0.00    -0.047 Br
HETATM    8  C7  UNL     1      10.227 -15.700  13.984  1.00  0.00     0.102 A
HETATM    9  C8  UNL     1       9.247 -14.789  13.565  1.00  0.00     0.120 A
HETATM   10  N2  UNL     1       8.877 -14.147  14.677  1.00  0.00    -0.146 N
HETATM   11  N3  UNL     1       9.564 -14.619  15.681  1.00  0.00    -0.213 N
ATOM     12  H3  UNL     1       9.465 -14.290  16.641  1.00  0.00     0.211 HD
HETATM   13  N4  UNL     1      10.404 -15.572  15.311  1.00  0.00    -0.272 N
ENDROOT
BRANCH  13  14
HETATM   14  C9  UNL     1      11.268 -16.312  16.195  1.00  0.00     0.151 C
BRANCH  14  15
HETATM   15  C10 UNL     1      12.257 -15.391  16.850  1.00  0.00     0.022 C
BRANCH  15  16
HETATM   16  C11 UNL     1      13.395 -14.956  16.026  1.00  0.00     0.005 C
BRANCH  16  17
HETATM   17  C12 UNL     1      13.894 -13.556  16.224  1.00  0.00     0.062 C
BRANCH  17  18
HETATM   18  C13 UNL     1      13.472 -12.761  14.983  1.00  0.00     0.263 C
BRANCH  18  19
HETATM   19  N5  UNL     1      13.134 -13.678  13.903  1.00  0.00    -0.051 N
ATOM     20  H53 UNL     1      12.640 -14.504  14.241  1.00  0.00     0.276 HD
ATOM     21  H52 UNL     1      12.401 -13.306  13.298  1.00  0.00     0.276 HD
ATOM     22  H51 UNL     1      13.976 -13.921  13.381  1.00  0.00     0.276 HD
ENDBRANCH  18  19
BRANCH  18  23
HETATM   23  C14 UNL     1      14.507 -11.840  14.579  1.00  0.00    -0.058 C
HETATM   24  C15 UNL     1      15.384 -11.078  14.210  1.00  0.00    -0.099 C
BRANCH  24  25
HETATM   25  C16 UNL     1      16.434 -10.176  13.736  1.00  0.00     0.065 A
HETATM   26  C17 UNL     1      17.054 -10.414  12.435  1.00  0.00     0.018 A
HETATM   27  C18 UNL     1      16.083  -9.288  12.501  1.00  0.00     0.018 A
ENDBRANCH  24  25
ENDBRANCH  18  23
BRANCH  18  28
HETATM   28  C19 UNL     1      12.205 -12.044  15.397  1.00  0.00     0.279 C
HETATM   29  N6  UNL     1      12.245 -11.387  16.657  1.00  0.00    -0.059 NA
HETATM   30  O3  UNL     1      11.191 -12.049  14.639  1.00  0.00    -0.273 OA
ENDBRANCH  18  28
ENDBRANCH  17  18
ENDBRANCH  16  17
ENDBRANCH  15  16
ENDBRANCH  14  15
ENDBRANCH  13  14
BRANCH  10  31
HETATM   31  O2  UNL     1       7.916 -13.151  14.773  1.00  0.00    -0.266 OA
ATOM     32  H2  UNL     1       8.075 -12.227  14.927  1.00  0.00     0.247 HD
ENDBRANCH  10  31
BRANCH   1  33
HETATM   33  C2  UNL     1       7.830 -13.728  11.928  1.00  0.00     0.142 C
BRANCH  33  34
HETATM   34  C1  UNL     1       6.449 -14.116  11.775  1.00  0.00     0.235 C
HETATM   35  N1  UNL     1       5.992 -15.347  12.303  1.00  0.00    -0.062 NA
HETATM   36  O1  UNL     1       5.631 -13.378  11.179  1.00  0.00    -0.277 OA
ENDBRANCH  33  34
ENDBRANCH   1  33
TORSDOF 12
ENDMDL