MODEL 2
REMARK VINA RESULT: -6.952540826      0.951      1.183
REMARK  10 active torsions:
REMARK  status: ('A' for Active; 'I' for Inactive)
REMARK    1  A    between atoms: C2_2  and  O1_5
REMARK    2  A    between atoms: O1_5  and  C5_6
REMARK       I    between atoms: C5_6  and  N1_8
REMARK    3  A    between atoms: N1_8  and  C6_10
REMARK    4  A    between atoms: C9_13  and  C10_14
REMARK    5  A    between atoms: C10_14  and  N2_15
REMARK    6  A    between atoms: N2_15  and  C11_17
REMARK    7  A    between atoms: C12_20  and  N4_21
REMARK    8  A    between atoms: C13_26  and  C14_27
REMARK    9  A    between atoms: C18_32  and  C19_33
REMARK   10  A    between atoms: C19_33  and  N6_34
ROOT
HETATM    1  C11 UNL     1      13.453  71.440  30.520  1.00  0.00     0.131 A
HETATM    2  N3  UNL     1      14.128  71.829  31.573  1.00  0.00    -0.176 N
ATOM      3  H3  UNL     1      14.449  72.793  31.663  1.00  0.00     0.186 HD
HETATM    4  C12 UNL     1      14.393  70.898  32.558  1.00  0.00     0.678 A
HETATM    5  N5  UNL     1      13.937  69.666  32.360  1.00  0.00    -0.188 N
ATOM      6  H5  UNL     1      14.137  68.986  33.093  1.00  0.00     0.184 HD
HETATM    7  C13 UNL     1      13.230  69.207  31.280  1.00  0.00     0.098 A
HETATM    8  C18 UNL     1      12.974  70.119  30.325  1.00  0.00     0.053 A
ENDROOT
BRANCH   1   9
HETATM    9  N2  UNL     1      13.181  72.338  29.605  1.00  0.00    -0.375 N
ATOM     10  H2  UNL     1      12.209  72.541  29.374  1.00  0.00     0.161 HD
BRANCH   9  11
HETATM   11  C10 UNL     1      14.240  73.044  28.918  1.00  0.00     0.126 C
BRANCH  11  12
HETATM   12  C9  UNL     1      13.781  73.499  27.565  1.00  0.00     0.003 C
HETATM   13  C8  UNL     1      12.991  74.779  27.696  1.00  0.00     0.008 C
HETATM   14  C7  UNL     1      12.860  75.431  26.355  1.00  0.00     0.026 C
HETATM   15  C6  UNL     1      12.384  74.439  25.324  1.00  0.00     0.086 C
HETATM   16  C21 UNL     1      12.050  73.080  25.823  1.00  0.00     0.026 C
HETATM   17  C20 UNL     1      13.048  72.468  26.759  1.00  0.00     0.008 C
BRANCH  15  18
HETATM   18  N1  UNL     1      11.178  75.044  24.702  1.00  0.00    -0.332 N
HETATM   19  C5  UNL     1      11.087  74.874  23.270  1.00  0.00     0.361 C
HETATM   20  O2  UNL     1      11.954  74.277  22.597  1.00  0.00    -0.238 OA
ATOM     21  H1  UNL     1      10.471  75.541  25.244  1.00  0.00     0.165 HD
BRANCH  19  22
HETATM   22  O1  UNL     1       9.992  75.392  22.595  1.00  0.00    -0.294 OA
BRANCH  22  23
HETATM   23  C2  UNL     1       8.770  74.736  22.516  1.00  0.00     0.061 C
HETATM   24  C1  UNL     1       9.047  73.261  22.240  1.00  0.00     0.046 C
HETATM   25  C3  UNL     1       7.984  75.317  21.360  1.00  0.00     0.046 C
HETATM   26  C4  UNL     1       7.958  74.756  23.795  1.00  0.00     0.046 C
ENDBRANCH  22  23
ENDBRANCH  19  22
ENDBRANCH  15  18
ENDBRANCH  11  12
ENDBRANCH   9  11
ENDBRANCH   1   9
BRANCH   8  27
HETATM   27  C19 UNL     1      12.262  69.962  29.073  1.00  0.00     0.098 C
BRANCH  27  28
HETATM   28  N6  UNL     1      10.895  69.999  28.915  1.00  0.00    -0.407 N
ATOM     29  H62 UNL     1      10.347  69.584  29.668  1.00  0.00     0.155 HD
ATOM     30  H61 UNL     1      10.398  70.400  28.120  1.00  0.00     0.155 HD
ENDBRANCH  27  28
ENDBRANCH   8  27
BRANCH   4  31
HETATM   31  N4  UNL     1      15.061  71.250  33.536  1.00  0.00    -0.234 N
ATOM     32  H42 UNL     1      15.729  70.653  34.025  1.00  0.00     0.174 HD
ATOM     33  H41 UNL     1      14.970  72.210  33.868  1.00  0.00     0.174 HD
ENDBRANCH   4  31
BRANCH   7  34
HETATM   34  C14 UNL     1      12.811  67.805  31.268  1.00  0.00     0.103 A
HETATM   35  C15 UNL     1      11.517  67.437  31.632  1.00  0.00     0.041 A
HETATM   36  C16 UNL     1      11.409  66.056  31.519  1.00  0.00     0.027 A
HETATM   37  C17 UNL     1      12.665  65.639  31.088  1.00  0.00     0.142 A
HETATM   38  O3  UNL     1      13.406  66.699  30.972  1.00  0.00    -0.320 OA
ENDBRANCH   7  34
TORSDOF 10
ENDMDL