MODEL 4
REMARK VINA RESULT: -6.874666507      4.680      6.939
REMARK  10 active torsions:
REMARK  status: ('A' for Active; 'I' for Inactive)
REMARK    1  A    between atoms: C2_2  and  O1_3
REMARK    2  A    between atoms: C2_2  and  C3_5
REMARK    3  A    between atoms: C3_5  and  C4_6
REMARK    4  A    between atoms: C4_6  and  C6_8
REMARK    5  A    between atoms: C6_8  and  C7_9
REMARK    6  A    between atoms: C7_9  and  O2_10
REMARK    7  A    between atoms: C7_9  and  C8_12
REMARK    8  A    between atoms: C11_15  and  O3_16
REMARK    9  A    between atoms: C15_21  and  O4_22
REMARK   10  A    between atoms: C24_33  and  O5_34
ROOT
HETATM    1  C8  UNL     1       2.348  71.780  28.548  1.00  0.00     0.003 C
HETATM    2  C9  UNL     1       2.940  71.023  29.436  1.00  0.00    -0.058 C
HETATM    3  C10 UNL     1       3.253  71.528  30.822  1.00  0.00     0.068 C
HETATM    4  C11 UNL     1       4.691  71.123  31.233  1.00  0.00     0.131 C
HETATM    5  C12 UNL     1       5.010  69.691  31.059  1.00  0.00    -0.009 C
HETATM    6  C13 UNL     1       4.316  68.926  32.159  1.00  0.00     0.018 C
HETATM    7  C14 UNL     1       6.492  69.513  31.306  1.00  0.00     0.065 C
HETATM    8  C15 UNL     1       7.284  68.896  30.225  1.00  0.00     0.147 C
HETATM    9  C16 UNL     1       7.947  69.949  29.409  1.00  0.00     0.097 C
HETATM   10  N1  UNL     1       8.445  70.779  28.768  1.00  0.00    -0.194 NA
HETATM   11  C17 UNL     1       6.617  67.904  29.353  1.00  0.00     0.054 C
HETATM   12  C18 UNL     1       5.121  67.885  29.437  1.00  0.00     0.010 C
HETATM   13  C19 UNL     1       4.670  69.288  29.677  1.00  0.00     0.009 C
HETATM   14  C20 UNL     1       3.283  69.556  29.235  1.00  0.00    -0.015 C
HETATM   15  C21 UNL     1       2.256  68.702  29.975  1.00  0.00     0.020 C
HETATM   16  C22 UNL     1       3.171  69.131  27.799  1.00  0.00     0.017 C
HETATM   17  C23 UNL     1       1.900  69.776  27.190  1.00  0.00     0.037 C
HETATM   18  C24 UNL     1       2.247  71.207  27.106  1.00  0.00     0.154 C
ENDROOT
BRANCH   8  19
HETATM   19  O4  UNL     1       8.381  68.212  30.817  1.00  0.00    -0.375 OA
ATOM     20  H4  UNL     1       8.065  67.380  31.148  1.00  0.00     0.211 HD
ENDBRANCH   8  19
BRANCH   4  21
HETATM   21  O3  UNL     1       4.806  71.554  32.563  1.00  0.00    -0.394 OA
ATOM     22  H3  UNL     1       4.785  72.502  32.506  1.00  0.00     0.210 HD
ENDBRANCH   4  21
BRANCH   1  23
HETATM   23  C7  UNL     1       1.853  73.150  28.595  1.00  0.00     0.052 C
BRANCH  23  24
HETATM   24  C6  UNL     1       2.482  74.264  29.257  1.00  0.00     0.069 C
BRANCH  24  25
HETATM   25  C4  UNL     1       3.436  75.076  28.349  1.00  0.00    -0.010 C
HETATM   26  C5  UNL     1       4.661  74.379  27.971  1.00  0.00     0.010 C
BRANCH  25  27
HETATM   27  C3  UNL     1       3.677  76.415  28.962  1.00  0.00     0.035 C
BRANCH  27  28
HETATM   28  C2  UNL     1       4.649  77.323  28.324  1.00  0.00     0.114 C
HETATM   29  C1  UNL     1       3.951  78.714  28.202  1.00  0.00     0.039 C
BRANCH  28  30
HETATM   30  O1  UNL     1       5.792  77.624  29.058  1.00  0.00    -0.396 OA
ATOM     31  H1  UNL     1       5.547  77.358  29.936  1.00  0.00     0.210 HD
ENDBRANCH  28  30
ENDBRANCH  27  28
ENDBRANCH  25  27
ENDBRANCH  24  25
ENDBRANCH  23  24
BRANCH  23  32
HETATM   32  O2  UNL     1       1.284  73.520  27.325  1.00  0.00    -0.364 OA
ATOM     33  H2  UNL     1       0.343  73.396  27.301  1.00  0.00     0.217 HD
ENDBRANCH  23  32
ENDBRANCH   1  23
BRANCH  18  34
HETATM   34  O5  UNL     1       3.489  71.378  26.483  1.00  0.00    -0.391 OA
ATOM     35  H5  UNL     1       3.799  72.254  26.682  1.00  0.00     0.210 HD
ENDBRANCH  18  34
TORSDOF 10
ENDMDL