MODEL 5
REMARK VINA RESULT: -6.522425795      3.796      9.221
REMARK  7 active torsions:
REMARK  status: ('A' for Active; 'I' for Inactive)
REMARK    1  A    between atoms: C2_2  and  C4_4
REMARK    2  A    between atoms: C6_6  and  C7_7
REMARK    3  A    between atoms: C7_7  and  N1_8
REMARK    4  A    between atoms: C10_11  and  C11_12
REMARK    5  A    between atoms: C10_11  and  N2_15
REMARK    6  A    between atoms: C19_23  and  N4_24
REMARK    7  A    between atoms: C20_29  and  N6_30
ROOT
HETATM    1  N1  UNL     1       2.385  73.942  28.213  1.00  0.00    -0.368 N
HETATM    2  C8  UNL     1       3.726  73.880  28.687  1.00  0.00     0.130 C
HETATM    3  C9  UNL     1       4.401  72.584  28.452  1.00  0.00     0.052 C
HETATM    4  C10 UNL     1       3.779  71.348  29.112  1.00  0.00     0.043 C
HETATM    5  C21 UNL     1       2.342  71.510  28.724  1.00  0.00     0.076 C
HETATM    6  C22 UNL     1       2.016  72.659  27.794  1.00  0.00     0.066 C
ENDROOT
BRANCH   4   7
HETATM    7  C11 UNL     1       4.133  71.356  30.526  1.00  0.00     0.006 C
HETATM    8  C12 UNL     1       3.265  72.247  31.429  1.00  0.00     0.012 C
HETATM    9  C13 UNL     1       4.265  70.069  31.251  1.00  0.00     0.012 C
ENDBRANCH   4   7
BRANCH   4  10
HETATM   10  N2  UNL     1       4.445  70.244  28.407  1.00  0.00    -0.356 N
HETATM   11  C14 UNL     1       3.689  69.293  27.601  1.00  0.00     0.125 C
HETATM   12  C15 UNL     1       4.556  68.470  26.699  1.00  0.00     0.025 C
HETATM   13  C16 UNL     1       5.531  67.720  27.638  1.00  0.00     0.048 C
HETATM   14  C17 UNL     1       6.431  68.823  28.106  1.00  0.00     0.030 A
HETATM   15  C18 UNL     1       5.849  70.046  28.452  1.00  0.00     0.130 A
HETATM   16  C20 UNL     1       7.782  68.635  28.158  1.00  0.00     0.124 A
HETATM   17  N3  UNL     1       6.672  71.007  28.827  1.00  0.00    -0.176 N
HETATM   18  C19 UNL     1       8.013  70.844  28.884  1.00  0.00     0.679 A
ATOM     19  H3  UNL     1       6.280  71.912  29.086  1.00  0.00     0.186 HD
HETATM   20  N5  UNL     1       8.591  69.663  28.554  1.00  0.00    -0.177 N
ATOM     21  H5  UNL     1       9.602  69.545  28.599  1.00  0.00     0.185 HD
BRANCH  18  22
HETATM   22  N4  UNL     1       8.777  71.812  29.256  1.00  0.00    -0.234 N
ATOM     23  H42 UNL     1       9.548  72.080  28.645  1.00  0.00     0.174 HD
ATOM     24  H41 UNL     1       8.612  72.294  30.140  1.00  0.00     0.174 HD
ENDBRANCH  18  22
BRANCH  16  25
HETATM   25  N6  UNL     1       8.263  67.484  27.828  1.00  0.00    -0.385 N
ATOM     26  H62 UNL     1       9.268  67.325  27.751  1.00  0.00     0.157 HD
ATOM     27  H61 UNL     1       7.617  66.718  27.639  1.00  0.00     0.157 HD
ENDBRANCH  16  25
ENDBRANCH   4  10
BRANCH   1  28
HETATM   28  C7  UNL     1       1.472  74.743  28.922  1.00  0.00     0.121 C
BRANCH  28  29
HETATM   29  C6  UNL     1       1.477  76.103  28.297  1.00  0.00     0.072 A
HETATM   30  C5  UNL     1       2.534  76.978  28.444  1.00  0.00     0.068 A
HETATM   31  C4  UNL     1       2.196  78.110  27.746  1.00  0.00     0.082 A
HETATM   32  O1  UNL     1       0.999  77.905  27.218  1.00  0.00    -0.242 OA
HETATM   33  N7  UNL     1       0.571  76.711  27.545  1.00  0.00    -0.260 N
ATOM     34  H7  UNL     1      -0.324  76.310  27.263  1.00  0.00     0.195 HD
BRANCH  31  35
HETATM   35  C2  UNL     1       3.030  79.331  27.618  1.00  0.00     0.037 C
HETATM   36  C1  UNL     1       2.319  80.458  28.345  1.00  0.00     0.016 C
HETATM   37  C3  UNL     1       4.361  79.113  28.309  1.00  0.00     0.016 C
ENDBRANCH  31  35
ENDBRANCH  28  29
ENDBRANCH   1  28
TORSDOF 7
ENDMDL