MODEL 1
REMARK VINA RESULT: -8.402962765      0.000      0.000
REMARK  9 active torsions:
REMARK  status: ('A' for Active; 'I' for Inactive)
REMARK    1  A    between atoms: C3_4  and  O2_5
REMARK    2  A    between atoms: O2_5  and  C4_6
REMARK    3  A    between atoms: C10_12  and  C11_13
REMARK    4  A    between atoms: C11_13  and  C12_14
REMARK    5  A    between atoms: C14_16  and  C15_17
REMARK    6  A    between atoms: C18_20  and  O3_21
REMARK    7  A    between atoms: C19_23  and  O4_24
REMARK    8  A    between atoms: C21_27  and  O5_28
REMARK    9  A    between atoms: C23_33  and  O6_34
ROOT
HETATM    1  C12 UNL     1       6.380  73.856  26.941  1.00  0.00     0.016 A
HETATM    2  C13 UNL     1       6.003  75.077  27.369  1.00  0.00     0.041 A
HETATM    3  C14 UNL     1       4.849  75.015  28.164  1.00  0.00     0.019 A
HETATM    4  C21 UNL     1       4.565  73.630  28.177  1.00  0.00     0.150 A
HETATM    5  N1  UNL     1       5.443  72.950  27.474  1.00  0.00    -0.340 N
ATOM      6  H1  UNL     1       5.445  71.940  27.337  1.00  0.00     0.168 HD
ENDROOT
BRANCH   1   7
HETATM    7  C11 UNL     1       7.420  73.350  26.008  1.00  0.00     0.096 C
BRANCH   7   8
HETATM    8  C10 UNL     1       7.551  73.998  24.699  1.00  0.00    -0.021 C
HETATM    9  C3  UNL     1       8.780  74.743  24.438  1.00  0.00     0.291 C
HETATM   10  O1  UNL     1       8.546  75.711  23.392  1.00  0.00    -0.350 OA
HETATM   11  C2  UNL     1       8.109  74.939  22.305  1.00  0.00     0.153 C
HETATM   12  C1  UNL     1       8.414  75.586  20.977  1.00  0.00     0.042 C
HETATM   13  C23 UNL     1       6.659  74.624  22.526  1.00  0.00     0.170 C
HETATM   14  C22 UNL     1       6.549  73.916  23.849  1.00  0.00     0.015 C
BRANCH   9  15
HETATM   15  O2  UNL     1       9.309  75.320  25.546  1.00  0.00    -0.352 OA
BRANCH  15  16
HETATM   16  C4  UNL     1      10.618  75.003  25.864  1.00  0.00     0.125 C
HETATM   17  C5  UNL     1      10.883  75.041  27.374  1.00  0.00     0.032 C
HETATM   18  C6  UNL     1      12.257  74.430  27.607  1.00  0.00     0.002 C
HETATM   19  C7  UNL     1      13.302  75.129  26.756  1.00  0.00     0.000 C
HETATM   20  C8  UNL     1      12.701  76.388  26.163  1.00  0.00     0.002 C
HETATM   21  C9  UNL     1      11.497  76.044  25.266  1.00  0.00     0.032 C
ENDBRANCH  15  16
ENDBRANCH   9  15
BRANCH  13  22
HETATM   22  O6  UNL     1       5.947  75.810  22.662  1.00  0.00    -0.389 OA
ATOM     23  H6  UNL     1       5.557  76.039  21.828  1.00  0.00     0.210 HD
ENDBRANCH  13  22
ENDBRANCH   7   8
ENDBRANCH   1   7
BRANCH   3  24
HETATM   24  C15 UNL     1       4.000  76.102  28.640  1.00  0.00    -0.063 C
HETATM   25  C16 UNL     1       2.523  75.974  28.500  1.00  0.00     0.038 C
HETATM   26  C17 UNL     1       1.858  77.333  28.224  1.00  0.00     0.039 C
HETATM   27  C18 UNL     1       2.658  78.256  27.373  1.00  0.00     0.147 C
HETATM   28  C19 UNL     1       4.062  78.534  27.871  1.00  0.00     0.151 C
HETATM   29  C20 UNL     1       4.579  77.471  28.755  1.00  0.00     0.069 C
BRANCH  27  30
HETATM   30  O3  UNL     1       1.948  79.460  27.206  1.00  0.00    -0.393 OA
ATOM     31  H3  UNL     1       2.500  80.185  27.472  1.00  0.00     0.210 HD
ENDBRANCH  27  30
BRANCH  28  32
HETATM   32  O4  UNL     1       3.997  79.740  28.650  1.00  0.00    -0.393 OA
ATOM     33  H4  UNL     1       4.052  79.482  29.562  1.00  0.00     0.210 HD
ENDBRANCH  28  32
ENDBRANCH   3  24
BRANCH   4  34
HETATM   34  O5  UNL     1       3.497  73.066  28.858  1.00  0.00    -0.345 OA
ATOM     35  H5  UNL     1       3.584  72.577  29.667  1.00  0.00     0.219 HD
ENDBRANCH   4  34
TORSDOF 9
ENDMDL