MODEL 3
REMARK VINA RESULT: -7.961455284      5.313      6.609
REMARK  8 active torsions:
REMARK  status: ('A' for Active; 'I' for Inactive)
REMARK    1  A    between atoms: C2_2  and  C16_28
REMARK    2  A    between atoms: N1_3  and  N2_5
REMARK    3  A    between atoms: N2_5  and  C3_7
REMARK    4  A    between atoms: C3_7  and  N3_9
REMARK    5  A    between atoms: N3_9  and  N4_11
REMARK    6  A    between atoms: C4_13  and  C5_14
REMARK    7  A    between atoms: C6_16  and  C7_17
REMARK    8  A    between atoms: C15_25  and  O2_26
ROOT
HETATM    1  N3  UNL     1       6.107  70.907  28.589  1.00  0.00    -0.275 N
ATOM      2  H3  UNL     1       5.172  70.512  28.485  1.00  0.00     0.189 HD
ENDROOT
BRANCH   1   3
HETATM    3  C3  UNL     1       6.788  70.620  29.780  1.00  0.00     0.205 C
HETATM    4  S1  UNL     1       5.828  70.655  31.167  1.00  0.00    -0.038 SA
BRANCH   3   5
HETATM    5  N2  UNL     1       8.126  70.354  29.945  1.00  0.00    -0.275 N
ATOM      6  H2  UNL     1       8.699  71.190  29.840  1.00  0.00     0.189 HD
BRANCH   5   7
HETATM    7  N1  UNL     1       8.889  69.232  30.218  1.00  0.00    -0.301 N
HETATM    8  C2  UNL     1      10.081  69.115  29.718  1.00  0.00     0.050 C
HETATM    9  C1  UNL     1      10.579  70.235  28.866  1.00  0.00     0.072 C
ATOM     10  H1  UNL     1       8.513  68.495  30.813  1.00  0.00     0.186 HD
BRANCH   8  11
HETATM   11  C16 UNL     1      10.846  67.914  29.932  1.00  0.00     0.082 A
HETATM   12  N5  UNL     1      10.575  66.713  29.299  1.00  0.00    -0.305 N
HETATM   13  C17 UNL     1      11.456  65.790  29.755  1.00  0.00     0.325 A
ATOM     14  H5  UNL     1       9.839  66.551  28.610  1.00  0.00     0.171 HD
HETATM   15  O3  UNL     1      11.483  64.584  29.374  1.00  0.00    -0.247 OA
HETATM   16  N6  UNL     1      12.268  66.342  30.638  1.00  0.00    -0.310 N
HETATM   17  C18 UNL     1      11.891  67.663  30.749  1.00  0.00     0.038 A
ATOM     18  H6  UNL     1      13.026  65.880  31.141  1.00  0.00     0.170 HD
HETATM   19  C19 UNL     1      12.611  68.606  31.644  1.00  0.00     0.071 C
ENDBRANCH   8  11
ENDBRANCH   5   7
ENDBRANCH   3   5
ENDBRANCH   1   3
BRANCH   1  20
HETATM   20  N4  UNL     1       6.575  71.661  27.559  1.00  0.00    -0.307 N
HETATM   21  C4  UNL     1       6.223  72.774  27.136  1.00  0.00     0.147 C
ATOM     22  H4  UNL     1       7.350  71.240  27.046  1.00  0.00     0.186 HD
BRANCH  21  23
HETATM   23  C5  UNL     1       5.131  73.556  27.730  1.00  0.00     0.126 A
HETATM   24  O1  UNL     1       5.172  74.829  27.912  1.00  0.00    -0.306 OA
HETATM   25  C6  UNL     1       4.054  75.308  28.469  1.00  0.00     0.087 A
HETATM   26  C13 UNL     1       3.216  74.244  28.672  1.00  0.00     0.008 A
HETATM   27  C14 UNL     1       1.916  74.172  29.353  1.00  0.00     0.054 C
HETATM   28  C15 UNL     1       3.903  73.139  28.202  1.00  0.00     0.109 A
BRANCH  25  29
HETATM   29  C7  UNL     1       3.780  76.717  28.783  1.00  0.00    -0.045 C
HETATM   30  C8  UNL     1       2.316  77.058  28.982  1.00  0.00     0.037 C
HETATM   31  C9  UNL     1       1.815  77.980  27.876  1.00  0.00     0.004 C
HETATM   32  C10 UNL     1       2.860  78.923  27.341  1.00  0.00     0.001 C
HETATM   33  C11 UNL     1       3.972  79.122  28.347  1.00  0.00     0.004 C
HETATM   34  C12 UNL     1       4.707  77.757  28.355  1.00  0.00     0.037 C
ENDBRANCH  25  29
BRANCH  28  35
HETATM   35  O2  UNL     1       3.422  71.851  28.209  1.00  0.00    -0.357 OA
ATOM     36  H2  UNL     1       3.876  71.079  28.527  1.00  0.00     0.217 HD
ENDBRANCH  28  35
ENDBRANCH  21  23
ENDBRANCH   1  20
TORSDOF 8
ENDMDL