MODEL 4
REMARK VINA RESULT: -6.750032177      4.623      7.133
REMARK  10 active torsions:
REMARK  status: ('A' for Active; 'I' for Inactive)
REMARK    1  A    between atoms: C2_2  and  C3_3
REMARK    2  A    between atoms: C3_3  and  C4_4
REMARK    3  A    between atoms: C4_4  and  C5_5
REMARK    4  A    between atoms: C5_5  and  C6_6
REMARK    5  A    between atoms: C6_6  and  O1_10
REMARK    6  A    between atoms: O1_10  and  C7_11
REMARK    7  A    between atoms: C11_15  and  O2_16
REMARK    8  A    between atoms: C12_18  and  O3_19
REMARK    9  A    between atoms: C20_28  and  O4_29
REMARK   10  A    between atoms: C21_31  and  O5_32
ROOT
HETATM    1  C7  UNL     1       6.481  74.468  26.675  1.00  0.00     0.130 C
HETATM    2  C8  UNL     1       7.808  73.949  27.202  1.00  0.00     0.033 C
HETATM    3  C9  UNL     1       8.021  72.496  26.920  1.00  0.00     0.010 C
HETATM    4  C10 UNL     1       9.139  72.180  26.007  1.00  0.00     0.022 C
HETATM    5  C11 UNL     1      10.421  72.237  26.855  1.00  0.00     0.151 C
HETATM    6  C12 UNL     1      11.442  71.407  26.112  1.00  0.00     0.147 C
HETATM    7  C13 UNL     1      11.714  72.080  24.822  1.00  0.00     0.035 C
HETATM    8  C14 UNL     1      10.524  72.494  24.034  1.00  0.00     0.008 C
HETATM    9  C15 UNL     1       9.358  73.012  24.826  1.00  0.00     0.001 C
HETATM   10  C16 UNL     1       8.190  73.216  23.904  1.00  0.00    -0.034 C
HETATM   11  C17 UNL     1       7.405  71.947  23.644  1.00  0.00     0.016 C
HETATM   12  C18 UNL     1       8.684  73.630  22.505  1.00  0.00     0.012 C
HETATM   13  C19 UNL     1       9.073  75.073  22.480  1.00  0.00     0.035 C
HETATM   14  C20 UNL     1       7.796  75.880  22.430  1.00  0.00     0.147 C
HETATM   15  C21 UNL     1       6.776  75.236  23.293  1.00  0.00     0.151 C
HETATM   16  C22 UNL     1       7.358  74.352  24.398  1.00  0.00     0.028 C
HETATM   17  C23 UNL     1       6.208  73.964  25.272  1.00  0.00     0.040 C
ENDROOT
BRANCH   1  18
HETATM   18  O1  UNL     1       5.431  74.200  27.580  1.00  0.00    -0.334 OA
BRANCH  18  19
HETATM   19  C6  UNL     1       4.608  75.207  28.058  1.00  0.00     0.111 C
HETATM   20  N1  UNL     1       3.401  74.871  28.358  1.00  0.00    -0.384 N
ATOM     21  H12 UNL     1       2.795  75.613  28.709  1.00  0.00     0.157 HD
ATOM     22  H11 UNL     1       3.086  73.908  28.242  1.00  0.00     0.157 HD
BRANCH  19  23
HETATM   23  C5  UNL     1       5.073  76.626  28.229  1.00  0.00     0.083 C
BRANCH  23  24
HETATM   24  C4  UNL     1       3.876  77.449  28.628  1.00  0.00     0.008 C
BRANCH  24  25
HETATM   25  C3  UNL     1       3.984  78.895  28.220  1.00  0.00     0.000 C
BRANCH  25  26
HETATM   26  C2  UNL     1       2.672  79.420  27.738  1.00  0.00    -0.005 C
HETATM   27  C1  UNL     1       1.730  78.228  27.635  1.00  0.00     0.005 C
ENDBRANCH  25  26
ENDBRANCH  24  25
ENDBRANCH  23  24
ENDBRANCH  19  23
ENDBRANCH  18  19
ENDBRANCH   1  18
BRANCH  15  28
HETATM   28  O5  UNL     1       5.736  74.612  22.617  1.00  0.00    -0.393 OA
ATOM     29  H5  UNL     1       5.399  73.826  23.029  1.00  0.00     0.210 HD
ENDBRANCH  15  28
BRANCH   5  30
HETATM   30  O2  UNL     1      10.246  71.642  28.097  1.00  0.00    -0.393 OA
ATOM     31  H2  UNL     1      10.821  72.018  28.754  1.00  0.00     0.210 HD
ENDBRANCH   5  30
BRANCH  14  32
HETATM   32  O4  UNL     1       7.332  76.049  21.126  1.00  0.00    -0.393 OA
ATOM     33  H4  UNL     1       7.628  75.356  20.547  1.00  0.00     0.210 HD
ENDBRANCH  14  32
BRANCH   6  34
HETATM   34  O3  UNL     1      11.034  70.093  26.000  1.00  0.00    -0.393 OA
ATOM     35  H3  UNL     1      10.485  69.965  25.235  1.00  0.00     0.210 HD
ENDBRANCH   6  34
TORSDOF 10
ENDMDL