MODEL 1
REMARK VINA RESULT: -6.910658448      0.000      0.000
REMARK  7 active torsions:
REMARK  status: ('A' for Active; 'I' for Inactive)
REMARK    1  A    between atoms: C2_2  and  O1_4
REMARK    2  A    between atoms: C2_2  and  C4_6
REMARK    3  A    between atoms: C4_6  and  C5_7
REMARK    4  A    between atoms: C5_7  and  C6_8
REMARK    5  A    between atoms: C7_11  and  C8_12
REMARK    6  A    between atoms: C13_18  and  N2_19
REMARK    7  A    between atoms: N2_19  and  C14_21
ROOT
HETATM    1  C6  UNL     1       3.731  74.512  28.385  1.00  0.00     0.083 A
HETATM    2  N1  UNL     1       4.881  74.403  27.720  1.00  0.00    -0.342 N
ATOM      3  H1  UNL     1       5.340  75.156  27.207  1.00  0.00     0.167 HD
HETATM    4  C7  UNL     1       5.350  73.120  27.832  1.00  0.00     0.084 A
HETATM    5  C13 UNL     1       4.451  72.423  28.594  1.00  0.00     0.135 A
HETATM    6  N6  UNL     1       3.474  73.331  28.907  1.00  0.00    -0.330 N
ATOM      7  H6  UNL     1       2.653  73.119  29.473  1.00  0.00     0.168 HD
ENDROOT
BRANCH   5   8
HETATM    8  N2  UNL     1       4.515  71.078  28.972  1.00  0.00    -0.339 N
ATOM      9  H2  UNL     1       3.862  70.440  28.517  1.00  0.00     0.167 HD
BRANCH   8  10
HETATM   10  C14 UNL     1       5.323  70.566  29.840  1.00  0.00     0.063 A
HETATM   11  C15 UNL     1       5.169  70.858  31.157  1.00  0.00     0.049 A
HETATM   12  C16 UNL     1       6.073  70.280  32.049  1.00  0.00     0.090 A
HETATM   13  N3  UNL     1       7.062  69.464  31.644  1.00  0.00    -0.365 N
HETATM   14  C17 UNL     1       7.237  69.159  30.343  1.00  0.00     0.076 A
ATOM     15  H3  UNL     1       7.696  69.068  32.338  1.00  0.00     0.165 HD
HETATM   16  C18 UNL     1       6.349  69.725  29.455  1.00  0.00     0.080 A
HETATM   17  C20 UNL     1       8.212  68.310  29.611  1.00  0.00     0.185 C
HETATM   18  N4  UNL     1       6.736  69.254  28.152  1.00  0.00    -0.384 N
HETATM   19  C19 UNL     1       7.470  67.994  28.326  1.00  0.00     0.165 C
ATOM     20  H4  UNL     1       6.536  69.714  27.263  1.00  0.00     0.159 HD
HETATM   21  C21 UNL     1       8.533  67.021  30.280  1.00  0.00     0.049 C
HETATM   22  N5  UNL     1       9.474  68.934  29.382  1.00  0.00    -0.059 N
HETATM   23  C22 UNL     1       9.757  67.318  31.086  1.00  0.00     0.030 C
HETATM   24  C23 UNL     1      10.348  68.538  30.443  1.00  0.00     0.233 C
ATOM     25  H52 UNL     1       9.855  68.733  28.458  1.00  0.00     0.278 HD
ATOM     26  H51 UNL     1       9.405  69.946  29.281  1.00  0.00     0.278 HD
ENDBRANCH   8  10
ENDBRANCH   5   8
BRANCH   4  27
HETATM   27  C8  UNL     1       6.589  72.726  27.201  1.00  0.00    -0.027 C
HETATM   28  C9  UNL     1       7.741  72.750  27.823  1.00  0.00     0.009 C
HETATM   29  C10 UNL     1       8.952  72.312  27.044  1.00  0.00     0.195 C
HETATM   30  O2  UNL     1       8.565  71.133  26.409  1.00  0.00    -0.387 OA
HETATM   31  C11 UNL     1       7.652  71.354  25.402  1.00  0.00     0.172 C
HETATM   32  C12 UNL     1       6.527  72.271  25.759  1.00  0.00     0.067 C
ENDBRANCH   4  27
BRANCH   1  33
HETATM   33  C5  UNL     1       2.961  75.783  28.460  1.00  0.00     0.079 C
BRANCH  33  34
HETATM   34  C4  UNL     1       3.791  76.904  29.020  1.00  0.00     0.044 C
BRANCH  34  35
HETATM   35  C2  UNL     1       4.074  77.991  28.049  1.00  0.00     0.051 C
HETATM   36  C1  UNL     1       5.057  79.010  28.582  1.00  0.00     0.045 C
HETATM   37  C3  UNL     1       2.846  78.717  27.569  1.00  0.00     0.045 C
BRANCH  35  38
HETATM   38  O1  UNL     1       4.653  77.393  26.911  1.00  0.00    -0.391 OA
ATOM     39  H1  UNL     1       3.949  77.021  26.391  1.00  0.00     0.210 HD
ENDBRANCH  35  38
ENDBRANCH  34  35
ENDBRANCH  33  34
ENDBRANCH   1  33
TORSDOF 7
ENDMDL