MODEL 3
REMARK VINA RESULT: -5.507002019      3.063      6.316
REMARK  9 active torsions:
REMARK  status: ('A' for Active; 'I' for Inactive)
REMARK    1  A    between atoms: C4_4  and  O1_5
REMARK    2  A    between atoms: C6_8  and  O2_10
REMARK    3  A    between atoms: C8_12  and  C9_13
REMARK    4  A    between atoms: C9_13  and  C11_15
REMARK    5  A    between atoms: C14_19  and  O4_20
REMARK    6  A    between atoms: C14_19  and  C15_22
REMARK    7  A    between atoms: C15_22  and  O5_23
REMARK    8  A    between atoms: C15_22  and  C16_25
REMARK    9  A    between atoms: C15_22  and  C17_28
ROOT
HETATM    1  C11 UNL     1      10.706  72.790  24.021  1.00  0.00     0.058 C
HETATM    2  C12 UNL     1      11.992  73.400  24.450  1.00  0.00     0.037 C
HETATM    3  C13 UNL     1      11.978  74.830  23.936  1.00  0.00     0.172 C
HETATM    4  O3  UNL     1      11.107  74.810  22.894  1.00  0.00    -0.352 OA
HETATM    5  C14 UNL     1      10.117  73.836  23.122  1.00  0.00     0.208 C
ENDROOT
BRANCH   1   6
HETATM    6  C9  UNL     1      10.726  71.469  23.384  1.00  0.00    -0.002 C
HETATM    7  C10 UNL     1      12.158  70.959  23.275  1.00  0.00     0.011 C
BRANCH   6   8
HETATM    8  C8  UNL     1       9.895  70.361  23.893  1.00  0.00     0.028 C
HETATM    9  C2  UNL     1       9.848  70.042  25.329  1.00  0.00    -0.009 C
HETATM   10  C1  UNL     1       8.673  70.575  26.109  1.00  0.00     0.010 C
HETATM   11  C3  UNL     1       9.690  68.501  25.422  1.00  0.00     0.036 C
HETATM   12  C4  UNL     1       8.631  68.015  24.489  1.00  0.00     0.121 C
HETATM   13  C5  UNL     1       7.821  69.040  23.797  1.00  0.00     0.069 C
HETATM   14  C6  UNL     1       8.563  70.182  23.187  1.00  0.00     0.061 C
HETATM   15  C7  UNL     1       8.857  69.867  21.710  1.00  0.00     0.046 C
BRANCH  12  16
HETATM   16  O1  UNL     1       9.154  67.133  23.515  1.00  0.00    -0.395 OA
ATOM     17  H1  UNL     1       8.476  66.811  22.932  1.00  0.00     0.210 HD
ENDBRANCH  12  16
BRANCH  14  18
HETATM   18  O2  UNL     1       7.753  71.281  23.175  1.00  0.00    -0.390 OA
ATOM     19  H2  UNL     1       8.220  72.003  22.772  1.00  0.00     0.210 HD
ENDBRANCH  14  18
ENDBRANCH   6   8
ENDBRANCH   1   6
BRANCH   5  20
HETATM   20  O4  UNL     1       9.773  73.387  21.853  1.00  0.00    -0.362 OA
ATOM     21  H4  UNL     1       8.866  73.535  21.612  1.00  0.00     0.213 HD
ENDBRANCH   5  20
BRANCH   5  22
HETATM   22  C15 UNL     1       8.972  74.581  23.741  1.00  0.00     0.206 C
BRANCH  22  23
HETATM   23  O5  UNL     1       9.439  75.852  24.152  1.00  0.00    -0.374 OA
ATOM     24  H5  UNL     1       8.689  76.377  24.406  1.00  0.00     0.211 HD
ENDBRANCH  22  23
BRANCH  22  25
HETATM   25  C16 UNL     1       7.950  74.819  22.695  1.00  0.00     0.215 C
HETATM   26  O6  UNL     1       7.792  75.949  22.139  1.00  0.00    -0.646 OA
HETATM   27  O7  UNL     1       7.125  73.806  22.284  1.00  0.00    -0.646 OA
ENDBRANCH  22  25
BRANCH  22  28
HETATM   28  C17 UNL     1       8.344  73.978  24.940  1.00  0.00     0.037 C
HETATM   29  C18 UNL     1       6.890  74.187  25.135  1.00  0.00     0.008 C
HETATM   30  C19 UNL     1       6.490  73.346  26.361  1.00  0.00     0.001 C
HETATM   31  C20 UNL     1       7.095  73.998  27.552  1.00  0.00     0.000 C
HETATM   32  C21 UNL     1       8.568  74.233  27.441  1.00  0.00     0.001 C
HETATM   33  C22 UNL     1       9.060  74.649  26.122  1.00  0.00     0.008 C
ENDBRANCH  22  28
ENDBRANCH   5  22
TORSDOF 9
ENDMDL