MODEL 1
REMARK VINA RESULT: -6.616406255      0.000      0.000
REMARK  10 active torsions:
REMARK  status: ('A' for Active; 'I' for Inactive)
REMARK    1  A    between atoms: C2_2  and  C4_4
REMARK    2  A    between atoms: C7_7  and  C8_8
REMARK    3  A    between atoms: C8_8  and  O1_9
REMARK    4  A    between atoms: C9_11  and  O2_12
REMARK    5  A    between atoms: C9_11  and  C10_14
REMARK    6  A    between atoms: C10_14  and  O3_15
REMARK    7  A    between atoms: O3_15  and  C11_16
REMARK    8  A    between atoms: C12_19  and  O5_20
REMARK    9  A    between atoms: C15_24  and  C16_25
REMARK   10  A    between atoms: C16_25  and  O6_26
ROOT
HETATM    1  C4  UNL     1      12.763  76.655  27.163  1.00  0.00     0.021 C
HETATM    2  C5  UNL     1      12.056  76.645  25.845  1.00  0.00     0.037 C
HETATM    3  C6  UNL     1      12.385  75.583  24.916  1.00  0.00    -0.018 C
HETATM    4  C7  UNL     1      11.604  74.801  24.165  1.00  0.00    -0.022 C
HETATM    5  C9  UNL     1      10.114  74.858  24.205  1.00  0.00     0.131 C
HETATM    6  C12 UNL     1       9.691  73.845  25.279  1.00  0.00     0.167 C
HETATM    7  C13 UNL     1       8.925  74.328  26.411  1.00  0.00     0.044 C
HETATM    8  C14 UNL     1       7.447  74.080  26.168  1.00  0.00     0.017 C
HETATM    9  C15 UNL     1       9.311  73.862  27.783  1.00  0.00    -0.054 C
HETATM   10  C17 UNL     1      10.140  74.419  28.632  1.00  0.00    -0.016 C
HETATM   11  C18 UNL     1      10.937  75.644  28.521  1.00  0.00     0.021 C
HETATM   12  C19 UNL     1      12.352  75.516  28.100  1.00  0.00     0.003 C
HETATM   13  C20 UNL     1      12.755  75.799  29.553  1.00  0.00     0.015 C
HETATM   14  C21 UNL     1      11.368  76.236  29.871  1.00  0.00    -0.040 C
HETATM   15  C22 UNL     1      11.098  77.680  30.075  1.00  0.00     0.015 C
HETATM   16  C23 UNL     1      10.801  75.439  31.053  1.00  0.00     0.015 C
ENDROOT
BRANCH   5  17
HETATM   17  O2  UNL     1       9.573  76.089  24.411  1.00  0.00    -0.380 OA
ATOM     18  H2  UNL     1       8.942  76.377  23.763  1.00  0.00     0.211 HD
ENDBRANCH   5  17
BRANCH   5  19
HETATM   19  C10 UNL     1       9.587  74.452  22.849  1.00  0.00     0.225 C
BRANCH  19  20
HETATM   20  O3  UNL     1       8.864  75.296  22.101  1.00  0.00    -0.303 OA
BRANCH  20  21
HETATM   21  C11 UNL     1       7.608  75.278  21.663  1.00  0.00     0.372 C
HETATM   22  N1  UNL     1       6.496  74.847  22.484  1.00  0.00    -0.032 NA
HETATM   23  O4  UNL     1       7.288  75.629  20.516  1.00  0.00    -0.242 OA
ENDBRANCH  20  21
ENDBRANCH  19  20
ENDBRANCH   5  19
BRANCH   4  24
HETATM   24  C8  UNL     1      12.275  73.800  23.312  1.00  0.00     0.201 C
BRANCH  24  25
HETATM   25  O1  UNL     1      12.934  72.774  23.921  1.00  0.00    -0.397 OA
ATOM     26  H1  UNL     1      12.485  71.942  24.009  1.00  0.00     0.209 HD
ENDBRANCH  24  25
ENDBRANCH   4  24
BRANCH   6  27
HETATM   27  O5  UNL     1      10.736  72.977  25.605  1.00  0.00    -0.391 OA
ATOM     28  H5  UNL     1      10.832  72.885  26.546  1.00  0.00     0.210 HD
ENDBRANCH   6  27
BRANCH   9  29
HETATM   29  C16 UNL     1       8.605  72.588  28.140  1.00  0.00     0.198 C
BRANCH  29  30
HETATM   30  O6  UNL     1       9.142  71.955  29.244  1.00  0.00    -0.397 OA
ATOM     31  H6  UNL     1       8.685  72.156  30.051  1.00  0.00     0.209 HD
ENDBRANCH  29  30
ENDBRANCH   9  29
BRANCH   1  32
HETATM   32  C2  UNL     1      14.196  76.899  27.095  1.00  0.00    -0.088 C
HETATM   33  C1  UNL     1      14.715  78.122  27.246  1.00  0.00     0.014 C
HETATM   34  C3  UNL     1      15.167  75.802  26.883  1.00  0.00     0.043 C
ENDBRANCH   1  32
TORSDOF 10
ENDMDL