MODEL 4
REMARK VINA RESULT: -6.433694574      5.126      7.795
REMARK  8 active torsions:
REMARK  status: ('A' for Active; 'I' for Inactive)
REMARK    1  A    between atoms: C2_2  and  C3_3
REMARK    2  A    between atoms: C3_3  and  C4_4
REMARK    3  A    between atoms: C5_5  and  C6_6
REMARK    4  A    between atoms: C7_7  and  C8_8
REMARK    5  A    between atoms: C9_9  and  C10_10
REMARK    6  A    between atoms: C17_18  and  O2_19
REMARK    7  A    between atoms: C20_25  and  N2_26
REMARK    8  A    between atoms: C21_31  and  N4_32
ROOT
HETATM    1  C8  UNL     1      13.625  74.731  27.186  1.00  0.00    -0.034 C
HETATM    2  C9  UNL     1      12.974  74.826  28.329  1.00  0.00     0.022 C
HETATM    3  C13 UNL     1      11.511  74.776  28.034  1.00  0.00     0.165 C
HETATM    4  O1  UNL     1      10.525  74.787  28.830  1.00  0.00    -0.292 OA
HETATM    5  C14 UNL     1      11.290  74.704  26.610  1.00  0.00     0.074 C
HETATM    6  C15 UNL     1      10.699  75.855  25.897  1.00  0.00     0.018 C
HETATM    7  C16 UNL     1       9.971  75.377  24.630  1.00  0.00     0.062 C
HETATM    8  C17 UNL     1      10.878  75.230  23.433  1.00  0.00     0.267 C
HETATM    9  O3  UNL     1      11.362  73.891  23.242  1.00  0.00    -0.303 OA
HETATM   10  C19 UNL     1      12.011  73.029  24.119  1.00  0.00     0.170 A
HETATM   11  N1  UNL     1      12.004  71.794  23.593  1.00  0.00    -0.170 N
ATOM     12  H1  UNL     1      11.558  71.666  22.685  1.00  0.00     0.186 HD
HETATM   13  C20 UNL     1      12.538  70.728  24.177  1.00  0.00     0.679 A
HETATM   14  N3  UNL     1      13.124  70.887  25.367  1.00  0.00    -0.177 N
ATOM     15  H3  UNL     1      13.538  70.073  25.823  1.00  0.00     0.186 HD
HETATM   16  C21 UNL     1      13.191  72.091  25.994  1.00  0.00     0.126 A
HETATM   17  C22 UNL     1      12.649  73.157  25.393  1.00  0.00     0.047 A
HETATM   18  C23 UNL     1      12.718  74.402  26.139  1.00  0.00     0.072 C
ENDROOT
BRANCH   1  19
HETATM   19  C7  UNL     1      15.062  74.872  27.030  1.00  0.00     0.009 C
HETATM   20  C6  UNL     1      15.892  75.809  27.320  1.00  0.00     0.000 C
BRANCH  20  21
HETATM   21  C5  UNL     1      15.790  77.104  27.916  1.00  0.00    -0.004 C
HETATM   22  C4  UNL     1      14.960  77.985  27.374  1.00  0.00    -0.023 C
BRANCH  22  23
HETATM   23  C3  UNL     1      14.743  79.337  27.898  1.00  0.00     0.053 C
BRANCH  23  24
HETATM   24  C2  UNL     1      15.104  80.414  26.921  1.00  0.00    -0.033 C
HETATM   25  C1  UNL     1      15.749  81.494  27.323  1.00  0.00     0.007 C
ENDBRANCH  23  24
ENDBRANCH  22  23
ENDBRANCH  20  21
ENDBRANCH   1  19
BRANCH   2  26
HETATM   26  C10 UNL     1      13.392  75.062  29.679  1.00  0.00    -0.057 C
HETATM   27  C11 UNL     1      13.249  76.248  30.293  1.00  0.00     0.019 C
HETATM   28  C12 UNL     1      14.055  74.067  30.594  1.00  0.00     0.048 C
ENDBRANCH   2  26
BRANCH  16  29
HETATM   29  N4  UNL     1      13.738  72.118  27.127  1.00  0.00    -0.384 N
ATOM     30  H42 UNL     1      13.438  71.554  27.923  1.00  0.00     0.157 HD
ATOM     31  H41 UNL     1      14.548  72.728  27.238  1.00  0.00     0.157 HD
ENDBRANCH  16  29
BRANCH   8  32
HETATM   32  O2  UNL     1      10.093  75.450  22.261  1.00  0.00    -0.366 OA
HETATM   33  C18 UNL     1       8.864  74.864  22.506  1.00  0.00     0.204 C
ENDBRANCH   8  32
BRANCH  13  34
HETATM   34  N2  UNL     1      12.492  69.571  23.622  1.00  0.00    -0.234 N
ATOM     35  H22 UNL     1      13.220  69.279  22.970  1.00  0.00     0.174 HD
ATOM     36  H21 UNL     1      11.734  68.918  23.821  1.00  0.00     0.174 HD
ENDBRANCH  13  34
TORSDOF 8
ENDMDL