MODEL 2
REMARK VINA RESULT: -6.342803460      1.736      7.178
REMARK  12 active torsions:
REMARK  status: ('A' for Active; 'I' for Inactive)
REMARK    1  A    between atoms: O1_2  and  C2_3
REMARK    2  A    between atoms: C2_3  and  O2_4
REMARK    3  A    between atoms: C4_6  and  N1_7
REMARK       I    between atoms: N1_7  and  C5_9
REMARK    4  A    between atoms: C5_9  and  C6_11
REMARK    5  A    between atoms: C6_11  and  N2_13
REMARK    6  A    between atoms: C8_17  and  C9_18
REMARK    7  A    between atoms: C9_18  and  O4_19
REMARK    8  A    between atoms: C9_18  and  C10_21
REMARK    9  A    between atoms: C10_21  and  O5_22
REMARK   10  A    between atoms: C12_26  and  O6_27
REMARK   11  A    between atoms: C14_30  and  O7_31
REMARK   12  A    between atoms: C14_30  and  C15_33
REMARK       I    between atoms: C15_33  and  N4_35
ROOT
HETATM    1  C2  UNL     1       8.546  -8.034  -2.646  1.00  0.00     0.213 C
HETATM    2  C4  UNL     1       9.976  -7.728  -2.134  1.00  0.00     0.201 C
HETATM    3  C8  UNL     1      10.123  -6.363  -2.820  1.00  0.00     0.070 C
HETATM    4  N3  UNL     1       8.926  -5.769  -2.743  1.00  0.00    -0.328 N
HETATM    5  C11 UNL     1       7.893  -6.776  -2.341  1.00  0.00     0.181 C
HETATM    6  C12 UNL     1       7.737  -6.322  -0.925  1.00  0.00     0.151 C
HETATM    7  C13 UNL     1       7.556  -4.807  -1.190  1.00  0.00     0.105 C
HETATM    8  C14 UNL     1       8.463  -4.546  -2.423  1.00  0.00     0.223 C
ENDROOT
BRANCH   8   9
HETATM    9  O7  UNL     1       9.265  -3.504  -2.015  1.00  0.00    -0.363 OA
ATOM     10  H7  UNL     1       9.083  -2.960  -1.259  1.00  0.00     0.213 HD
ENDBRANCH   8   9
BRANCH   8  11
HETATM   11  C15 UNL     1       7.529  -3.994  -3.443  1.00  0.00     0.313 C
HETATM   12  O8  UNL     1       7.150  -4.626  -4.467  1.00  0.00    -0.264 OA
HETATM   13  N4  UNL     1       7.002  -2.686  -3.302  1.00  0.00    -0.127 N
HETATM   14  N5  UNL     1       6.123  -2.035  -4.214  1.00  0.00    -0.207 N
HETATM   15  N8  UNL     1       7.177  -1.756  -2.277  1.00  0.00     0.020 NA
HETATM   16  N6  UNL     1       6.008  -0.803  -3.892  1.00  0.00    -0.212 N
ATOM     17  H5  UNL     1       5.657  -2.483  -5.003  1.00  0.00     0.211 HD
HETATM   18  N7  UNL     1       6.772  -0.527  -2.775  1.00  0.00     0.010 NA
ATOM     19  H6  UNL     1       5.434  -0.122  -4.389  1.00  0.00     0.207 HD
ENDBRANCH   8  11
BRANCH   3  20
HETATM   20  C9  UNL     1      11.457  -5.867  -2.511  1.00  0.00     0.091 C
BRANCH  20  21
HETATM   21  O4  UNL     1      11.710  -4.511  -2.742  1.00  0.00    -0.361 OA
ATOM     22  H4  UNL     1      12.222  -4.044  -2.092  1.00  0.00     0.217 HD
ENDBRANCH  20  21
BRANCH  20  23
HETATM   23  C10 UNL     1      12.079  -6.320  -1.204  1.00  0.00     0.230 C
BRANCH  23  24
HETATM   24  O5  UNL     1      13.306  -6.983  -1.466  1.00  0.00    -0.394 OA
ATOM     25  H5  UNL     1      14.030  -6.438  -1.179  1.00  0.00     0.209 HD
ENDBRANCH  23  24
ENDBRANCH  20  23
ENDBRANCH   3  20
BRANCH   6  26
HETATM   26  O6  UNL     1       6.551  -6.685  -0.313  1.00  0.00    -0.393 OA
ATOM     27  H6  UNL     1       6.017  -5.965   0.002  1.00  0.00     0.210 HD
ENDBRANCH   6  26
BRANCH   2  28
HETATM   28  N1  UNL     1      10.916  -8.640  -2.733  1.00  0.00    -0.344 N
HETATM   29  C5  UNL     1      11.536  -9.708  -2.056  1.00  0.00     0.248 C
HETATM   30  O3  UNL     1      11.271  -9.907  -0.849  1.00  0.00    -0.271 OA
ATOM     31  H1  UNL     1      11.149  -8.503  -3.717  1.00  0.00     0.163 HD
BRANCH  29  32
HETATM   32  C6  UNL     1      12.501 -10.637  -2.688  1.00  0.00     0.270 C
HETATM   33  C7  UNL     1      12.422 -11.948  -1.920  1.00  0.00     0.050 C
BRANCH  32  34
HETATM   34  N2  UNL     1      13.842 -10.110  -2.716  1.00  0.00    -0.067 N
ATOM     35  H23 UNL     1      13.964  -9.462  -3.494  1.00  0.00     0.275 HD
ATOM     36  H22 UNL     1      13.997  -9.466  -1.940  1.00  0.00     0.275 HD
ATOM     37  H21 UNL     1      14.551 -10.842  -2.733  1.00  0.00     0.275 HD
ENDBRANCH  32  34
ENDBRANCH  29  32
ENDBRANCH   2  28
BRANCH   1  38
HETATM   38  O1  UNL     1       8.786  -8.026  -4.061  1.00  0.00    -0.356 OA
HETATM   39  C1  UNL     1       7.801  -8.659  -4.765  1.00  0.00     0.205 C
ENDBRANCH   1  38
BRANCH   1  40
HETATM   40  O2  UNL     1       8.113  -9.235  -2.395  1.00  0.00    -0.356 OA
HETATM   41  C3  UNL     1       7.823  -9.828  -1.257  1.00  0.00     0.205 C
ENDBRANCH   1  40
TORSDOF 12
ENDMDL