MODEL 1
REMARK VINA RESULT: -6.892258567      0.000      0.000
REMARK  10 active torsions:
REMARK  status: ('A' for Active; 'I' for Inactive)
REMARK    1  A    between atoms: N1_4  and  N2_6
REMARK    2  A    between atoms: N2_6  and  C4_8
REMARK    3  A    between atoms: C7_15  and  N4_16
REMARK    4  A    between atoms: N4_16  and  C8_17
REMARK    5  A    between atoms: N4_16  and  C10_21
REMARK    6  A    between atoms: C8_17  and  C9_18
REMARK    7  A    between atoms: C10_21  and  C12_23
REMARK    8  A    between atoms: C12_23  and  O4_24
REMARK    9  A    between atoms: C12_23  and  O5_26
REMARK   10  A    between atoms: C13_30  and  C14_31
ROOT
HETATM    1  C4  UNL     1      12.396  -9.831  -2.596  1.00  0.00     0.446 C
HETATM    2  N3  UNL     1      11.311  -9.055  -3.097  1.00  0.00     0.003 N
ATOM      3  H31 UNL     1      11.130  -9.231  -4.086  1.00  0.00     0.285 HD
ATOM      4  H32 UNL     1      11.541  -8.064  -3.170  1.00  0.00     0.285 HD
HETATM    5  C5  UNL     1      10.171  -9.288  -2.289  1.00  0.00     0.281 C
HETATM    6  C6  UNL     1      10.750 -10.020  -1.081  1.00  0.00     0.238 C
HETATM    7  O1  UNL     1      12.072 -10.209  -1.311  1.00  0.00    -0.339 OA
HETATM    8  C7  UNL     1       9.429  -8.088  -1.890  1.00  0.00     0.133 C
HETATM    9  N5  UNL     1       8.262  -8.324  -1.331  1.00  0.00    -0.360 N
ATOM     10  H5  UNL     1       7.695  -7.532  -1.030  1.00  0.00     0.162 HD
HETATM   11  C13 UNL     1       7.754  -9.643  -1.129  1.00  0.00     0.221 C
HETATM   12  C15 UNL     1       8.150 -10.611  -2.226  1.00  0.00     0.224 C
HETATM   13  N6  UNL     1       7.125 -10.713  -3.233  1.00  0.00    -0.104 NA
HETATM   14  N7  UNL     1       7.656 -10.227  -4.412  1.00  0.00    -0.021 NA
HETATM   15  N8  UNL     1       9.034 -10.122  -4.235  1.00  0.00    -0.034 NA
HETATM   16  N9  UNL     1       9.323 -10.270  -2.933  1.00  0.00    -0.148 NA
ENDROOT
BRANCH   8  17
HETATM   17  N4  UNL     1       9.758  -6.729  -2.020  1.00  0.00    -0.348 N
BRANCH  17  18
HETATM   18  C8  UNL     1      10.608  -6.074  -1.082  1.00  0.00     0.238 C
BRANCH  18  19
HETATM   19  C9  UNL     1      12.039  -6.078  -1.312  1.00  0.00     0.191 C
HETATM   20  O2  UNL     1      12.806  -6.055  -0.317  1.00  0.00    -0.647 OA
HETATM   21  O3  UNL     1      12.585  -6.101  -2.567  1.00  0.00    -0.647 OA
ENDBRANCH  18  19
ENDBRANCH  17  18
BRANCH  17  22
HETATM   22  C10 UNL     1       9.227  -5.990  -3.130  1.00  0.00     0.137 C
HETATM   23  C11 UNL     1       7.747  -6.412  -3.325  1.00  0.00     0.037 C
BRANCH  22  24
HETATM   24  C12 UNL     1       9.180  -4.506  -2.992  1.00  0.00     0.276 C
BRANCH  24  25
HETATM   25  O4  UNL     1      10.371  -4.044  -3.639  1.00  0.00    -0.369 OA
ATOM     26  H4  UNL     1      10.084  -3.767  -4.501  1.00  0.00     0.212 HD
ENDBRANCH  24  25
BRANCH  24  27
HETATM   27  O5  UNL     1       8.176  -3.903  -3.787  1.00  0.00    -0.369 OA
ATOM     28  H5  UNL     1       8.313  -2.973  -3.923  1.00  0.00     0.212 HD
ENDBRANCH  24  27
ENDBRANCH  22  24
ENDBRANCH  17  22
ENDBRANCH   8  17
BRANCH   1  29
HETATM   29  N2  UNL     1      12.632 -11.049  -3.366  1.00  0.00    -0.284 N
ATOM     30  H2  UNL     1      13.337 -11.715  -3.054  1.00  0.00     0.184 HD
BRANCH  29  31
HETATM   31  N1  UNL     1      11.895 -11.311  -4.534  1.00  0.00    -0.310 N
HETATM   32  C2  UNL     1      11.407 -12.473  -4.746  1.00  0.00    -0.004 C
HETATM   33  C1  UNL     1      11.612 -13.564  -3.760  1.00  0.00     0.064 C
HETATM   34  C3  UNL     1      10.618 -12.777  -5.987  1.00  0.00     0.064 C
ATOM     35  H1  UNL     1      11.749 -10.568  -5.216  1.00  0.00     0.186 HD
ENDBRANCH  29  31
ENDBRANCH   1  29
BRANCH  11  36
HETATM   36  C14 UNL     1       6.299  -9.607  -0.884  1.00  0.00     0.199 C
HETATM   37  O6  UNL     1       5.620  -8.593  -1.235  1.00  0.00    -0.646 OA
HETATM   38  O7  UNL     1       5.597 -10.638  -0.275  1.00  0.00    -0.646 OA
ENDBRANCH  11  36
TORSDOF 10
ENDMDL