MODEL 5
REMARK VINA RESULT: -6.429136336      2.784      7.115
REMARK  8 active torsions:
REMARK  status: ('A' for Active; 'I' for Inactive)
REMARK    1  A    between atoms: N1_1  and  N2_4
REMARK       I    between atoms: N2_4  and  C1_5
REMARK       I    between atoms: C1_5  and  N3_6
REMARK       I    between atoms: C1_5  and  N4_10
REMARK    2  A    between atoms: N4_10  and  C2_12
REMARK    3  A    between atoms: N5_13  and  C3_14
REMARK    4  A    between atoms: C3_14  and  C4_15
REMARK    5  A    between atoms: N8_22  and  C5_23
REMARK    6  A    between atoms: C5_23  and  C6_24
REMARK    7  A    between atoms: C9_31  and  O3_32
REMARK    8  A    between atoms: C10_34  and  S1_35
ROOT
HETATM    1  C2  UNL     1       8.986  -5.957  -2.618  1.00  0.00     0.717 A
HETATM    2  N5  UNL     1      10.269  -5.845  -2.268  1.00  0.00    -0.097 N
HETATM    3  N6  UNL     1      10.561  -4.553  -2.205  1.00  0.00    -0.210 N
ATOM      4  H6  UNL     1      11.475  -4.172  -1.960  1.00  0.00     0.210 HD
HETATM    5  N7  UNL     1       9.514  -3.840  -2.501  1.00  0.00    -0.211 N
ATOM      6  H7  UNL     1       9.477  -2.821  -2.524  1.00  0.00     0.210 HD
HETATM    7  N8  UNL     1       8.527  -4.636  -2.761  1.00  0.00    -0.101 N
ENDROOT
BRANCH   7   8
HETATM    8  C5  UNL     1       7.127  -4.380  -3.131  1.00  0.00     0.229 C
BRANCH   8   9
HETATM    9  C6  UNL     1       6.217  -4.304  -1.987  1.00  0.00     0.060 A
HETATM   10  N9  UNL     1       5.351  -5.299  -1.591  1.00  0.00    -0.302 N
HETATM   11  N10 UNL     1       4.627  -4.884  -0.571  1.00  0.00    -0.300 N
ATOM     12  H9  UNL     1       5.281  -6.220  -2.024  1.00  0.00     0.186 HD
HETATM   13  C7  UNL     1       4.976  -3.626  -0.255  1.00  0.00     0.065 A
ATOM     14  H10 UNL     1       3.911  -5.434  -0.095  1.00  0.00     0.187 HD
HETATM   15  C8  UNL     1       4.560  -2.737   0.712  1.00  0.00     0.070 A
HETATM   16  C12 UNL     1       5.989  -3.255  -1.152  1.00  0.00     0.044 A
HETATM   17  C9  UNL     1       5.104  -1.478   0.844  1.00  0.00     0.094 A
HETATM   18  C10 UNL     1       6.105  -1.122  -0.043  1.00  0.00     0.138 A
HETATM   19  C11 UNL     1       6.537  -1.994  -1.021  1.00  0.00     0.088 A
HETATM   20  N11 UNL     1       7.584  -1.559  -1.847  1.00  0.00    -0.100 NA
BRANCH  17  21
HETATM   21  O3  UNL     1       4.668  -0.605   1.825  1.00  0.00    -0.359 OA
ATOM     22  H3  UNL     1       3.859  -0.118   1.728  1.00  0.00     0.217 HD
ENDBRANCH  17  21
BRANCH  18  23
HETATM   23  S1  UNL     1       6.816   0.445   0.089  1.00  0.00     0.142 S
HETATM   24  O4  UNL     1       6.333   1.224   1.278  1.00  0.00    -0.591 OA
HETATM   25  O5  UNL     1       8.316   0.265   0.280  1.00  0.00    -0.591 OA
HETATM   26  O6  UNL     1       6.604   1.367  -1.316  1.00  0.00    -0.591 OA
ENDBRANCH  18  23
ENDBRANCH   8   9
ENDBRANCH   7   8
BRANCH   1  27
HETATM   27  N4  UNL     1       8.241  -6.933  -2.829  1.00  0.00    -0.178 N
HETATM   28  C1  UNL     1       8.020  -8.273  -2.799  1.00  0.00     0.410 C
HETATM   29  N2  UNL     1       8.066  -8.843  -1.457  1.00  0.00    -0.093 NA
HETATM   30  N3  UNL     1       8.887  -9.102  -3.634  1.00  0.00    -0.042 N
ATOM     31  H33 UNL     1       9.834  -9.192  -3.267  1.00  0.00     0.278 HD
ATOM     32  H32 UNL     1       8.646 -10.092  -3.609  1.00  0.00     0.278 HD
ATOM     33  H31 UNL     1       8.856  -8.703  -4.573  1.00  0.00     0.278 HD
ATOM     34  H4  UNL     1       7.381  -6.532  -3.204  1.00  0.00     0.181 HD
BRANCH  29  35
HETATM   35  N1  UNL     1       7.258  -8.117  -0.572  1.00  0.00    -0.345 N
ATOM     36  H12 UNL     1       7.626  -7.567   0.204  1.00  0.00     0.172 HD
ATOM     37  H11 UNL     1       6.271  -8.214  -0.809  1.00  0.00     0.172 HD
ENDBRANCH  29  35
ENDBRANCH   1  27
BRANCH   2  38
HETATM   38  C3  UNL     1      11.237  -6.860  -1.964  1.00  0.00     0.282 C
BRANCH  38  39
HETATM   39  C4  UNL     1      12.537  -6.270  -1.521  1.00  0.00     0.194 C
HETATM   40  O1  UNL     1      13.453  -6.030  -2.338  1.00  0.00    -0.647 OA
HETATM   41  O2  UNL     1      12.698  -5.996  -0.178  1.00  0.00    -0.647 OA
ENDBRANCH  38  39
ENDBRANCH   2  38
TORSDOF 8
ENDMDL