MODEL 3
REMARK VINA RESULT: -6.684144245      1.143      1.236
REMARK  11 active torsions:
REMARK  status: ('A' for Active; 'I' for Inactive)
REMARK    1  A    between atoms: C3_4  and  C4_5
REMARK    2  A    between atoms: C4_5  and  C5_6
REMARK    3  A    between atoms: C4_5  and  N5_15
REMARK    4  A    between atoms: C5_6  and  N3_10
REMARK    5  A    between atoms: N3_10  and  N4_12
REMARK    6  A    between atoms: C6_18  and  C7_19
REMARK    7  A    between atoms: C7_19  and  N7_20
REMARK    8  A    between atoms: C7_19  and  C8_24
REMARK    9  A    between atoms: C11_29  and  N8_30
REMARK   10  A    between atoms: N11_38  and  C14_39
REMARK   11  A    between atoms: C14_39  and  O3_40
ROOT
HETATM    1  N5  UNL     1       9.345  -8.305  -2.812  1.00  0.00    -0.271 N
HETATM    2  N6  UNL     1      10.228  -7.535  -2.043  1.00  0.00    -0.297 N
ATOM      3  H6  UNL     1      11.068  -7.907  -1.600  1.00  0.00     0.187 HD
HETATM    4  C6  UNL     1       9.856  -6.289  -1.957  1.00  0.00     0.084 A
HETATM    5  C9  UNL     1       8.785  -6.361  -2.639  1.00  0.00     0.082 A
HETATM    6  C10 UNL     1       8.331  -7.591  -3.272  1.00  0.00     0.113 A
HETATM    7  C11 UNL     1       7.293  -7.794  -4.120  1.00  0.00     0.132 C
HETATM    8  N9  UNL     1       6.180  -6.848  -4.604  1.00  0.00    -0.300 N
ATOM      9  H9  UNL     1       5.575  -7.090  -5.389  1.00  0.00     0.171 HD
HETATM   10  C12 UNL     1       6.036  -5.624  -3.907  1.00  0.00     0.266 A
HETATM   11  N10 UNL     1       6.903  -5.727  -3.342  1.00  0.00    -0.351 NA
HETATM   12  C13 UNL     1       7.838  -5.484  -2.490  1.00  0.00     0.205 A
HETATM   13  N11 UNL     1       7.681  -4.387  -1.806  1.00  0.00    -0.251 N
HETATM   14  C15 UNL     1       6.434  -3.720  -2.324  1.00  0.00     0.334 A
HETATM   15  O4  UNL     1       6.212  -2.711  -1.826  1.00  0.00    -0.246 OA
HETATM   16  N12 UNL     1       5.632  -4.401  -3.400  1.00  0.00    -0.268 N
ATOM     17  H12 UNL     1       4.787  -3.958  -3.758  1.00  0.00     0.174 HD
ENDROOT
BRANCH   1  18
HETATM   18  C4  UNL     1       9.433  -9.685  -3.127  1.00  0.00     0.212 C
BRANCH  18  19
HETATM   19  C3  UNL     1      10.821 -10.192  -3.030  1.00  0.00     0.008 A
HETATM   20  C2  UNL     1      11.888  -9.498  -2.491  1.00  0.00     0.120 A
HETATM   21  N1  UNL     1      13.003 -10.238  -2.553  1.00  0.00    -0.307 N
HETATM   22  C1  UNL     1      14.298  -9.837  -2.089  1.00  0.00     0.177 C
HETATM   23  N13 UNL     1      12.705 -11.386  -3.111  1.00  0.00    -0.310 N
HETATM   24  C16 UNL     1      11.395 -11.388  -3.408  1.00  0.00     0.118 A
ATOM     25  H13 UNL     1      13.357 -12.150  -3.290  1.00  0.00     0.186 HD
ENDBRANCH  18  19
BRANCH  18  26
HETATM   26  C5  UNL     1       8.759 -10.319  -1.907  1.00  0.00     0.119 C
HETATM   27  N2  UNL     1       9.057 -10.029  -0.707  1.00  0.00    -0.386 N
ATOM     28  H22 UNL     1       9.796  -9.341  -0.556  1.00  0.00     0.157 HD
ATOM     29  H21 UNL     1       8.609 -10.450   0.106  1.00  0.00     0.157 HD
BRANCH  26  30
HETATM   30  N3  UNL     1       7.723 -11.285  -2.118  1.00  0.00    -0.294 N
ATOM     31  H3  UNL     1       6.919 -11.277  -1.491  1.00  0.00     0.187 HD
BRANCH  30  32
HETATM   32  N4  UNL     1       7.756 -12.223  -3.124  1.00  0.00    -0.344 N
ATOM     33  H42 UNL     1       8.616 -12.294  -3.667  1.00  0.00     0.176 HD
ATOM     34  H41 UNL     1       6.972 -12.838  -3.345  1.00  0.00     0.176 HD
ENDBRANCH  30  32
ENDBRANCH  26  30
ENDBRANCH  18  26
ENDBRANCH   1  18
BRANCH   4  35
HETATM   35  C7  UNL     1      10.618  -5.011  -1.737  1.00  0.00     0.335 C
BRANCH  35  36
HETATM   36  N7  UNL     1      10.956  -4.180  -2.905  1.00  0.00    -0.060 N
ATOM     37  H73 UNL     1      11.728  -4.617  -3.409  1.00  0.00     0.275 HD
ATOM     38  H72 UNL     1      10.206  -4.253  -3.591  1.00  0.00     0.275 HD
ATOM     39  H71 UNL     1      11.174  -3.195  -2.758  1.00  0.00     0.275 HD
ENDBRANCH  35  36
BRANCH  35  40
HETATM   40  C8  UNL     1      12.024  -5.662  -1.577  1.00  0.00     0.210 C
HETATM   41  O1  UNL     1      12.651  -5.793  -2.633  1.00  0.00    -0.646 OA
HETATM   42  O2  UNL     1      12.460  -6.027  -0.376  1.00  0.00    -0.646 OA
ENDBRANCH  35  40
ENDBRANCH   4  35
BRANCH   7  43
HETATM   43  N8  UNL     1       7.175  -9.037  -4.701  1.00  0.00    -0.383 N
ATOM     44  H82 UNL     1       8.002  -9.263  -5.254  1.00  0.00     0.157 HD
ATOM     45  H81 UNL     1       6.329  -9.572  -4.509  1.00  0.00     0.157 HD
ENDBRANCH   7  43
BRANCH  13  46
HETATM   46  C14 UNL     1       8.308  -4.295  -0.646  1.00  0.00     0.303 C
BRANCH  46  47
HETATM   47  O3  UNL     1       7.131  -4.802   0.220  1.00  0.00    -0.382 OA
ATOM     48  H3  UNL     1       7.263  -5.726   0.041  1.00  0.00     0.211 HD
ENDBRANCH  46  47
ENDBRANCH  13  46
TORSDOF 11
ENDMDL