MODEL 1
REMARK VINA RESULT: -7.289056863      0.000      0.000
REMARK  14 active torsions:
REMARK  status: ('A' for Active; 'I' for Inactive)
REMARK    1  A    between atoms: C3_4  and  N2_5
REMARK    2  A    between atoms: C4_9  and  N5_10
REMARK       I    between atoms: N5_10  and  C5_12
REMARK       I    between atoms: C5_12  and  N6_14
REMARK    3  A    between atoms: N6_14  and  N7_16
REMARK    4  A    between atoms: C6_23  and  O2_24
REMARK    5  A    between atoms: C7_26  and  C8_27
REMARK    6  A    between atoms: C8_27  and  O3_28
REMARK    7  A    between atoms: C8_27  and  N10_30
REMARK    8  A    between atoms: N10_30  and  C9_32
REMARK    9  A    between atoms: C9_32  and  C10_33
REMARK   10  A    between atoms: C9_32  and  C11_36
REMARK   11  A    between atoms: C10_33  and  O4_34
REMARK   12  A    between atoms: C11_36  and  O5_37
REMARK   13  A    between atoms: C12_39  and  N11_40
REMARK   14  A    between atoms: N11_40  and  C13_42
ROOT
HETATM    1  N1  UNL     1       6.199  -6.402  -1.414  1.00  0.00    -0.191 NA
HETATM    2  C1  UNL     1       7.327  -6.362  -1.594  1.00  0.00     0.105 C
HETATM    3  C2  UNL     1       8.741  -6.277  -1.819  1.00  0.00     0.119 A
HETATM    4  C3  UNL     1       9.281  -5.012  -1.909  1.00  0.00     0.169 A
HETATM    5  N9  UNL     1      10.598  -4.858  -2.119  1.00  0.00    -0.319 N
ATOM      6  H9  UNL     1      10.995  -3.922  -2.185  1.00  0.00     0.169 HD
HETATM    7  C6  UNL     1      11.397  -5.934  -2.244  1.00  0.00     0.158 A
HETATM    8  C7  UNL     1      10.915  -7.208  -2.163  1.00  0.00     0.093 A
HETATM    9  C12 UNL     1       9.541  -7.391  -1.944  1.00  0.00     0.077 A
ENDROOT
BRANCH   4  10
HETATM   10  N2  UNL     1       8.508  -3.821  -1.790  1.00  0.00    -0.147 N
HETATM   11  N3  UNL     1       7.828  -3.319  -2.821  1.00  0.00     0.018 NA
HETATM   12  N4  UNL     1       7.199  -2.204  -2.422  1.00  0.00    -0.113 N
HETATM   13  C4  UNL     1       7.489  -2.009  -1.122  1.00  0.00     0.715 A
ATOM     14  H4  UNL     1       6.605  -1.610  -3.000  1.00  0.00     0.203 HD
HETATM   15  N8  UNL     1       8.297  -3.028  -0.778  1.00  0.00    -0.109 N
ATOM     16  H8  UNL     1       8.693  -3.162   0.152  1.00  0.00     0.207 HD
BRANCH  13  17
HETATM   17  N5  UNL     1       7.099  -1.059  -0.332  1.00  0.00    -0.138 N
HETATM   18  C5  UNL     1       7.548   0.265  -0.436  1.00  0.00     0.352 C
HETATM   19  O1  UNL     1       7.198   1.002  -1.391  1.00  0.00    -0.245 OA
HETATM   20  N6  UNL     1       8.420   0.763   0.574  1.00  0.00    -0.258 N
ATOM     21  H6  UNL     1       8.703   0.163   1.349  1.00  0.00     0.191 HD
ATOM     22  H5  UNL     1       6.431  -1.287   0.405  1.00  0.00     0.189 HD
BRANCH  20  23
HETATM   23  N7  UNL     1       8.881   2.067   0.500  1.00  0.00    -0.341 N
ATOM     24  H72 UNL     1       8.938   2.523  -0.412  1.00  0.00     0.177 HD
ATOM     25  H71 UNL     1       9.157   2.554   1.351  1.00  0.00     0.177 HD
ENDBRANCH  20  23
ENDBRANCH  13  17
ENDBRANCH   4  10
BRANCH   9  26
HETATM   26  N11 UNL     1       9.134  -8.558  -1.879  1.00  0.00    -0.343 N
ATOM     27  H11 UNL     1       9.319  -8.927  -0.946  1.00  0.00     0.167 HD
BRANCH  26  28
HETATM   28  C13 UNL     1       8.524  -9.514  -2.628  1.00  0.00     0.105 C
HETATM   29  N12 UNL     1       9.078 -10.324  -3.503  1.00  0.00    -0.355 N
HETATM   30  C14 UNL     1       8.073 -11.191  -4.079  1.00  0.00     0.356 C
ATOM     31  H12 UNL     1      10.070 -10.338  -3.742  1.00  0.00     0.162 HD
HETATM   32  N13 UNL     1       6.879 -10.365  -3.977  1.00  0.00    -0.053 N
HETATM   33  C15 UNL     1       7.049  -9.832  -2.620  1.00  0.00     0.309 C
ATOM     34 2H13 UNL     1       6.755  -9.671  -4.714  1.00  0.00     0.279 HD
ATOM     35 1H13 UNL     1       5.995 -10.839  -4.160  1.00  0.00     0.279 HD
ENDBRANCH  26  28
ENDBRANCH   9  26
BRANCH   8  36
HETATM   36  C8  UNL     1      11.836  -8.332  -2.311  1.00  0.00     0.153 C
BRANCH  36  37
HETATM   37  O3  UNL     1      11.762  -9.052  -3.487  1.00  0.00    -0.346 OA
ATOM     38  H3  UNL     1      12.583  -9.253  -3.922  1.00  0.00     0.219 HD
ENDBRANCH  36  37
BRANCH  36  39
HETATM   39  N10 UNL     1      12.674  -8.658  -1.424  1.00  0.00    -0.361 N
ATOM     40  H10 UNL     1      13.078  -7.873  -0.913  1.00  0.00     0.162 HD
BRANCH  39  41
HETATM   41  C9  UNL     1      13.144  -9.923  -1.024  1.00  0.00     0.130 C
BRANCH  41  42
HETATM   42  C10 UNL     1      12.256 -11.101  -1.327  1.00  0.00     0.191 C
BRANCH  42  43
HETATM   43  O4  UNL     1      12.771 -11.671  -2.517  1.00  0.00    -0.399 OA
ATOM     44  H4  UNL     1      12.246 -11.311  -3.221  1.00  0.00     0.209 HD
ENDBRANCH  42  43
ENDBRANCH  41  42
BRANCH  41  45
HETATM   45  C11 UNL     1      14.514 -10.259  -1.630  1.00  0.00     0.191 C
BRANCH  45  46
HETATM   46  O5  UNL     1      14.652  -9.486  -2.764  1.00  0.00    -0.399 OA
ATOM     47  H5  UNL     1      14.870 -10.077  -3.477  1.00  0.00     0.209 HD
ENDBRANCH  45  46
ENDBRANCH  41  45
ENDBRANCH  39  41
ENDBRANCH  36  39
ENDBRANCH   8  36
BRANCH   7  48
HETATM   48  O2  UNL     1      12.767  -5.689  -2.462  1.00  0.00    -0.345 OA
ATOM     49  H2  UNL     1      13.378  -6.081  -1.849  1.00  0.00     0.219 HD
ENDBRANCH   7  48
TORSDOF 14
ENDMDL