MODEL 1
REMARK VINA RESULT: -6.615421868      0.000      0.000
REMARK  14 active torsions:
REMARK  status: ('A' for Active; 'I' for Inactive)
REMARK    1  A    between atoms: C2_2  and  O1_3
REMARK    2  A    between atoms: C2_2  and  C3_5
REMARK    3  A    between atoms: C4_7  and  C5_8
REMARK    4  A    between atoms: N1_9  and  O3_11
REMARK    5  A    between atoms: C7_14  and  O4_15
REMARK    6  A    between atoms: O4_15  and  C8_16
REMARK    7  A    between atoms: C9_18  and  O6_19
REMARK    8  A    between atoms: O6_19  and  C10_20
REMARK    9  A    between atoms: C11_21  and  N2_22
REMARK   10  A    between atoms: C13_27  and  N3_28
REMARK   11  A    between atoms: C14_32  and  O7_33
REMARK   12  A    between atoms: C15_35  and  O8_36
REMARK   13  A    between atoms: C16_38  and  N4_39
REMARK   14  A    between atoms: C18_44  and  N5_45
ROOT
HETATM    1  C8  UNL     1       9.457 -10.070  -0.947  1.00  0.00     0.293 C
HETATM    2  O5  UNL     1       8.603  -9.466  -1.945  1.00  0.00    -0.327 OA
HETATM    3  C9  UNL     1       7.447  -9.095  -1.276  1.00  0.00     0.294 C
HETATM    4  C16 UNL     1       6.596 -10.349  -1.176  1.00  0.00     0.240 C
HETATM    5  C17 UNL     1       7.516 -11.566  -1.345  1.00  0.00     0.075 C
HETATM    6  C18 UNL     1       8.833 -11.372  -0.660  1.00  0.00     0.240 C
ENDROOT
BRANCH   3   7
HETATM    7  O6  UNL     1       6.821  -7.971  -1.722  1.00  0.00    -0.349 OA
BRANCH   7   8
HETATM    8  C10 UNL     1       7.427  -6.780  -1.475  1.00  0.00     0.186 C
HETATM    9  C11 UNL     1       6.639  -5.849  -0.555  1.00  0.00     0.217 C
HETATM   10  C12 UNL     1       7.423  -4.565  -0.393  1.00  0.00     0.071 C
HETATM   11  C13 UNL     1       7.454  -3.815  -1.704  1.00  0.00     0.216 C
HETATM   12  C14 UNL     1       8.160  -4.696  -2.703  1.00  0.00     0.179 C
HETATM   13  C15 UNL     1       7.554  -6.053  -2.799  1.00  0.00     0.180 C
BRANCH   9  14
HETATM   14  N2  UNL     1       5.329  -5.567  -1.070  1.00  0.00    -0.072 N
ATOM     15  H23 UNL     1       5.379  -5.016  -1.928  1.00  0.00     0.274 HD
ATOM     16  H22 UNL     1       4.888  -6.407  -1.444  1.00  0.00     0.274 HD
ATOM     17  H21 UNL     1       4.734  -5.115  -0.374  1.00  0.00     0.274 HD
ENDBRANCH   9  14
BRANCH  11  18
HETATM   18  N3  UNL     1       8.210  -2.601  -1.550  1.00  0.00    -0.072 N
ATOM     19  H33 UNL     1       8.381  -2.376  -0.569  1.00  0.00     0.274 HD
ATOM     20  H32 UNL     1       9.180  -2.711  -1.846  1.00  0.00     0.274 HD
ATOM     21  H31 UNL     1       7.743  -1.840  -2.042  1.00  0.00     0.274 HD
ENDBRANCH  11  18
BRANCH  12  22
HETATM   22  O7  UNL     1       8.028  -4.105  -3.967  1.00  0.00    -0.391 OA
ATOM     23  H7  UNL     1       8.354  -4.721  -4.613  1.00  0.00     0.210 HD
ENDBRANCH  12  22
BRANCH  13  24
HETATM   24  O8  UNL     1       8.262  -6.809  -3.732  1.00  0.00    -0.390 OA
ATOM     25  H8  UNL     1       8.274  -6.389  -4.583  1.00  0.00     0.210 HD
ENDBRANCH  13  24
ENDBRANCH   7   8
ENDBRANCH   3   7
BRANCH   4  26
HETATM   26  N4  UNL     1       5.869 -10.441   0.072  1.00  0.00    -0.070 N
ATOM     27  H43 UNL     1       6.263  -9.810   0.769  1.00  0.00     0.274 HD
ATOM     28  H42 UNL     1       4.939 -10.033  -0.017  1.00  0.00     0.274 HD
ATOM     29  H41 UNL     1       5.815 -11.394   0.431  1.00  0.00     0.274 HD
ENDBRANCH   4  26
BRANCH   1  30
HETATM   30  O4  UNL     1      10.630  -9.862  -1.307  1.00  0.00    -0.351 OA
BRANCH  30  31
HETATM   31  C7  UNL     1      11.782  -9.658  -1.665  1.00  0.00     0.159 C
HETATM   32  C3  UNL     1      12.587  -8.399  -1.332  1.00  0.00     0.179 C
HETATM   33  O2  UNL     1      13.759  -8.647  -2.092  1.00  0.00    -0.370 OA
HETATM   34  C4  UNL     1      13.973  -9.989  -2.172  1.00  0.00     0.165 C
HETATM   35  C6  UNL     1      12.897 -10.654  -1.333  1.00  0.00     0.072 C
BRANCH  32  36
HETATM   36  C2  UNL     1      11.935  -7.135  -1.845  1.00  0.00     0.145 C
HETATM   37  C1  UNL     1      12.435  -6.000  -0.951  1.00  0.00     0.042 C
BRANCH  36  38
HETATM   38  O1  UNL     1      10.562  -7.167  -1.881  1.00  0.00    -0.393 OA
ATOM     39  H1  UNL     1      10.228  -7.949  -1.458  1.00  0.00     0.210 HD
ENDBRANCH  36  38
ENDBRANCH  32  36
BRANCH  34  40
HETATM   40  C5  UNL     1      15.338 -10.369  -1.755  1.00  0.00     0.118 C
HETATM   41  N1  UNL     1      16.322 -10.288  -2.585  1.00  0.00    -0.282 N
ATOM     42  H1  UNL     1      17.261 -10.553  -2.285  1.00  0.00     0.193 HD
BRANCH  41  43
HETATM   43  O3  UNL     1      16.115  -9.849  -3.865  1.00  0.00    -0.290 OA
ATOM     44  H3  UNL     1      16.306  -8.949  -4.101  1.00  0.00     0.244 HD
ENDBRANCH  41  43
ENDBRANCH  34  40
ENDBRANCH  30  31
ENDBRANCH   1  30
BRANCH   6  45
HETATM   45  N5  UNL     1       8.559 -11.577   0.775  1.00  0.00    -0.070 N
ATOM     46  H53 UNL     1       9.297 -12.128   1.211  1.00  0.00     0.274 HD
ATOM     47  H52 UNL     1       8.671 -10.707   1.294  1.00  0.00     0.274 HD
ATOM     48  H51 UNL     1       7.643 -11.991   0.951  1.00  0.00     0.274 HD
ENDBRANCH   6  45
TORSDOF 14
ENDMDL