MODEL 4
REMARK VINA RESULT: -6.815521883      2.110      4.219
REMARK  13 active torsions:
REMARK  status: ('A' for Active; 'I' for Inactive)
REMARK    1  A    between atoms: N1_2  and  C2_5
REMARK    2  A    between atoms: C5_11  and  C6_12
REMARK    3  A    between atoms: C6_12  and  O1_13
REMARK    4  A    between atoms: C6_12  and  O2_15
REMARK    5  A    between atoms: C7_17  and  C8_18
REMARK    6  A    between atoms: C8_18  and  C9_20
REMARK    7  A    between atoms: C9_20  and  O4_21
REMARK    8  A    between atoms: C9_20  and  O5_23
REMARK    9  A    between atoms: N4_25  and  N5_26
REMARK   10  A    between atoms: C12_32  and  O6_33
REMARK   11  A    between atoms: C13_35  and  N6_36
REMARK   12  A    between atoms: N6_36  and  O7_37
REMARK   13  A    between atoms: C14_39  and  O8_40
ROOT
HETATM    1  C2  UNL     1       7.650  -9.361  -2.845  1.00  0.00     0.245 C
HETATM    2  C3  UNL     1       8.082  -7.929  -2.654  1.00  0.00     0.184 C
HETATM    3  N2  UNL     1       9.514  -7.774  -2.400  1.00  0.00    -0.174 N
HETATM    4  C4  UNL     1      10.478  -8.673  -2.460  1.00  0.00     0.703 A
HETATM    5  N3  UNL     1      11.653  -8.116  -2.144  1.00  0.00    -0.186 N
ATOM      6  H3  UNL     1      12.559  -8.582  -2.110  1.00  0.00     0.184 HD
HETATM    7  C5  UNL     1      11.397  -6.789  -1.872  1.00  0.00     0.112 A
HETATM    8  C7  UNL     1      10.063  -6.548  -2.027  1.00  0.00     0.130 A
HETATM    9  N4  UNL     1      10.403 -10.071  -2.808  1.00  0.00    -0.104 N
HETATM   10  C10 UNL     1       9.538 -10.769  -3.585  1.00  0.00     0.177 C
HETATM   11  S1  UNL     1      10.005 -11.451  -5.203  1.00  0.00    -0.127 SA
HETATM   12  C11 UNL     1       8.257 -12.037  -5.450  1.00  0.00     0.120 C
HETATM   13  C12 UNL     1       7.681 -11.455  -4.176  1.00  0.00     0.126 C
HETATM   14  C13 UNL     1       8.658 -11.859  -3.093  1.00  0.00     0.189 C
HETATM   15  C14 UNL     1       8.255 -10.049  -4.015  1.00  0.00     0.162 C
ENDROOT
BRANCH   8  16
HETATM   16  C8  UNL     1       9.270  -5.342  -1.877  1.00  0.00     0.233 C
HETATM   17  O3  UNL     1       8.615  -5.144  -0.806  1.00  0.00    -0.285 OA
BRANCH  16  18
HETATM   18  C9  UNL     1       9.151  -4.291  -2.891  1.00  0.00     0.332 C
BRANCH  18  19
HETATM   19  O4  UNL     1       8.135  -4.637  -3.837  1.00  0.00    -0.365 OA
ATOM     20  H4  UNL     1       7.767  -5.486  -3.623  1.00  0.00     0.213 HD
ENDBRANCH  18  19
BRANCH  18  21
HETATM   21  O5  UNL     1      10.357  -4.172  -3.582  1.00  0.00    -0.365 OA
ATOM     22  H5  UNL     1      10.672  -3.278  -3.519  1.00  0.00     0.213 HD
ENDBRANCH  18  21
ENDBRANCH  16  18
ENDBRANCH   8  16
BRANCH   7  23
HETATM   23  C6  UNL     1      12.513  -5.930  -1.456  1.00  0.00     0.308 C
BRANCH  23  24
HETATM   24  O1  UNL     1      12.744  -6.114  -0.047  1.00  0.00    -0.366 OA
ATOM     25  H1  UNL     1      11.926  -6.355   0.372  1.00  0.00     0.213 HD
ENDBRANCH  23  24
BRANCH  23  26
HETATM   26  O2  UNL     1      13.723  -6.214  -2.055  1.00  0.00    -0.366 OA
ATOM     27  H2  UNL     1      13.677  -6.391  -2.987  1.00  0.00     0.213 HD
ENDBRANCH  23  26
ENDBRANCH   7  23
BRANCH   1  28
HETATM   28  N1  UNL     1       6.220  -9.430  -2.784  1.00  0.00    -0.070 N
HETATM   29  C1  UNL     1       5.630  -8.126  -2.479  1.00  0.00     0.267 C
ATOM     30  H12 UNL     1       5.910 -10.143  -2.123  1.00  0.00     0.277 HD
ATOM     31  H11 UNL     1       5.829  -9.825  -3.639  1.00  0.00     0.277 HD
ENDBRANCH   1  28
BRANCH   9  32
HETATM   32  N5  UNL     1      11.434 -10.807  -2.215  1.00  0.00    -0.327 N
ATOM     33  H52 UNL     1      11.257 -11.802  -2.081  1.00  0.00     0.177 HD
ATOM     34  H51 UNL     1      12.241 -10.222  -2.000  1.00  0.00     0.177 HD
ENDBRANCH   9  32
BRANCH  15  35
HETATM   35  O8  UNL     1       8.431  -9.346  -5.143  1.00  0.00    -0.376 OA
HETATM   36  C15 UNL     1       7.414  -8.827  -5.849  1.00  0.00     0.202 C
ENDBRANCH  15  35
BRANCH  13  37
HETATM   37  O6  UNL     1       6.366 -11.623  -3.938  1.00  0.00    -0.384 OA
ATOM     38  H6  UNL     1       6.109 -12.202  -3.230  1.00  0.00     0.210 HD
ENDBRANCH  13  37
BRANCH  14  39
HETATM   39  N6  UNL     1       9.287 -13.155  -3.401  1.00  0.00    -0.092 NA
BRANCH  39  40
HETATM   40  O7  UNL     1      10.038 -13.576  -2.359  1.00  0.00    -0.295 OA
ATOM     41  H7  UNL     1      10.586 -14.307  -2.619  1.00  0.00     0.238 HD
ENDBRANCH  39  40
ENDBRANCH  14  39
TORSDOF 13
ENDMDL