MODEL 5
REMARK VINA RESULT: -7.328107327      1.041      1.545
REMARK  10 active torsions:
REMARK  status: ('A' for Active; 'I' for Inactive)
REMARK    1  A    between atoms: O1_2  and  C2_3
REMARK    2  A    between atoms: C3_6  and  C4_7
REMARK    3  A    between atoms: C9_23  and  N6_24
REMARK    4  A    between atoms: N6_24  and  C10_26
REMARK    5  A    between atoms: C10_26  and  C11_27
REMARK    6  A    between atoms: C10_26  and  N8_33
REMARK    7  A    between atoms: C11_27  and  C12_28
REMARK    8  A    between atoms: C12_28  and  N7_29
REMARK    9  A    between atoms: N8_33  and  N9_35
REMARK   10  A    between atoms: C15_44  and  O4_45
ROOT
HETATM    1  C2  UNL     1       8.464  -6.164  -2.127  1.00  0.00     0.176 A
HETATM    2  N1  UNL     1       9.267  -7.280  -2.114  1.00  0.00    -0.319 N
ATOM      3  H1  UNL     1       8.889  -8.164  -1.774  1.00  0.00     0.169 HD
HETATM    4  C3  UNL     1      10.528  -7.230  -2.535  1.00  0.00     0.138 A
HETATM    5  N5  UNL     1      11.006  -6.046  -2.982  1.00  0.00    -0.306 N
ATOM      6  H5  UNL     1      11.972  -6.001  -3.307  1.00  0.00     0.170 HD
HETATM    7  C8  UNL     1      10.259  -4.921  -3.017  1.00  0.00     0.278 A
HETATM    8  O3  UNL     1      10.786  -3.856  -3.451  1.00  0.00    -0.265 OA
HETATM    9  C9  UNL     1       8.953  -4.961  -2.582  1.00  0.00     0.154 A
ENDROOT
BRANCH   9  10
HETATM   10  N6  UNL     1       8.172  -3.809  -2.613  1.00  0.00    -0.337 N
ATOM     11  H6  UNL     1       8.556  -3.012  -2.104  1.00  0.00     0.167 HD
BRANCH  10  12
HETATM   12  C10 UNL     1       7.055  -3.600  -3.179  1.00  0.00     0.098 C
BRANCH  12  13
HETATM   13  C11 UNL     1       6.783  -4.286  -4.464  1.00  0.00     0.105 C
BRANCH  13  14
HETATM   14  C12 UNL     1       5.665  -3.540  -5.157  1.00  0.00     0.237 C
BRANCH  14  15
HETATM   15  N7  UNL     1       6.184  -2.568  -6.108  1.00  0.00    -0.079 N
ATOM     16  H73 UNL     1       6.633  -1.784  -5.634  1.00  0.00     0.274 HD
ATOM     17  H72 UNL     1       6.994  -2.933  -6.610  1.00  0.00     0.274 HD
ATOM     18  H71 UNL     1       5.458  -2.250  -6.750  1.00  0.00     0.274 HD
ENDBRANCH  14  15
ENDBRANCH  13  14
ENDBRANCH  12  13
BRANCH  12  19
HETATM   19  N8  UNL     1       6.071  -2.748  -2.637  1.00  0.00    -0.281 N
ATOM     20  H8  UNL     1       5.094  -2.956  -2.842  1.00  0.00     0.188 HD
BRANCH  19  21
HETATM   21  N9  UNL     1       6.349  -1.636  -1.837  1.00  0.00    -0.215 N
HETATM   22  C13 UNL     1       6.575  -0.394  -2.470  1.00  0.00     0.215 A
HETATM   23  N10 UNL     1       6.487  -0.268  -3.910  1.00  0.00    -0.061 NA
HETATM   24  N11 UNL     1       6.855   0.641  -1.764  1.00  0.00    -0.303 N
HETATM   25  C14 UNL     1       6.953   0.626  -0.352  1.00  0.00     0.194 A
ATOM     26  H11 UNL     1       7.015   1.524  -2.249  1.00  0.00     0.171 HD
HETATM   27  N12 UNL     1       7.273   1.807   0.396  1.00  0.00    -0.063 NA
HETATM   28  N13 UNL     1       6.741  -0.504   0.226  1.00  0.00    -0.320 N
HETATM   29  C15 UNL     1       6.415  -1.739  -0.405  1.00  0.00     0.354 A
ATOM     30  H13 UNL     1       6.813  -0.516   1.244  1.00  0.00     0.166 HD
BRANCH  29  31
HETATM   31  O4  UNL     1       7.280  -2.744   0.023  1.00  0.00    -0.358 OA
ATOM     32  H4  UNL     1       6.900  -3.290   0.700  1.00  0.00     0.214 HD
ENDBRANCH  29  31
ENDBRANCH  19  21
ENDBRANCH  12  19
ENDBRANCH  10  12
ENDBRANCH   9  10
BRANCH   1  33
HETATM   33  O1  UNL     1       7.161  -6.305  -1.670  1.00  0.00    -0.339 OA
HETATM   34  C1  UNL     1       6.903  -6.275  -0.265  1.00  0.00     0.211 C
ENDBRANCH   1  33
BRANCH   4  35
HETATM   35  C4  UNL     1      11.411  -8.417  -2.527  1.00  0.00     0.098 A
HETATM   36  C5  UNL     1      12.374  -8.551  -1.581  1.00  0.00     0.108 A
HETATM   37  C6  UNL     1      13.186  -9.686  -1.602  1.00  0.00     0.261 A
HETATM   38  O2  UNL     1      14.082  -9.817  -0.728  1.00  0.00    -0.268 OA
HETATM   39  N2  UNL     1      13.018 -10.629  -2.543  1.00  0.00    -0.156 N
HETATM   40  C7  UNL     1      12.050 -10.437  -3.450  1.00  0.00     0.679 A
ATOM     41  H2  UNL     1      13.607 -11.462  -2.566  1.00  0.00     0.187 HD
HETATM   42  N3  UNL     1      11.914 -11.375  -4.351  1.00  0.00    -0.234 N
HETATM   43  N4  UNL     1      11.255  -9.370  -3.462  1.00  0.00    -0.188 N
ATOM     44  H32 UNL     1      12.524 -12.192  -4.341  1.00  0.00     0.174 HD
ATOM     45  H31 UNL     1      11.177 -11.229  -5.041  1.00  0.00     0.174 HD
ATOM     46  H4  UNL     1      10.533  -9.277  -4.176  1.00  0.00     0.184 HD
ENDBRANCH   4  35
TORSDOF 10
ENDMDL