MODEL 2
REMARK VINA RESULT: -6.688072807      3.401      5.430
REMARK  11 active torsions:
REMARK  status: ('A' for Active; 'I' for Inactive)
REMARK    1  A    between atoms: O1_2  and  N1_3
REMARK       I    between atoms: C2_5  and  N3_7
REMARK    2  A    between atoms: N3_7  and  C3_9
REMARK    3  A    between atoms: N5_13  and  N6_14
REMARK    4  A    between atoms: C6_17  and  O2_18
REMARK    5  A    between atoms: C8_24  and  C9_25
REMARK    6  A    between atoms: C9_25  and  O3_27
REMARK    7  A    between atoms: C11_29  and  O4_30
REMARK    8  A    between atoms: O4_30  and  C12_31
REMARK    9  A    between atoms: C12_31  and  O5_32
REMARK   10  A    between atoms: O5_32  and  C13_33
REMARK   11  A    between atoms: N9_36  and  O7_37
ROOT
HETATM    1  C3  UNL     1      10.021  -6.107  -2.497  1.00  0.00     0.219 C
HETATM    2  C4  UNL     1       9.235  -7.422  -2.635  1.00  0.00     0.154 C
HETATM    3  C5  UNL     1      10.107  -8.283  -1.707  1.00  0.00     0.171 C
HETATM    4  N4  UNL     1      11.396  -7.929  -2.195  1.00  0.00    -0.132 NA
HETATM    5  N5  UNL     1      11.335  -6.513  -2.076  1.00  0.00    -0.125 NA
HETATM    6  C6  UNL     1       9.736  -9.713  -1.701  1.00  0.00     0.180 C
HETATM    7  S1  UNL     1       8.216  -9.800  -2.758  1.00  0.00    -0.080 SA
HETATM    8  C7  UNL     1       8.922  -9.149  -4.301  1.00  0.00     0.250 C
HETATM    9  N7  UNL     1      10.125  -9.902  -4.571  1.00  0.00    -0.362 N
ATOM     10  H7  UNL     1      10.488  -9.855  -5.523  1.00  0.00     0.162 HD
HETATM   11  C8  UNL     1      10.845 -10.689  -3.667  1.00  0.00     0.069 C
HETATM   12  C11 UNL     1      10.695 -10.631  -2.354  1.00  0.00     0.120 C
HETATM   13  N9  UNL     1       9.352  -7.793  -4.013  1.00  0.00    -0.157 NA
ENDROOT
BRANCH   1  14
HETATM   14  N3  UNL     1       9.372  -5.339  -1.430  1.00  0.00    -0.342 N
HETATM   15  C2  UNL     1       8.645  -4.150  -1.713  1.00  0.00     0.209 C
HETATM   16  N1  UNL     1       8.020  -4.025  -2.832  1.00  0.00    -0.239 N
HETATM   17  N2  UNL     1       8.575  -3.069  -0.792  1.00  0.00    -0.062 NA
ATOM     18  H1  UNL     1       8.064  -4.797  -3.498  1.00  0.00     0.197 HD
ATOM     19  H3  UNL     1       9.445  -5.664  -0.467  1.00  0.00     0.164 HD
BRANCH  16  20
HETATM   20  O1  UNL     1       7.308  -2.926  -3.174  1.00  0.00    -0.283 OA
HETATM   21  C1  UNL     1       6.272  -2.862  -4.108  1.00  0.00     0.237 C
ENDBRANCH  16  20
ENDBRANCH   1  14
BRANCH   5  22
HETATM   22  N6  UNL     1      12.369  -5.883  -2.723  1.00  0.00    -0.347 NA
ATOM     23  H62 UNL     1      12.090  -4.993  -3.135  1.00  0.00     0.172 HD
ATOM     24  H61 UNL     1      13.190  -5.703  -2.146  1.00  0.00     0.172 HD
ENDBRANCH   5  22
BRANCH  13  25
HETATM   25  O7  UNL     1      10.554  -7.516  -4.520  1.00  0.00    -0.310 OA
ATOM     26  H7  UNL     1      11.079  -8.294  -4.661  1.00  0.00     0.237 HD
ENDBRANCH  13  25
BRANCH   6  27
HETATM   27  O2  UNL     1       9.340 -10.097  -0.449  1.00  0.00    -0.371 OA
ATOM     28  H2  UNL     1       8.741 -10.832  -0.503  1.00  0.00     0.212 HD
ENDBRANCH   6  27
BRANCH  12  29
HETATM   29  O4  UNL     1      11.444 -11.442  -1.566  1.00  0.00    -0.324 OA
BRANCH  29  30
HETATM   30  C12 UNL     1      12.533 -11.094  -0.769  1.00  0.00     0.356 C
BRANCH  30  31
HETATM   31  O5  UNL     1      13.771 -11.262  -1.434  1.00  0.00    -0.280 OA
BRANCH  31  32
HETATM   32  C13 UNL     1      14.614 -10.239  -1.781  1.00  0.00     0.374 C
HETATM   33  N8  UNL     1      16.002 -10.394  -2.039  1.00  0.00    -0.032 NA
HETATM   34  O6  UNL     1      14.129  -9.072  -1.881  1.00  0.00    -0.242 OA
ENDBRANCH  31  32
ENDBRANCH  30  31
ENDBRANCH  29  30
ENDBRANCH  12  29
BRANCH  11  35
HETATM   35  C9  UNL     1      11.851 -11.661  -4.232  1.00  0.00     0.166 C
HETATM   36  C10 UNL     1      11.452 -11.867  -5.679  1.00  0.00     0.046 C
BRANCH  35  37
HETATM   37  O3  UNL     1      11.896 -12.828  -3.517  1.00  0.00    -0.390 OA
ATOM     38  H3  UNL     1      12.209 -13.555  -4.041  1.00  0.00     0.210 HD
ENDBRANCH  35  37
ENDBRANCH  11  35
TORSDOF 11
ENDMDL