MODEL 2
REMARK VINA RESULT: -6.710295039      3.866      9.660
REMARK  14 active torsions:
REMARK  status: ('A' for Active; 'I' for Inactive)
REMARK    1  A    between atoms: C2_2  and  C4_4
REMARK    2  A    between atoms: C4_4  and  O1_6
REMARK    3  A    between atoms: C4_4  and  C6_8
REMARK    4  A    between atoms: C6_8  and  O2_9
REMARK    5  A    between atoms: C6_8  and  C7_11
REMARK    6  A    between atoms: C7_11  and  O3_12
REMARK    7  A    between atoms: O3_12  and  N1_13
REMARK    8  A    between atoms: N1_13  and  C8_15
REMARK    9  A    between atoms: C8_15  and  O4_16
REMARK   10  A    between atoms: C8_15  and  N2_18
REMARK   11  A    between atoms: N2_18  and  C9_20
REMARK   12  A    between atoms: C14_30  and  N6_31
REMARK   13  A    between atoms: N6_31  and  N7_33
REMARK   14  A    between atoms: N11_44  and  N12_45
ROOT
HETATM    1  C9  UNL     1      10.116  -7.180  -2.647  1.00  0.00     0.173 A
HETATM    2  C10 UNL     1       9.093  -7.826  -3.346  1.00  0.00     0.176 A
HETATM    3  N3  UNL     1       7.869  -7.356  -3.715  1.00  0.00    -0.281 N
ATOM      4  H3  UNL     1       7.505  -6.422  -3.526  1.00  0.00     0.188 HD
HETATM    5  N4  UNL     1       7.241  -8.307  -4.353  1.00  0.00    -0.294 N
ATOM      6  H4  UNL     1       6.302  -8.239  -4.745  1.00  0.00     0.187 HD
HETATM    7  C11 UNL     1       8.056  -9.418  -4.408  1.00  0.00     0.208 A
HETATM    8  N5  UNL     1       9.175  -9.085  -3.784  1.00  0.00    -0.271 N
HETATM    9  C12 UNL     1      10.305  -9.793  -3.546  1.00  0.00     0.165 A
HETATM   10  C13 UNL     1      11.340  -9.151  -2.843  1.00  0.00     0.149 A
HETATM   11  C14 UNL     1      12.500  -9.835  -2.580  1.00  0.00     0.168 A
HETATM   12  N8  UNL     1      12.615 -11.093  -2.999  1.00  0.00    -0.173 N
ATOM     13  H8  UNL     1      13.472 -11.612  -2.809  1.00  0.00     0.186 HD
HETATM   14  C15 UNL     1      11.627 -11.678  -3.661  1.00  0.00     0.681 A
HETATM   15  N9  UNL     1      11.722 -12.916  -4.081  1.00  0.00    -0.234 N
ATOM     16  H91 UNL     1      10.961 -13.366  -4.590  1.00  0.00     0.174 HD
ATOM     17  H92 UNL     1      12.605 -13.375  -3.858  1.00  0.00     0.174 HD
HETATM   18  N10 UNL     1      10.438 -11.060  -3.962  1.00  0.00    -0.170 N
HETATM   19  C16 UNL     1       9.438 -11.769  -4.676  1.00  0.00     0.177 C
HETATM   20  N11 UNL     1      11.227  -7.882  -2.416  1.00  0.00    -0.235 N
ENDROOT
BRANCH   1  21
HETATM   21  N2  UNL     1       9.931  -6.005  -2.285  1.00  0.00    -0.328 N
ATOM     22  H2  UNL     1       9.514  -5.983  -1.354  1.00  0.00     0.165 HD
BRANCH  21  23
HETATM   23  C8  UNL     1      10.119  -4.709  -2.760  1.00  0.00     0.348 C
BRANCH  23  24
HETATM   24  N1  UNL     1       9.369  -3.764  -1.970  1.00  0.00    -0.256 N
ATOM     25  H1  UNL     1       9.784  -2.905  -1.609  1.00  0.00     0.192 HD
BRANCH  24  26
HETATM   26  O3  UNL     1       8.114  -4.084  -1.745  1.00  0.00    -0.279 OA
BRANCH  26  27
HETATM   27  C7  UNL     1       7.407  -3.368  -0.827  1.00  0.00     0.235 C
BRANCH  27  28
HETATM   28  C6  UNL     1       6.679  -2.216  -1.501  1.00  0.00     0.178 C
BRANCH  28  29
HETATM   29  C4  UNL     1       7.175  -0.871  -1.085  1.00  0.00     0.085 C
HETATM   30  C5  UNL     1       6.779   0.176  -2.122  1.00  0.00     0.049 C
BRANCH  29  31
HETATM   31  C2  UNL     1       6.722  -0.415   0.261  1.00  0.00     0.014 C
HETATM   32  C1  UNL     1       6.979   1.048   0.489  1.00  0.00     0.012 C
HETATM   33  C3  UNL     1       5.202  -0.604   0.309  1.00  0.00     0.012 C
ENDBRANCH  29  31
BRANCH  29  34
HETATM   34  O1  UNL     1       8.566  -0.915  -1.091  1.00  0.00    -0.387 OA
ATOM     35  H1  UNL     1       8.860  -1.045  -1.986  1.00  0.00     0.210 HD
ENDBRANCH  29  34
ENDBRANCH  28  29
BRANCH  28  36
HETATM   36  O2  UNL     1       6.822  -2.370  -2.857  1.00  0.00    -0.390 OA
ATOM     37  H2  UNL     1       7.485  -3.024  -3.041  1.00  0.00     0.210 HD
ENDBRANCH  28  36
ENDBRANCH  27  28
ENDBRANCH  26  27
ENDBRANCH  24  26
ENDBRANCH  23  24
BRANCH  23  38
HETATM   38  O4  UNL     1      11.474  -4.296  -2.683  1.00  0.00    -0.358 OA
ATOM     39  H4  UNL     1      11.990  -5.092  -2.640  1.00  0.00     0.214 HD
ENDBRANCH  23  38
ENDBRANCH  21  23
ENDBRANCH   1  21
BRANCH  20  40
HETATM   40  N12 UNL     1      12.298  -7.314  -1.730  1.00  0.00    -0.336 N
ATOM     41 2H12 UNL     1      12.132  -6.468  -1.183  1.00  0.00     0.177 HD
ATOM     42 1H12 UNL     1      13.226  -7.735  -1.771  1.00  0.00     0.177 HD
ENDBRANCH  20  40
BRANCH  11  43
HETATM   43  N6  UNL     1      13.464  -9.252  -1.929  1.00  0.00    -0.290 N
ATOM     44  H6  UNL     1      13.264  -8.622  -1.153  1.00  0.00     0.188 HD
BRANCH  43  45
HETATM   45  N7  UNL     1      14.783  -9.510  -2.317  1.00  0.00    -0.344 N
ATOM     46  H72 UNL     1      15.011 -10.388  -2.786  1.00  0.00     0.176 HD
ATOM     47  H71 UNL     1      15.494  -8.807  -2.120  1.00  0.00     0.176 HD
ENDBRANCH  43  45
ENDBRANCH  11  43
TORSDOF 14
ENDMDL