MODEL 3
REMARK VINA RESULT: -7.814070273      1.182      1.222
REMARK  4 active torsions:
REMARK  status: ('A' for Active; 'I' for Inactive)
REMARK    1  A    between atoms: C2_2  and  C5_5
REMARK    2  A    between atoms: C7_7  and  C8_8
REMARK    3  A    between atoms: C8_8  and  N1_9
REMARK    4  A    between atoms: C15_16  and  C16_17
ROOT
HETATM    1  N1  UNL     1       5.098  13.926 -43.056  1.00  0.00    -0.348 N
HETATM    2  C9  UNL     1       5.038  12.583 -43.390  1.00  0.00     0.071 C
HETATM    3  C10 UNL     1       3.703  12.347 -44.093  1.00  0.00     0.083 C
HETATM    4  C11 UNL     1       3.743  13.093 -45.372  1.00  0.00     0.073 C
HETATM    5  C12 UNL     1       4.245  14.486 -45.288  1.00  0.00     0.083 C
HETATM    6  C13 UNL     1       4.915  14.910 -44.028  1.00  0.00     0.071 C
HETATM    7  C14 UNL     1       2.379  12.973 -46.053  1.00  0.00     0.079 C
HETATM    8  C15 UNL     1       3.186  12.492 -47.241  1.00  0.00     0.200 C
HETATM    9  O2  UNL     1       4.310  12.420 -46.455  1.00  0.00    -0.366 OA
ENDROOT
BRANCH   1  10
HETATM   10  C8  UNL     1       5.446  14.343 -41.762  1.00  0.00     0.126 C
BRANCH  10  11
HETATM   11  C7  UNL     1       4.370  14.187 -40.761  1.00  0.00     0.073 A
HETATM   12  C6  UNL     1       3.115  14.820 -40.808  1.00  0.00     0.068 A
HETATM   13  C5  UNL     1       2.405  14.415 -39.693  1.00  0.00     0.086 A
HETATM   14  O3  UNL     1       3.177  13.595 -39.023  1.00  0.00    -0.241 OA
HETATM   15  N3  UNL     1       4.324  13.461 -39.642  1.00  0.00    -0.260 N
ATOM     16  H3  UNL     1       5.089  12.873 -39.309  1.00  0.00     0.195 HD
BRANCH  13  17
HETATM   17  C2  UNL     1       1.052  14.876 -39.407  1.00  0.00     0.000 C
HETATM   18  C1  UNL     1       1.040  15.502 -38.011  1.00  0.00     0.021 C
HETATM   19  C3  UNL     1       0.559  15.879 -40.401  1.00  0.00     0.021 C
HETATM   20  C4  UNL     1       0.083  13.680 -39.365  1.00  0.00     0.021 C
ENDBRANCH  13  17
ENDBRANCH  10  11
ENDBRANCH   1  10
BRANCH   8  21
HETATM   21  C16 UNL     1       3.205  13.563 -48.292  1.00  0.00     0.152 A
HETATM   22  N2  UNL     1       4.340  13.943 -48.899  1.00  0.00    -0.346 N
HETATM   23  C17 UNL     1       4.022  14.909 -49.772  1.00  0.00     0.114 A
ATOM     24  H2  UNL     1       5.272  13.567 -48.728  1.00  0.00     0.167 HD
HETATM   25  C18 UNL     1       2.655  15.101 -49.674  1.00  0.00     0.161 A
HETATM   26  O1  UNL     1       2.201  14.267 -48.768  1.00  0.00    -0.306 OA
ENDBRANCH   8  21
TORSDOF 4
ENDMDL