MODEL 3
REMARK VINA RESULT: -6.845067176      1.768      2.215
REMARK  4 active torsions:
REMARK  status: ('A' for Active; 'I' for Inactive)
REMARK    1  A    between atoms: C5_5  and  C6_6
REMARK    2  A    between atoms: N3_14  and  C9_15
REMARK    3  A    between atoms: C9_15  and  O1_16
REMARK    4  A    between atoms: C10_18  and  C11_19
ROOT
HETATM    1  C1  UNL     1       4.268  20.871 -38.921  1.00  0.00     0.011 C
HETATM    2  C2  UNL     1       4.634  19.742 -39.819  1.00  0.00    -0.000 C
HETATM    3  C3  UNL     1       5.922  20.019 -40.605  1.00  0.00     0.008 C
HETATM    4  C4  UNL     1       6.074  18.902 -41.553  1.00  0.00     0.033 C
HETATM    5  C5  UNL     1       5.923  17.517 -41.011  1.00  0.00     0.145 C
HETATM    6  N3  UNL     1       5.058  17.341 -39.870  1.00  0.00    -0.351 N
HETATM    7  C16 UNL     1       4.986  18.481 -38.999  1.00  0.00     0.130 C
ENDROOT
BRANCH   6   8
HETATM    8  C9  UNL     1       4.405  16.143 -39.557  1.00  0.00     0.135 C
HETATM    9  C10 UNL     1       3.165  15.518 -39.878  1.00  0.00     0.033 C
BRANCH   8  10
HETATM   10  O1  UNL     1       5.148  15.388 -38.743  1.00  0.00    -0.346 OA
ATOM     11  H1  UNL     1       5.166  14.484 -39.035  1.00  0.00     0.219 HD
ENDBRANCH   8  10
BRANCH   9  12
HETATM   12  C11 UNL     1       2.235  15.931 -40.927  1.00  0.00     0.012 C
HETATM   13  C12 UNL     1       1.670  17.308 -40.433  1.00  0.00     0.009 C
HETATM   14  C13 UNL     1       0.621  16.911 -39.420  1.00  0.00     0.001 C
HETATM   15  C14 UNL     1       0.084  15.565 -39.853  1.00  0.00     0.001 C
HETATM   16  C15 UNL     1       0.932  15.179 -41.016  1.00  0.00     0.009 C
ENDBRANCH   9  12
ENDBRANCH   6   8
BRANCH   5  17
HETATM   17  C6  UNL     1       5.488  16.650 -42.179  1.00  0.00     0.092 A
HETATM   18  N1  UNL     1       4.662  16.959 -43.164  1.00  0.00    -0.292 N
HETATM   19  N2  UNL     1       4.377  16.105 -44.057  1.00  0.00    -0.279 N
ATOM     20  H1  UNL     1       4.250  17.890 -43.206  1.00  0.00     0.187 HD
HETATM   21  C7  UNL     1       3.457  16.395 -45.197  1.00  0.00     0.179 C
HETATM   22  C8  UNL     1       4.930  14.889 -43.979  1.00  0.00     0.161 A
HETATM   23  S1  UNL     1       4.730  13.600 -45.003  1.00  0.00    -0.051 SA
HETATM   24  S2  UNL     1       5.879  15.022 -42.566  1.00  0.00    -0.042 SA
ENDBRANCH   5  17
TORSDOF 4
ENDMDL