MODEL 5
REMARK VINA RESULT: -7.117484112      3.721      7.837
REMARK  5 active torsions:
REMARK  status: ('A' for Active; 'I' for Inactive)
REMARK    1  A    between atoms: C5_7  and  C6_8
REMARK    2  A    between atoms: C6_8  and  N2_9
REMARK    3  A    between atoms: N2_9  and  C8_11
REMARK       I    between atoms: N3_14  and  C11_15
REMARK    4  A    between atoms: C11_15  and  O2_17
REMARK    5  A    between atoms: O2_17  and  C12_18
ROOT
HETATM    1  C12 UNL     1       3.057  10.653 -44.651  1.00  0.00     0.235 C
HETATM    2  C13 UNL     1       2.331  11.638 -45.536  1.00  0.00     0.056 C
HETATM    3  C14 UNL     1       2.873   9.323 -45.230  1.00  0.00     0.091 C
HETATM    4  N4  UNL     1       2.737   8.264 -45.676  1.00  0.00    -0.195 NA
ENDROOT
BRANCH   1   5
HETATM    5  O2  UNL     1       4.461  10.906 -44.643  1.00  0.00    -0.284 OA
BRANCH   5   6
HETATM    6  C11 UNL     1       4.909  12.177 -44.933  1.00  0.00     0.364 C
HETATM    7  N3  UNL     1       4.939  13.203 -43.954  1.00  0.00    -0.328 N
HETATM    8  C10 UNL     1       4.483  12.894 -42.615  1.00  0.00     0.130 C
HETATM    9  C15 UNL     1       5.399  14.528 -44.230  1.00  0.00     0.130 C
HETATM   10  C9  UNL     1       3.526  13.964 -42.134  1.00  0.00     0.045 C
HETATM   11  C8  UNL     1       4.110  15.352 -42.327  1.00  0.00     0.086 C
HETATM   12  C16 UNL     1       4.392  15.577 -43.791  1.00  0.00     0.045 C
HETATM   13  O1  UNL     1       5.300  12.425 -46.093  1.00  0.00    -0.238 OA
BRANCH  11  14
HETATM   14  N2  UNL     1       3.253  16.283 -41.708  1.00  0.00    -0.388 N
HETATM   15  C7  UNL     1       3.368  17.643 -42.086  1.00  0.00     0.149 C
BRANCH  14  16
HETATM   16  C6  UNL     1       2.011  15.852 -41.211  1.00  0.00     0.106 C
BRANCH  16  17
HETATM   17  C5  UNL     1       2.018  16.069 -39.716  1.00  0.00     0.044 A
HETATM   18  C3  UNL     1       1.229  16.919 -38.977  1.00  0.00     0.024 A
HETATM   19  N1  UNL     1       1.412  16.937 -37.697  1.00  0.00    -0.357 N
HETATM   20  C4  UNL     1       0.198  17.783 -39.689  1.00  0.00     0.069 C
HETATM   21  C2  UNL     1       2.330  16.156 -37.149  1.00  0.00     0.048 A
ATOM     22  H1  UNL     1       0.849  17.553 -37.109  1.00  0.00     0.166 HD
HETATM   23  C1  UNL     1       2.695  16.029 -35.686  1.00  0.00     0.076 C
HETATM   24  S1  UNL     1       2.981  15.344 -38.504  1.00  0.00    -0.074 SA
ENDBRANCH  16  17
ENDBRANCH  14  16
ENDBRANCH  11  14
ENDBRANCH   5   6
ENDBRANCH   1   5
TORSDOF 5
ENDMDL