MODEL 5
REMARK VINA RESULT: -7.728885339      3.262      4.928
REMARK  3 active torsions:
REMARK  status: ('A' for Active; 'I' for Inactive)
REMARK    1  A    between atoms: C2_2  and  C3_3
REMARK    2  A    between atoms: C3_3  and  C4_4
REMARK    3  A    between atoms: C7_9  and  N2_10
ROOT
HETATM    1  C4  UNL     1       2.288  11.588 -44.881  1.00  0.00     0.104 A
HETATM    2  N1  UNL     1       1.518  12.661 -44.645  1.00  0.00    -0.352 N
ATOM      3  H1  UNL     1       0.596  12.843 -45.042  1.00  0.00     0.166 HD
HETATM    4  C5  UNL     1       2.178  13.441 -43.802  1.00  0.00     0.125 A
HETATM    5  C6  UNL     1       3.378  12.835 -43.513  1.00  0.00     0.117 A
HETATM    6  C7  UNL     1       4.432  13.241 -42.681  1.00  0.00     0.135 A
HETATM    7  N3  UNL     1       5.487  12.439 -42.594  1.00  0.00    -0.336 N
ATOM      8  H3  UNL     1       6.274  12.702 -42.001  1.00  0.00     0.168 HD
HETATM    9  C18 UNL     1       5.526  11.277 -43.286  1.00  0.00     0.199 A
HETATM   10  N4  UNL     1       4.515  10.889 -44.084  1.00  0.00    -0.288 N
ATOM     11  H4  UNL     1       4.566  10.009 -44.597  1.00  0.00     0.188 HD
HETATM   12  N5  UNL     1       3.435  11.682 -44.192  1.00  0.00    -0.238 N
ENDROOT
BRANCH   6  13
HETATM   13  N2  UNL     1       4.325  14.477 -41.980  1.00  0.00    -0.363 N
HETATM   14  C8  UNL     1       4.653  15.674 -42.699  1.00  0.00     0.139 C
HETATM   15  C9  UNL     1       3.364  16.460 -42.932  1.00  0.00     0.062 C
HETATM   16  C10 UNL     1       3.577  17.658 -43.791  1.00  0.00     0.023 C
HETATM   17  S1  UNL     1       2.784  16.915 -41.251  1.00  0.00    -0.151 SA
HETATM   18  C11 UNL     1       2.727  15.368 -40.321  1.00  0.00     0.025 C
HETATM   19  C12 UNL     1       2.730  15.609 -38.827  1.00  0.00     0.022 C
HETATM   20  C16 UNL     1       1.405  14.694 -40.649  1.00  0.00     0.022 C
HETATM   21  C17 UNL     1       3.905  14.464 -40.621  1.00  0.00     0.145 C
HETATM   22  C13 UNL     1       1.460  16.170 -38.304  1.00  0.00     0.002 C
HETATM   23  C14 UNL     1       0.490  16.631 -39.332  1.00  0.00     0.000 C
HETATM   24  C15 UNL     1       0.304  15.707 -40.481  1.00  0.00     0.002 C
ENDBRANCH   6  13
BRANCH   1  25
HETATM   25  C3  UNL     1       1.938  10.443 -45.779  1.00  0.00     0.078 C
BRANCH  25  26
HETATM   26  C2  UNL     1       0.470  10.092 -45.630  1.00  0.00     0.003 C
HETATM   27  C1  UNL     1       0.123   8.831 -46.351  1.00  0.00     0.005 C
ENDBRANCH  25  26
ENDBRANCH   1  25
TORSDOF 3
ENDMDL