MODEL 1
REMARK VINA RESULT: -8.057103113      0.000      0.000
REMARK  3 active torsions:
REMARK  status: ('A' for Active; 'I' for Inactive)
REMARK    1  A    between atoms: N1_2  and  C3_4
REMARK    2  A    between atoms: C4_7  and  C5_8
REMARK    3  A    between atoms: C6_11  and  C7_12
ROOT
HETATM    1  C3  UNL     1       4.520  13.733 -43.737  1.00  0.00     0.113 A
HETATM    2  N2  UNL     1       4.132  14.392 -42.631  1.00  0.00    -0.326 N
ATOM      3  H2  UNL     1       3.814  13.850 -41.828  1.00  0.00     0.169 HD
HETATM    4  C4  UNL     1       4.143  15.726 -42.535  1.00  0.00     0.136 A
HETATM    5  N5  UNL     1       4.565  16.397 -43.605  1.00  0.00    -0.343 N
ATOM      6  H5  UNL     1       4.585  17.416 -43.558  1.00  0.00     0.167 HD
HETATM    7  C15 UNL     1       4.976  15.793 -44.764  1.00  0.00     0.031 A
HETATM    8  C16 UNL     1       4.960  14.471 -44.849  1.00  0.00     0.018 A
HETATM    9  C17 UNL     1       5.413  13.865 -46.120  1.00  0.00     0.118 C
HETATM   10  S1  UNL     1       5.407  15.286 -47.254  1.00  0.00    -0.158 SA
HETATM   11  C18 UNL     1       5.443  16.548 -45.942  1.00  0.00     0.132 C
ENDROOT
BRANCH   4  12
HETATM   12  C5  UNL     1       3.719  16.436 -41.329  1.00  0.00     0.101 A
HETATM   13  N3  UNL     1       4.467  17.314 -40.637  1.00  0.00    -0.341 N
HETATM   14  C6  UNL     1       3.781  17.783 -39.585  1.00  0.00     0.088 A
ATOM     15  H3  UNL     1       5.421  17.585 -40.879  1.00  0.00     0.167 HD
HETATM   16  N4  UNL     1       2.566  17.180 -39.621  1.00  0.00    -0.338 N
HETATM   17  C10 UNL     1       2.513  16.367 -40.664  1.00  0.00     0.043 A
HETATM   18  C14 UNL     1       1.428  17.330 -38.706  1.00  0.00     0.130 C
HETATM   19  C11 UNL     1       1.335  15.556 -40.996  1.00  0.00     0.060 C
HETATM   20  C12 UNL     1       0.118  15.840 -40.175  1.00  0.00     0.008 C
HETATM   21  C13 UNL     1       0.158  17.203 -39.521  1.00  0.00     0.021 C
BRANCH  14  22
HETATM   22  C7  UNL     1       4.210  18.760 -38.559  1.00  0.00     0.054 A
HETATM   23  C8  UNL     1       3.709  20.161 -38.609  1.00  0.00     0.013 A
HETATM   24  C9  UNL     1       5.076  19.932 -39.097  1.00  0.00     0.013 A
ENDBRANCH  14  22
ENDBRANCH   4  12
BRANCH   1  25
HETATM   25  N1  UNL     1       4.482  12.296 -43.772  1.00  0.00    -0.375 N
HETATM   26  C1  UNL     1       5.560  11.495 -43.226  1.00  0.00     0.150 C
HETATM   27  C2  UNL     1       3.356  11.598 -44.361  1.00  0.00     0.150 C
ENDBRANCH   1  25
TORSDOF 3
ENDMDL