MODEL 1
REMARK VINA RESULT: -7.934334539      0.000      0.000
REMARK  3 active torsions:
REMARK  status: ('A' for Active; 'I' for Inactive)
REMARK    1  A    between atoms: C4_8  and  N3_9
REMARK    2  A    between atoms: C11_16  and  C12_17
REMARK    3  A    between atoms: C12_17  and  C13_18
ROOT
HETATM    1  C1  UNL     1       6.382  20.024 -39.229  1.00  0.00     0.092 C
HETATM    2  C2  UNL     1       5.893  19.409 -40.478  1.00  0.00     0.116 A
HETATM    3  N1  UNL     1       6.572  19.410 -41.650  1.00  0.00    -0.286 N
ATOM      4  H1  UNL     1       7.490  19.826 -41.803  1.00  0.00     0.188 HD
HETATM    5  N2  UNL     1       5.849  18.785 -42.560  1.00  0.00    -0.281 N
ATOM      6  H2  UNL     1       6.127  18.647 -43.531  1.00  0.00     0.188 HD
HETATM    7  C3  UNL     1       4.698  18.357 -42.026  1.00  0.00     0.170 A
HETATM    8  C4  UNL     1       3.623  17.658 -42.578  1.00  0.00     0.080 A
HETATM    9  C10 UNL     1       2.596  17.402 -41.681  1.00  0.00     0.060 A
HETATM   10  C11 UNL     1       2.637  17.805 -40.357  1.00  0.00     0.037 A
HETATM   11  N4  UNL     1       3.707  18.460 -39.938  1.00  0.00    -0.294 N
ATOM     12  H4  UNL     1       3.746  18.759 -38.964  1.00  0.00     0.187 HD
HETATM   13  N5  UNL     1       4.734  18.744 -40.735  1.00  0.00    -0.223 N
ENDROOT
BRANCH  10  14
HETATM   14  C12 UNL     1       1.426  17.448 -39.546  1.00  0.00     0.007 A
HETATM   15  C18 UNL     1       0.317  18.413 -39.626  1.00  0.00     0.017 A
HETATM   16  C19 UNL     1       1.128  18.458 -38.387  1.00  0.00     0.017 A
BRANCH  14  17
HETATM   17  C13 UNL     1       1.309  16.046 -39.032  1.00  0.00     0.004 C
HETATM   18  C14 UNL     1       0.179  15.339 -39.731  1.00  0.00     0.032 C
HETATM   19  C15 UNL     1       0.438  13.834 -39.556  1.00  0.00     0.168 C
HETATM   20  O1  UNL     1       0.934  13.542 -38.315  1.00  0.00    -0.391 OA
HETATM   21  C16 UNL     1       2.220  14.022 -38.068  1.00  0.00     0.168 C
HETATM   22  C17 UNL     1       2.539  15.228 -38.975  1.00  0.00     0.032 C
ENDBRANCH  14  17
ENDBRANCH  10  14
BRANCH   8  23
HETATM   23  N3  UNL     1       3.546  17.243 -43.927  1.00  0.00    -0.378 N
HETATM   24  C5  UNL     1       3.696  15.795 -44.163  1.00  0.00     0.123 C
HETATM   25  C6  UNL     1       2.825  15.380 -45.356  1.00  0.00     0.020 C
HETATM   26  C7  UNL     1       3.417  16.083 -46.541  1.00  0.00     0.003 C
HETATM   27  C8  UNL     1       3.264  17.554 -46.382  1.00  0.00     0.020 C
HETATM   28  C9  UNL     1       3.329  18.125 -45.015  1.00  0.00     0.123 C
ENDBRANCH   8  23
TORSDOF 3
ENDMDL