MODEL 4
REMARK VINA RESULT: -7.237827364      1.568      2.100
REMARK  3 active torsions:
REMARK  status: ('A' for Active; 'I' for Inactive)
REMARK    1  A    between atoms: C2_2  and  C4_4
REMARK    2  A    between atoms: C4_4  and  C5_5
REMARK    3  A    between atoms: C5_5  and  C6_6
ROOT
HETATM    1  C6  UNL     1       4.461  16.843 -41.078  1.00  0.00     0.019 C
HETATM    2  C7  UNL     1       5.497  16.274 -41.966  1.00  0.00     0.051 C
HETATM    3  C8  UNL     1       5.860  14.871 -41.792  1.00  0.00     0.073 C
HETATM    4  N1  UNL     1       4.921  13.854 -41.992  1.00  0.00    -0.314 N
HETATM    5  S1  UNL     1       5.702  12.255 -42.178  1.00  0.00     0.040 SA
HETATM    6  C9  UNL     1       4.694  11.502 -43.428  1.00  0.00     0.236 A
HETATM    7  N2  UNL     1       4.269  10.685 -44.271  1.00  0.00    -0.345 N
ATOM      8  H2  UNL     1       4.790   9.820 -44.417  1.00  0.00     0.163 HD
HETATM    9  C10 UNL     1       3.026  10.921 -45.076  1.00  0.00     0.150 A
HETATM   10  C11 UNL     1       2.064   9.781 -44.820  1.00  0.00     0.044 C
HETATM   11  S2  UNL     1       2.127  12.533 -44.773  1.00  0.00    -0.075 SA
HETATM   12  C12 UNL     1       3.096  13.316 -43.526  1.00  0.00     0.152 A
HETATM   13  N3  UNL     1       3.841  12.458 -43.489  1.00  0.00    -0.374 NA
HETATM   14  C13 UNL     1       3.627  14.237 -42.533  1.00  0.00     0.203 C
HETATM   15  C14 UNL     1       2.658  14.229 -41.383  1.00  0.00     0.282 A
HETATM   16  C15 UNL     1       1.770  15.483 -41.374  1.00  0.00     0.311 A
HETATM   17  N4  UNL     1       2.734  15.205 -40.413  1.00  0.00     0.100 N
HETATM   18  C16 UNL     1       3.896  15.871 -40.074  1.00  0.00     0.278 C
ENDROOT
BRANCH   1  19
HETATM   19  C5  UNL     1       5.013  18.069 -40.379  1.00  0.00     0.007 C
BRANCH  19  20
HETATM   20  C4  UNL     1       4.897  18.033 -38.891  1.00  0.00     0.004 C
BRANCH  20  21
HETATM   21  C2  UNL     1       4.117  19.289 -38.487  1.00  0.00    -0.023 C
HETATM   22  C1  UNL     1       2.720  18.783 -38.107  1.00  0.00     0.009 C
HETATM   23  C3  UNL     1       3.940  20.230 -39.637  1.00  0.00     0.009 C
ENDBRANCH  20  21
ENDBRANCH  19  20
ENDBRANCH   1  19
TORSDOF 3
ENDMDL