MODEL 5
REMARK VINA RESULT: -6.929988157      3.374      6.914
REMARK  3 active torsions:
REMARK  status: ('A' for Active; 'I' for Inactive)
REMARK    1  A    between atoms: S1_2  and  C2_3
REMARK    2  A    between atoms: C5_8  and  N2_9
REMARK    3  A    between atoms: N4_17  and  C11_18
ROOT
HETATM    1  C2  UNL     1       4.990  13.055 -42.346  1.00  0.00     0.147 A
HETATM    2  N1  UNL     1       4.639  13.175 -41.058  1.00  0.00    -0.321 N
ATOM      3  H1  UNL     1       4.601  12.338 -40.477  1.00  0.00     0.169 HD
HETATM    4  C3  UNL     1       4.336  14.362 -40.509  1.00  0.00     0.138 A
HETATM    5  C4  UNL     1       4.396  15.500 -41.329  1.00  0.00     0.124 A
HETATM    6  C5  UNL     1       4.735  15.411 -42.634  1.00  0.00     0.136 A
HETATM    7  N3  UNL     1       5.039  14.114 -43.110  1.00  0.00    -0.321 N
ATOM      8  H3  UNL     1       5.306  14.001 -44.088  1.00  0.00     0.169 HD
HETATM    9  N4  UNL     1       4.037  16.713 -40.716  1.00  0.00    -0.335 N
HETATM   10  C14 UNL     1       3.603  16.795 -39.369  1.00  0.00     0.052 A
HETATM   11  C15 UNL     1       3.005  17.797 -38.829  1.00  0.00    -0.059 C
HETATM   12  C16 UNL     1       2.642  17.704 -37.364  1.00  0.00     0.045 C
HETATM   13  C17 UNL     1       2.466  18.968 -39.507  1.00  0.00     0.045 C
HETATM   14  C18 UNL     1       3.566  15.525 -38.582  1.00  0.00     0.119 A
HETATM   15  N5  UNL     1       3.915  14.460 -39.165  1.00  0.00    -0.348 N
ATOM     16  H5  UNL     1       3.892  13.599 -38.618  1.00  0.00     0.167 HD
ENDROOT
BRANCH   6  17
HETATM   17  N2  UNL     1       4.626  16.321 -43.675  1.00  0.00    -0.365 N
HETATM   18  C6  UNL     1       5.780  16.537 -44.524  1.00  0.00     0.124 C
HETATM   19  C7  UNL     1       5.458  17.533 -45.616  1.00  0.00     0.020 C
HETATM   20  C8  UNL     1       4.365  16.952 -46.466  1.00  0.00     0.003 C
HETATM   21  C9  UNL     1       3.203  16.470 -45.636  1.00  0.00     0.020 C
HETATM   22  C10 UNL     1       3.432  16.905 -44.167  1.00  0.00     0.124 C
ENDBRANCH   6  17
BRANCH   9  23
HETATM   23  C11 UNL     1       4.521  17.963 -41.350  1.00  0.00     0.091 A
HETATM   24  C12 UNL     1       5.561  18.633 -40.362  1.00  0.00     0.028 A
HETATM   25  C13 UNL     1       6.023  18.050 -41.576  1.00  0.00     0.028 A
ENDBRANCH   9  23
BRANCH   1  26
HETATM   26  S1  UNL     1       5.394  11.427 -43.026  1.00  0.00    -0.098 SA
HETATM   27  C1  UNL     1       5.387  11.543 -44.853  1.00  0.00     0.099 C
ENDBRANCH   1  26
TORSDOF 3
ENDMDL