MODEL 4
REMARK VINA RESULT: -7.939280838      1.649      2.054
REMARK  3 active torsions:
REMARK  status: ('A' for Active; 'I' for Inactive)
REMARK    1  A    between atoms: C4_6  and  N2_7
REMARK    2  A    between atoms: C7_10  and  C8_11
REMARK    3  A    between atoms: N4_18  and  C13_19
ROOT
HETATM    1  N2  UNL     1       4.670  16.190 -44.680  1.00  0.00    -0.216 N
HETATM    2  C5  UNL     1       3.296  15.840 -44.519  1.00  0.00     0.142 C
HETATM    3  C6  UNL     1       2.766  15.884 -43.144  1.00  0.00     0.033 C
HETATM    4  C7  UNL     1       3.329  16.948 -42.254  1.00  0.00     0.057 C
HETATM    5  C18 UNL     1       4.636  17.519 -42.727  1.00  0.00     0.033 C
HETATM    6  C19 UNL     1       5.458  16.542 -43.531  1.00  0.00     0.142 C
ENDROOT
BRANCH   4   7
HETATM    7  C8  UNL     1       3.559  16.372 -40.903  1.00  0.00     0.088 A
HETATM    8  N3  UNL     1       3.430  15.057 -40.672  1.00  0.00    -0.347 N
HETATM    9  C9  UNL     1       3.694  14.835 -39.393  1.00  0.00     0.029 A
ATOM     10  H3  UNL     1       3.173  14.351 -41.361  1.00  0.00     0.167 HD
HETATM   11  C10 UNL     1       3.657  13.498 -38.747  1.00  0.00     0.070 C
HETATM   12  C11 UNL     1       3.999  16.067 -38.815  1.00  0.00     0.032 A
HETATM   13  C12 UNL     1       4.350  16.251 -37.411  1.00  0.00     0.070 C
HETATM   14  N4  UNL     1       3.913  17.010 -39.755  1.00  0.00    -0.334 N
BRANCH  14  15
HETATM   15  C13 UNL     1       4.126  18.392 -39.657  1.00  0.00     0.091 C
HETATM   16  C14 UNL     1       3.457  19.132 -38.538  1.00  0.00     0.026 C
HETATM   17  C15 UNL     1       3.894  20.562 -38.917  1.00  0.00     0.002 C
HETATM   18  C16 UNL     1       5.350  20.353 -39.258  1.00  0.00     0.002 C
HETATM   19  C17 UNL     1       5.552  18.847 -39.461  1.00  0.00     0.026 C
ENDBRANCH  14  15
ENDBRANCH   4   7
BRANCH   1  20
HETATM   20  C4  UNL     1       5.231  16.182 -45.988  1.00  0.00     0.694 A
HETATM   21  N1  UNL     1       4.514  15.814 -47.056  1.00  0.00    -0.199 N
HETATM   22  C3  UNL     1       5.081  15.820 -48.271  1.00  0.00     0.132 A
ATOM     23  H1  UNL     1       3.540  15.531 -46.947  1.00  0.00     0.183 HD
HETATM   24  C2  UNL     1       6.389  16.196 -48.466  1.00  0.00     0.038 A
HETATM   25  C1  UNL     1       7.025  16.206 -49.808  1.00  0.00     0.071 C
HETATM   26  N6  UNL     1       7.063  16.557 -47.345  1.00  0.00    -0.290 N
HETATM   27  N5  UNL     1       6.506  16.550 -46.157  1.00  0.00    -0.132 N
ATOM     28  H6  UNL     1       8.038  16.845 -47.429  1.00  0.00     0.187 HD
ATOM     29  H5  UNL     1       7.056  16.830 -45.345  1.00  0.00     0.205 HD
ENDBRANCH   1  20
TORSDOF 3
ENDMDL