MODEL 1
REMARK VINA RESULT: -7.884171432      0.000      0.000
REMARK  3 active torsions:
REMARK  status: ('A' for Active; 'I' for Inactive)
REMARK    1  A    between atoms: C4_9  and  C5_10
REMARK    2  A    between atoms: C5_10  and  C6_11
REMARK    3  A    between atoms: C11_16  and  N3_17
ROOT
HETATM    1  C1  UNL     1       5.157  12.671 -44.445  1.00  0.00     0.091 C
HETATM    2  C2  UNL     1       5.245  12.650 -42.968  1.00  0.00     0.102 A
HETATM    3  N1  UNL     1       5.462  11.488 -42.278  1.00  0.00    -0.287 N
ATOM      4  H1  UNL     1       5.580  10.564 -42.695  1.00  0.00     0.188 HD
HETATM    5  N2  UNL     1       5.493  11.755 -40.998  1.00  0.00    -0.278 N
ATOM      6  H2  UNL     1       5.638  11.092 -40.237  1.00  0.00     0.189 HD
HETATM    7  C3  UNL     1       5.291  13.109 -40.886  1.00  0.00     0.173 A
HETATM    8  S1  UNL     1       5.154  14.401 -39.793  1.00  0.00    -0.053 SA
HETATM    9  C4  UNL     1       4.894  15.672 -40.925  1.00  0.00     0.031 A
HETATM   10  C11 UNL     1       4.932  14.993 -42.117  1.00  0.00     0.127 A
HETATM   11  N4  UNL     1       5.136  13.686 -42.074  1.00  0.00    -0.263 N
ENDROOT
BRANCH  10  12
HETATM   12  N3  UNL     1       4.729  15.751 -43.354  1.00  0.00    -0.361 N
HETATM   13  C12 UNL     1       3.421  16.260 -43.691  1.00  0.00     0.156 C
HETATM   14  C13 UNL     1       3.403  17.358 -44.684  1.00  0.00     0.136 C
HETATM   15  C14 UNL     1       3.193  18.680 -43.935  1.00  0.00     0.041 C
HETATM   16  O1  UNL     1       4.512  17.522 -45.468  1.00  0.00    -0.378 OA
HETATM   17  C15 UNL     1       5.118  16.278 -45.628  1.00  0.00     0.136 C
HETATM   18  C16 UNL     1       6.066  16.204 -46.776  1.00  0.00     0.041 C
HETATM   19  C17 UNL     1       5.800  16.001 -44.286  1.00  0.00     0.156 C
ENDBRANCH  10  12
BRANCH   9  20
HETATM   20  C5  UNL     1       4.703  17.120 -40.600  1.00  0.00     0.055 C
BRANCH  20  21
HETATM   21  C6  UNL     1       5.093  17.523 -39.233  1.00  0.00    -0.010 C
HETATM   22  C7  UNL     1       3.929  17.756 -38.303  1.00  0.00     0.005 C
HETATM   23  C8  UNL     1       3.601  19.233 -38.395  1.00  0.00     0.000 C
HETATM   24  C9  UNL     1       4.791  19.913 -39.007  1.00  0.00     0.000 C
HETATM   25  C10 UNL     1       5.828  18.873 -39.289  1.00  0.00     0.005 C
ENDBRANCH  20  21
ENDBRANCH   9  20
TORSDOF 3
ENDMDL