MODEL 5
REMARK VINA RESULT: -5.770747820      1.802      2.646
REMARK  10 active torsions:
REMARK  status: ('A' for Active; 'I' for Inactive)
REMARK    1  A    between atoms: C2_2  and  C3_3
REMARK    2  A    between atoms: C3_3  and  C4_4
REMARK    3  A    between atoms: C4_4  and  C5_5
REMARK    4  A    between atoms: C6_6  and  C7_7
REMARK    5  A    between atoms: C8_9  and  C9_10
REMARK    6  A    between atoms: C9_10  and  C10_11
REMARK    7  A    between atoms: C10_11  and  C11_12
REMARK    8  A    between atoms: C13_14  and  O2_15
REMARK    9  A    between atoms: C18_22  and  O4_23
REMARK   10  A    between atoms: C23_29  and  C24_30
ROOT
HETATM    1  C7  UNL     1      -7.584  12.202 -25.691  1.00  0.00     0.151 C
HETATM    2  O1  UNL     1      -7.867  13.344 -25.020  1.00  0.00    -0.374 OA
HETATM    3  C8  UNL     1      -7.925  14.523 -25.692  1.00  0.00     0.151 C
HETATM    4  C13 UNL     1      -9.207  15.240 -25.213  1.00  0.00     0.154 C
HETATM    5  C14 UNL     1     -10.346  15.094 -26.142  1.00  0.00     0.113 C
HETATM    6  C15 UNL     1     -11.480  14.283 -25.726  1.00  0.00     0.135 C
HETATM    7  O3  UNL     1     -12.266  13.966 -26.639  1.00  0.00    -0.297 OA
HETATM    8  C16 UNL     1     -11.836  13.783 -24.398  1.00  0.00     0.080 C
HETATM    9  C17 UNL     1     -13.110  14.536 -23.971  1.00  0.00     0.020 C
HETATM   10  C18 UNL     1     -12.198  12.328 -24.482  1.00  0.00     0.132 C
HETATM   11  C19 UNL     1     -11.448  11.487 -23.473  1.00  0.00     0.011 C
HETATM   12  C20 UNL     1     -12.425  10.539 -22.782  1.00  0.00     0.012 C
HETATM   13  C21 UNL     1     -10.357  10.646 -24.094  1.00  0.00     0.007 C
HETATM   14  C22 UNL     1      -9.011  11.317 -23.806  1.00  0.00     0.010 C
HETATM   15  C23 UNL     1      -7.971  10.988 -24.831  1.00  0.00     0.048 C
ENDROOT
BRANCH  15  16
HETATM   16  C24 UNL     1      -6.711  10.404 -24.175  1.00  0.00     0.143 C
HETATM   17  C25 UNL     1      -5.558  10.426 -25.105  1.00  0.00     0.066 C
HETATM   18  C26 UNL     1      -4.573  11.494 -24.913  1.00  0.00    -0.075 C
HETATM   19  C27 UNL     1      -3.560  11.751 -25.958  1.00  0.00     0.043 C
HETATM   20  C28 UNL     1      -4.567  12.233 -23.833  1.00  0.00     0.084 C
HETATM   21  C29 UNL     1      -5.547  12.008 -22.788  1.00  0.00     0.283 C
HETATM   22  O5  UNL     1      -5.489  12.752 -21.773  1.00  0.00    -0.260 OA
HETATM   23  O6  UNL     1      -6.478  11.024 -22.931  1.00  0.00    -0.312 OA
ENDBRANCH  15  16
BRANCH   1  24
HETATM   24  C6  UNL     1      -8.279  12.015 -26.991  1.00  0.00     0.001 C
HETATM   25  C5  UNL     1      -7.753  11.333 -27.999  1.00  0.00    -0.028 C
BRANCH  25  26
HETATM   26  C4  UNL     1      -8.367  11.103 -29.303  1.00  0.00     0.027 C
BRANCH  26  27
HETATM   27  C3  UNL     1      -9.772  10.581 -29.074  1.00  0.00     0.003 C
BRANCH  27  28
HETATM   28  C2  UNL     1     -10.053   9.377 -29.951  1.00  0.00    -0.004 C
HETATM   29  C1  UNL     1      -8.880   8.995 -30.788  1.00  0.00     0.005 C
ENDBRANCH  27  28
ENDBRANCH  26  27
ENDBRANCH  25  26
ENDBRANCH   1  24
BRANCH   3  30
HETATM   30  C9  UNL     1      -6.784  15.474 -25.378  1.00  0.00     0.034 C
BRANCH  30  31
HETATM   31  C10 UNL     1      -5.638  15.384 -26.327  1.00  0.00     0.002 C
BRANCH  31  32
HETATM   32  C11 UNL     1      -6.107  15.059 -27.745  1.00  0.00    -0.004 C
HETATM   33  C12 UNL     1      -5.190  14.024 -28.330  1.00  0.00     0.005 C
ENDBRANCH  31  32
ENDBRANCH  30  31
ENDBRANCH   3  30
BRANCH   4  34
HETATM   34  O2  UNL     1      -8.946  16.630 -25.088  1.00  0.00    -0.393 OA
ATOM     35  H2  UNL     1      -9.036  17.043 -25.940  1.00  0.00     0.210 HD
ENDBRANCH   4  34
BRANCH  10  36
HETATM   36  O4  UNL     1     -11.904  11.821 -25.746  1.00  0.00    -0.394 OA
ATOM     37  H4  UNL     1     -11.235  11.150 -25.690  1.00  0.00     0.210 HD
ENDBRANCH  10  36
TORSDOF 10
ENDMDL