MODEL 4
REMARK VINA RESULT: -5.228837529      1.972      3.072
REMARK  9 active torsions:
REMARK  status: ('A' for Active; 'I' for Inactive)
REMARK    1  A    between atoms: C2_2  and  O2_4
REMARK    2  A    between atoms: O2_4  and  C3_5
REMARK    3  A    between atoms: C16_19  and  C17_20
REMARK    4  A    between atoms: C18_21  and  C19_22
REMARK    5  A    between atoms: C19_22  and  C21_24
REMARK    6  A    between atoms: C21_24  and  C22_25
REMARK    7  A    between atoms: C22_25  and  C23_26
REMARK    8  A    between atoms: C25_32  and  C27_34
REMARK    9  A    between atoms: C27_34  and  C28_35
ROOT
HETATM    1  C3  UNL     1      -6.160  11.958 -22.887  1.00  0.00     0.177 C
HETATM    2  C4  UNL     1      -5.295  13.189 -22.806  1.00  0.00     0.063 C
HETATM    3  C5  UNL     1      -4.138  13.009 -23.713  1.00  0.00    -0.022 C
HETATM    4  C6  UNL     1      -3.968  13.126 -25.015  1.00  0.00    -0.087 C
HETATM    5  C7  UNL     1      -2.575  12.826 -25.418  1.00  0.00     0.043 C
HETATM    6  C8  UNL     1      -4.860  13.487 -26.138  1.00  0.00     0.041 C
HETATM    7  C9  UNL     1      -5.888  12.456 -26.451  1.00  0.00     0.086 C
HETATM    8  C10 UNL     1      -6.421  11.744 -25.280  1.00  0.00     0.164 C
HETATM    9  O3  UNL     1      -6.194  10.534 -25.323  1.00  0.00    -0.295 OA
HETATM   10  C11 UNL     1      -7.170  12.046 -24.021  1.00  0.00     0.148 C
HETATM   11  C12 UNL     1      -8.191  10.949 -23.731  1.00  0.00     0.049 C
HETATM   12  C13 UNL     1      -9.255  10.876 -24.795  1.00  0.00     0.010 C
HETATM   13  C14 UNL     1      -9.545  12.267 -25.263  1.00  0.00     0.014 C
HETATM   14  C15 UNL     1     -11.058  12.393 -25.434  1.00  0.00     0.012 C
HETATM   15  C16 UNL     1      -9.115  13.222 -24.142  1.00  0.00     0.149 C
HETATM   16  O5  UNL     1      -7.741  13.289 -24.080  1.00  0.00    -0.360 OA
ENDROOT
BRANCH  15  17
HETATM   17  C17 UNL     1      -9.727  14.537 -24.466  1.00  0.00     0.001 C
HETATM   18  C18 UNL     1      -9.063  15.530 -25.019  1.00  0.00    -0.024 C
BRANCH  18  19
HETATM   19  C19 UNL     1      -9.693  16.834 -25.333  1.00  0.00     0.004 C
HETATM   20  C20 UNL     1     -11.170  16.809 -25.028  1.00  0.00     0.014 C
BRANCH  19  21
HETATM   21  C21 UNL     1      -9.392  17.233 -26.738  1.00  0.00     0.009 C
BRANCH  21  22
HETATM   22  C22 UNL     1      -8.805  16.103 -27.555  1.00  0.00     0.016 C
BRANCH  22  23
HETATM   23  C23 UNL     1      -9.612  15.779 -28.764  1.00  0.00     0.095 C
HETATM   24  C24 UNL     1     -11.075  15.759 -28.589  1.00  0.00     0.119 C
HETATM   25  N1  UNL     1     -12.114  16.513 -28.715  1.00  0.00    -0.383 N
HETATM   26  O4  UNL     1     -10.954  14.430 -28.173  1.00  0.00    -0.328 OA
ATOM     27  H12 UNL     1     -12.202  17.483 -29.020  1.00  0.00     0.158 HD
ATOM     28  H11 UNL     1     -13.127  16.500 -28.594  1.00  0.00     0.158 HD
HETATM   29  C25 UNL     1      -9.856  14.324 -29.056  1.00  0.00     0.076 C
HETATM   30  C26 UNL     1     -10.330  14.082 -30.462  1.00  0.00     0.047 C
BRANCH  29  31
HETATM   31  C27 UNL     1      -8.772  13.383 -28.582  1.00  0.00     0.043 C
BRANCH  31  32
HETATM   32  C28 UNL     1      -8.843  12.124 -29.429  1.00  0.00    -0.020 C
HETATM   33  C29 UNL     1      -9.416  10.955 -28.702  1.00  0.00     0.009 C
HETATM   34  C30 UNL     1      -7.399  11.777 -29.789  1.00  0.00     0.009 C
ENDBRANCH  31  32
ENDBRANCH  29  31
ENDBRANCH  22  23
ENDBRANCH  21  22
ENDBRANCH  19  21
ENDBRANCH  18  19
ENDBRANCH  15  17
BRANCH   1  35
HETATM   35  O2  UNL     1      -5.311  10.854 -23.136  1.00  0.00    -0.312 OA
BRANCH  35  36
HETATM   36  C2  UNL     1      -5.017   9.871 -22.233  1.00  0.00     0.255 C
HETATM   37  C1  UNL     1      -5.672   9.776 -20.900  1.00  0.00     0.126 C
HETATM   38  O1  UNL     1      -4.159   9.005 -22.533  1.00  0.00    -0.266 OA
ENDBRANCH  35  36
ENDBRANCH   1  35
TORSDOF 9
ENDMDL