MODEL 2
REMARK VINA RESULT: -6.700037715      1.260      1.488
REMARK  11 active torsions:
REMARK  status: ('A' for Active; 'I' for Inactive)
REMARK    1  A    between atoms: C2_2  and  C3_3
REMARK    2  A    between atoms: C3_3  and  C4_4
REMARK    3  A    between atoms: C4_4  and  C5_5
REMARK    4  A    between atoms: C5_5  and  C6_6
REMARK    5  A    between atoms: C6_6  and  O2_8
REMARK    6  A    between atoms: O2_8  and  C7_9
REMARK    7  A    between atoms: C18_20  and  C19_21
REMARK    8  A    between atoms: C19_21  and  C20_22
REMARK    9  A    between atoms: C20_22  and  C21_23
REMARK   10  A    between atoms: C23_26  and  O4_27
REMARK   11  A    between atoms: N1_36  and  O5_38
ROOT
HETATM    1  C7  UNL     1      -5.720  11.481 -22.839  1.00  0.00     0.132 C
HETATM    2  C8  UNL     1      -5.321  12.876 -22.356  1.00  0.00     0.034 C
HETATM    3  C9  UNL     1      -4.400  13.532 -23.320  1.00  0.00     0.016 C
HETATM    4  C10 UNL     1      -5.073  13.739 -24.667  1.00  0.00    -0.022 C
HETATM    5  C11 UNL     1      -4.010  13.470 -25.698  1.00  0.00     0.020 C
HETATM    6  C12 UNL     1      -5.605  15.105 -24.809  1.00  0.00    -0.021 C
HETATM    7  C13 UNL     1      -6.838  15.392 -25.194  1.00  0.00    -0.025 C
HETATM    8  C14 UNL     1      -7.837  14.322 -25.532  1.00  0.00     0.017 C
HETATM    9  C15 UNL     1      -8.890  14.786 -26.377  1.00  0.00     0.042 C
HETATM   10  C16 UNL     1      -8.939  14.205 -27.774  1.00  0.00    -0.084 C
HETATM   11  C17 UNL     1      -9.301  14.988 -28.689  1.00  0.00     0.015 C
HETATM   12  C18 UNL     1      -8.540  12.822 -27.944  1.00  0.00     0.022 C
HETATM   13  C25 UNL     1      -7.760  12.186 -26.808  1.00  0.00    -0.036 C
HETATM   14  C26 UNL     1      -8.742  11.457 -25.927  1.00  0.00     0.016 C
HETATM   15  C27 UNL     1      -6.821  11.202 -27.514  1.00  0.00     0.016 C
HETATM   16  C28 UNL     1      -6.975  13.129 -25.998  1.00  0.00     0.007 C
HETATM   17  C29 UNL     1      -6.268  12.764 -24.794  1.00  0.00     0.005 C
HETATM   18  C30 UNL     1      -5.790  11.457 -24.376  1.00  0.00     0.038 C
ENDROOT
BRANCH   1  19
HETATM   19  O2  UNL     1      -4.769  10.604 -22.305  1.00  0.00    -0.316 OA
BRANCH  19  20
HETATM   20  C6  UNL     1      -4.331   9.474 -22.953  1.00  0.00     0.259 C
HETATM   21  O1  UNL     1      -3.318   9.618 -23.712  1.00  0.00    -0.265 OA
BRANCH  20  22
HETATM   22  C5  UNL     1      -5.014   8.190 -22.765  1.00  0.00     0.117 C
BRANCH  22  23
HETATM   23  C4  UNL     1      -4.523   7.166 -23.739  1.00  0.00     0.069 C
BRANCH  23  24
HETATM   24  C3  UNL     1      -3.457   6.298 -23.228  1.00  0.00     0.031 C
HETATM   25  N1  UNL     1      -2.251   6.580 -23.164  1.00  0.00    -0.274 N
ATOM     26  H1  UNL     1      -1.721   5.784 -22.811  1.00  0.00     0.193 HD
BRANCH  24  27
HETATM   27  C2  UNL     1      -3.853   4.931 -22.805  1.00  0.00     0.017 C
HETATM   28  C1  UNL     1      -3.160   4.232 -21.961  1.00  0.00     0.013 C
ENDBRANCH  24  27
BRANCH  25  29
HETATM   29  O5  UNL     1      -1.458   7.573 -23.407  1.00  0.00    -0.290 OA
ATOM     30  H5  UNL     1      -0.654   7.757 -23.878  1.00  0.00     0.244 HD
ENDBRANCH  25  29
ENDBRANCH  23  24
ENDBRANCH  22  23
ENDBRANCH  20  22
ENDBRANCH  19  20
ENDBRANCH   1  19
BRANCH  12  31
HETATM   31  C19 UNL     1      -9.622  11.921 -28.412  1.00  0.00     0.014 C
BRANCH  31  32
HETATM   32  C20 UNL     1      -9.880  11.831 -29.872  1.00  0.00     0.041 C
BRANCH  32  33
HETATM   33  C21 UNL     1      -8.966  10.744 -30.426  1.00  0.00    -0.031 A
HETATM   34  C22 UNL     1      -7.785  10.950 -31.096  1.00  0.00     0.152 A
HETATM   35  O3  UNL     1      -7.278   9.753 -31.419  1.00  0.00    -0.300 OA
HETATM   36  C23 UNL     1      -8.041   8.791 -31.011  1.00  0.00     0.183 A
HETATM   37  C24 UNL     1      -9.125   9.381 -30.375  1.00  0.00     0.073 A
BRANCH  36  38
HETATM   38  O4  UNL     1      -7.825   7.432 -31.172  1.00  0.00    -0.341 OA
ATOM     39  H4  UNL     1      -8.444   6.791 -31.500  1.00  0.00     0.220 HD
ENDBRANCH  36  38
ENDBRANCH  32  33
ENDBRANCH  31  32
ENDBRANCH  12  31
TORSDOF 11
ENDMDL