MODEL 4
REMARK VINA RESULT: -6.011697733      1.997      6.243
REMARK  9 active torsions:
REMARK  status: ('A' for Active; 'I' for Inactive)
REMARK    1  A    between atoms: C2_2  and  C3_3
REMARK    2  A    between atoms: C3_3  and  C4_4
REMARK    3  A    between atoms: C4_4  and  C5_5
REMARK    4  A    between atoms: C5_5  and  C6_6
REMARK    5  A    between atoms: C6_6  and  C8_8
REMARK    6  A    between atoms: C8_8  and  C9_9
REMARK    7  A    between atoms: C9_9  and  C10_11
REMARK    8  A    between atoms: C14_15  and  O2_16
REMARK    9  A    between atoms: C22_28  and  O6_29
ROOT
HETATM    1  C10 UNL     1      -6.746  10.995 -24.776  1.00  0.00     0.044 A
HETATM    2  C11 UNL     1      -6.277   9.866 -24.096  1.00  0.00     0.027 A
HETATM    3  C12 UNL     1      -4.939   9.640 -23.923  1.00  0.00    -0.027 A
HETATM    4  C13 UNL     1      -4.450   8.422 -23.190  1.00  0.00     0.051 C
HETATM    5  C14 UNL     1      -4.038  10.561 -24.440  1.00  0.00     0.083 A
HETATM    6  C15 UNL     1      -4.444  11.657 -25.097  1.00  0.00     0.048 A
HETATM    7  C16 UNL     1      -5.824  11.886 -25.273  1.00  0.00     0.098 A
HETATM    8  O3  UNL     1      -6.395  12.997 -25.946  1.00  0.00    -0.309 OA
HETATM    9  C17 UNL     1      -5.619  13.946 -26.660  1.00  0.00     0.208 C
HETATM   10  C18 UNL     1      -6.474  14.570 -27.691  1.00  0.00     0.083 C
HETATM   11  O4  UNL     1      -4.726  13.159 -27.438  1.00  0.00    -0.199 OA
HETATM   12  O5  UNL     1      -3.620  12.881 -26.981  1.00  0.00    -0.221 OA
HETATM   13  C19 UNL     1      -3.443  12.625 -25.595  1.00  0.00     0.132 C
HETATM   14  C20 UNL     1      -2.020  12.260 -25.523  1.00  0.00     0.055 C
HETATM   15  C21 UNL     1      -3.800  13.953 -24.974  1.00  0.00     0.072 C
HETATM   16  C22 UNL     1      -2.637  14.758 -24.486  1.00  0.00     0.130 C
HETATM   17  C23 UNL     1      -3.019  16.211 -24.226  1.00  0.00     0.015 C
HETATM   18  C24 UNL     1      -1.803  17.077 -24.450  1.00  0.00     0.013 C
HETATM   19  C25 UNL     1      -4.123  16.612 -25.132  1.00  0.00     0.001 C
HETATM   20  C26 UNL     1      -3.927  15.823 -26.440  1.00  0.00     0.001 C
HETATM   21  C27 UNL     1      -4.306  16.586 -27.635  1.00  0.00     0.011 C
HETATM   22  C28 UNL     1      -4.783  14.787 -25.810  1.00  0.00     0.035 C
HETATM   23  C29 UNL     1      -5.343  15.760 -24.826  1.00  0.00     0.001 C
HETATM   24  C30 UNL     1      -6.631  16.438 -25.031  1.00  0.00     0.011 C
ENDROOT
BRANCH   1  25
HETATM   25  C9  UNL     1      -8.163  11.198 -24.968  1.00  0.00     0.162 C
HETATM   26  O1  UNL     1      -8.595  10.982 -26.161  1.00  0.00    -0.292 OA
BRANCH  25  27
HETATM   27  C8  UNL     1      -9.143  11.625 -23.967  1.00  0.00     0.088 C
BRANCH  27  28
HETATM   28  C6  UNL     1     -10.567  11.559 -24.526  1.00  0.00    -0.011 C
HETATM   29  C7  UNL     1     -11.413  10.767 -23.559  1.00  0.00     0.010 C
BRANCH  28  30
HETATM   30  C5  UNL     1     -11.127  12.949 -24.670  1.00  0.00     0.005 C
BRANCH  30  31
HETATM   31  C4  UNL     1     -10.858  13.591 -25.986  1.00  0.00     0.000 C
BRANCH  31  32
HETATM   32  C3  UNL     1      -9.879  14.733 -25.794  1.00  0.00    -0.000 C
BRANCH  32  33
HETATM   33  C2  UNL     1     -10.105  15.361 -24.417  1.00  0.00    -0.005 C
HETATM   34  C1  UNL     1     -10.512  16.810 -24.675  1.00  0.00     0.005 C
ENDBRANCH  32  33
ENDBRANCH  31  32
ENDBRANCH  30  31
ENDBRANCH  28  30
ENDBRANCH  27  28
ENDBRANCH  25  27
ENDBRANCH   1  25
BRANCH   5  35
HETATM   35  O2  UNL     1      -2.719  10.283 -24.234  1.00  0.00    -0.359 OA
ATOM     36  H2  UNL     1      -2.405  10.397 -23.345  1.00  0.00     0.217 HD
ENDBRANCH   5  35
BRANCH  16  37
HETATM   37  O6  UNL     1      -2.191  14.315 -23.216  1.00  0.00    -0.395 OA
ATOM     38  H6  UNL     1      -1.282  14.547 -23.063  1.00  0.00     0.210 HD
ENDBRANCH  16  37
TORSDOF 9
ENDMDL