MODEL 3
REMARK VINA RESULT: -5.833601106      0.949      1.213
REMARK  11 active torsions:
REMARK  status: ('A' for Active; 'I' for Inactive)
REMARK    1  A    between atoms: C2_2  and  C3_3
REMARK    2  A    between atoms: C3_3  and  C5_5
REMARK    3  A    between atoms: C5_5  and  C6_6
REMARK    4  A    between atoms: C7_7  and  C8_8
REMARK    5  A    between atoms: C8_8  and  O1_9
REMARK    6  A    between atoms: C8_8  and  C9_11
REMARK    7  A    between atoms: C10_12  and  C11_13
REMARK    8  A    between atoms: N1_19  and  O2_21
REMARK    9  A    between atoms: O2_21  and  C17_22
REMARK   10  A    between atoms: C17_22  and  N2_23
REMARK   11  A    between atoms: C26_34  and  O3_35
ROOT
HETATM    1  C11 UNL     1      -7.768  12.914 -25.529  1.00  0.00     0.025 C
HETATM    2  C12 UNL     1      -6.943  12.046 -24.638  1.00  0.00    -0.032 C
HETATM    3  C13 UNL     1      -6.227  12.920 -23.599  1.00  0.00     0.016 C
HETATM    4  C14 UNL     1      -5.810  11.450 -25.484  1.00  0.00     0.016 C
HETATM    5  C15 UNL     1      -4.966  10.479 -24.769  1.00  0.00     0.055 C
HETATM    6  C16 UNL     1      -5.593   9.738 -23.683  1.00  0.00     0.010 C
HETATM    7  N1  UNL     1      -5.123   8.610 -23.300  1.00  0.00    -0.273 N
ATOM      8  H1  UNL     1      -5.594   8.126 -22.536  1.00  0.00     0.193 HD
HETATM    9  C21 UNL     1      -6.810  10.254 -22.966  1.00  0.00     0.060 C
HETATM   10  C22 UNL     1      -7.656  10.901 -24.022  1.00  0.00     0.000 C
HETATM   11  C23 UNL     1      -9.054  11.229 -23.548  1.00  0.00     0.011 C
HETATM   12  C24 UNL     1      -9.788  11.604 -24.844  1.00  0.00    -0.003 C
HETATM   13  C25 UNL     1     -11.255  11.581 -24.681  1.00  0.00     0.037 C
HETATM   14  C26 UNL     1     -11.902  11.841 -26.016  1.00  0.00     0.118 C
HETATM   15  C27 UNL     1     -11.419  13.177 -26.510  1.00  0.00     0.032 C
HETATM   16  C28 UNL     1      -9.922  13.240 -26.635  1.00  0.00     0.012 C
HETATM   17  C29 UNL     1      -9.233  12.903 -25.303  1.00  0.00    -0.033 C
HETATM   18  C30 UNL     1      -9.656  14.039 -24.367  1.00  0.00     0.016 C
ENDROOT
BRANCH   1  19
HETATM   19  C10 UNL     1      -7.313  14.331 -25.441  1.00  0.00    -0.022 C
HETATM   20  C9  UNL     1      -6.714  14.955 -26.451  1.00  0.00     0.005 C
BRANCH  20  21
HETATM   21  C8  UNL     1      -6.256  16.350 -26.390  1.00  0.00     0.163 C
BRANCH  21  22
HETATM   22  C7  UNL     1      -5.295  16.581 -25.260  1.00  0.00     0.004 C
HETATM   23  C6  UNL     1      -4.112  16.025 -25.202  1.00  0.00    -0.027 C
BRANCH  23  24
HETATM   24  C5  UNL     1      -3.072  16.137 -24.195  1.00  0.00     0.031 C
BRANCH  24  25
HETATM   25  C3  UNL     1      -2.323  14.902 -23.835  1.00  0.00    -0.016 C
HETATM   26  C4  UNL     1      -2.841  13.763 -24.704  1.00  0.00     0.010 C
BRANCH  25  27
HETATM   27  C2  UNL     1      -0.828  15.089 -24.076  1.00  0.00    -0.000 C
HETATM   28  C1  UNL     1      -0.378  16.479 -23.788  1.00  0.00     0.005 C
ENDBRANCH  25  27
ENDBRANCH  24  25
ENDBRANCH  23  24
ENDBRANCH  21  22
BRANCH  21  29
HETATM   29  O1  UNL     1      -7.313  17.243 -26.194  1.00  0.00    -0.388 OA
ATOM     30  H1  UNL     1      -7.869  16.856 -25.527  1.00  0.00     0.210 HD
ENDBRANCH  21  29
ENDBRANCH  20  21
ENDBRANCH   1  19
BRANCH  14  31
HETATM   31  O3  UNL     1     -11.435  10.869 -26.908  1.00  0.00    -0.396 OA
ATOM     32  H3  UNL     1     -11.232  11.306 -27.727  1.00  0.00     0.210 HD
ENDBRANCH  14  31
BRANCH   7  33
HETATM   33  O2  UNL     1      -4.020   8.018 -23.862  1.00  0.00    -0.261 OA
BRANCH  33  34
HETATM   34  C17 UNL     1      -2.935   7.545 -23.053  1.00  0.00     0.332 C
BRANCH  34  35
HETATM   35  N2  UNL     1      -3.042   6.133 -22.808  1.00  0.00    -0.328 N
HETATM   36  C18 UNL     1      -4.120   5.357 -22.979  1.00  0.00     0.111 A
HETATM   37  C19 UNL     1      -3.796   4.058 -22.627  1.00  0.00     0.106 A
HETATM   38  N3  UNL     1      -2.519   4.064 -22.245  1.00  0.00    -0.361 N
HETATM   39  C20 UNL     1      -2.065   5.333 -22.358  1.00  0.00     0.184 A
ATOM     40  H3  UNL     1      -1.981   3.258 -21.925  1.00  0.00     0.166 HD
ENDBRANCH  34  35
ENDBRANCH  33  34
ENDBRANCH   7  33
TORSDOF 11
ENDMDL