MODEL 1
REMARK VINA RESULT: -6.197925225      0.000      0.000
REMARK  8 active torsions:
REMARK  status: ('A' for Active; 'I' for Inactive)
REMARK    1  A    between atoms: C5_7  and  S1_8
REMARK    2  A    between atoms: S1_8  and  C6_9
REMARK    3  A    between atoms: C6_9  and  C7_10
REMARK    4  A    between atoms: N4_17  and  C9_18
REMARK    5  A    between atoms: C9_18  and  C10_19
REMARK    6  A    between atoms: C10_19  and  C11_20
REMARK    7  A    between atoms: C11_20  and  N5_21
REMARK    8  A    between atoms: C19_31  and  C20_32
ROOT
HETATM    1  C1  UNL     1      -3.224  14.334 -23.560  1.00  0.00     0.049 C
HETATM    2  C2  UNL     1      -4.550  14.551 -24.177  1.00  0.00    -0.053 A
HETATM    3  C3  UNL     1      -4.773  15.757 -24.826  1.00  0.00     0.039 A
HETATM    4  C4  UNL     1      -5.998  15.964 -25.408  1.00  0.00     0.061 A
HETATM    5  N1  UNL     1      -6.508  16.967 -26.163  1.00  0.00    -0.335 N
ATOM      6  H1  UNL     1      -6.024  17.836 -26.390  1.00  0.00     0.168 HD
HETATM    7  C5  UNL     1      -7.742  16.645 -26.569  1.00  0.00     0.145 A
HETATM    8  N6  UNL     1      -8.038  15.428 -26.061  1.00  0.00    -0.335 N
ATOM      9  H6  UNL     1      -8.913  14.920 -26.194  1.00  0.00     0.168 HD
HETATM   10  C17 UNL     1      -6.976  15.000 -25.350  1.00  0.00     0.061 A
HETATM   11  C18 UNL     1      -6.715  13.787 -24.673  1.00  0.00     0.040 A
HETATM   12  C19 UNL     1      -5.506  13.549 -24.083  1.00  0.00    -0.045 A
ENDROOT
BRANCH   7  13
HETATM   13  S1  UNL     1      -8.689  17.616 -27.766  1.00  0.00    -0.086 SA
BRANCH  13  14
HETATM   14  C6  UNL     1     -10.406  16.932 -27.819  1.00  0.00     0.160 C
BRANCH  14  15
HETATM   15  C7  UNL     1     -11.174  17.800 -26.879  1.00  0.00     0.110 A
HETATM   16  N2  UNL     1     -11.191  19.128 -26.930  1.00  0.00    -0.286 N
HETATM   17  N3  UNL     1     -11.965  19.604 -25.945  1.00  0.00    -0.275 N
ATOM     18  H2  UNL     1     -10.691  19.697 -27.613  1.00  0.00     0.188 HD
HETATM   19  C8  UNL     1     -12.429  18.526 -25.281  1.00  0.00     0.194 A
ATOM     20  H3  UNL     1     -12.162  20.583 -25.740  1.00  0.00     0.189 HD
HETATM   21  S2  UNL     1     -13.431  18.627 -23.996  1.00  0.00    -0.039 SA
HETATM   22  N4  UNL     1     -11.949  17.374 -25.852  1.00  0.00    -0.310 N
BRANCH  22  23
HETATM   23  C9  UNL     1     -12.287  16.029 -25.508  1.00  0.00     0.138 C
BRANCH  23  24
HETATM   24  C10 UNL     1     -11.318  15.291 -24.656  1.00  0.00     0.065 C
BRANCH  24  25
HETATM   25  C11 UNL     1     -11.671  13.905 -24.234  1.00  0.00     0.059 C
BRANCH  25  26
HETATM   26  N5  UNL     1     -11.795  12.911 -25.194  1.00  0.00    -0.393 N
HETATM   27  C12 UNL     1     -12.597  11.774 -24.995  1.00  0.00     0.122 C
HETATM   28  C13 UNL     1     -11.794  10.523 -24.632  1.00  0.00     0.020 C
HETATM   29  C14 UNL     1     -10.382  10.828 -24.231  1.00  0.00     0.003 C
HETATM   30  C15 UNL     1      -9.712  11.580 -25.333  1.00  0.00     0.020 C
HETATM   31  C16 UNL     1     -10.587  12.647 -25.957  1.00  0.00     0.122 C
ENDBRANCH  25  26
ENDBRANCH  24  25
ENDBRANCH  23  24
ENDBRANCH  22  23
ENDBRANCH  14  15
ENDBRANCH  13  14
ENDBRANCH   7  13
BRANCH  12  32
HETATM   32  C20 UNL     1      -5.059  12.233 -23.542  1.00  0.00     0.023 C
HETATM   33  C21 UNL     1      -5.354  12.037 -22.073  1.00  0.00     0.014 C
HETATM   34  C22 UNL     1      -5.776  10.585 -22.027  1.00  0.00    -0.013 C
HETATM   35  C23 UNL     1      -4.775   9.742 -22.732  1.00  0.00     0.005 C
HETATM   36  C26 UNL     1      -6.881  10.722 -23.115  1.00  0.00     0.010 C
HETATM   37  C24 UNL     1      -5.065   9.878 -24.240  1.00  0.00     0.005 C
HETATM   38  C25 UNL     1      -5.895  11.128 -24.224  1.00  0.00    -0.006 C
ENDBRANCH  12  32
TORSDOF 8
ENDMDL