MODEL 3
REMARK VINA RESULT: -5.667498526      1.975      7.253
REMARK  11 active torsions:
REMARK  status: ('A' for Active; 'I' for Inactive)
REMARK    1  A    between atoms: C2_2  and  C4_4
REMARK    2  A    between atoms: C4_4  and  O2_6
REMARK    3  A    between atoms: O2_6  and  C5_7
REMARK    4  A    between atoms: C5_7  and  C6_8
REMARK    5  A    between atoms: C22_24  and  O3_25
REMARK    6  A    between atoms: C22_24  and  C23_27
REMARK    7  A    between atoms: C23_27  and  C24_28
REMARK    8  A    between atoms: C24_28  and  C25_29
REMARK    9  A    between atoms: C25_29  and  O4_32
REMARK   10  A    between atoms: C28_34  and  C30_36
REMARK   11  A    between atoms: C30_36  and  O5_37
ROOT
HETATM    1  C6  UNL     1     -10.181  12.348 -25.168  1.00  0.00    -0.012 C
HETATM    2  C7  UNL     1     -10.190  10.882 -24.810  1.00  0.00     0.018 C
HETATM    3  C8  UNL     1      -9.388  13.039 -24.045  1.00  0.00     0.013 C
HETATM    4  C9  UNL     1      -7.901  12.920 -24.244  1.00  0.00     0.011 C
HETATM    5  C10 UNL     1      -7.406  13.603 -25.447  1.00  0.00    -0.029 C
HETATM    6  C11 UNL     1      -7.936  15.038 -25.407  1.00  0.00     0.016 C
HETATM    7  C12 UNL     1      -8.132  12.930 -26.605  1.00  0.00     0.005 C
HETATM    8  C13 UNL     1      -7.215  11.759 -26.877  1.00  0.00     0.007 C
HETATM    9  C14 UNL     1      -5.865  12.507 -26.857  1.00  0.00     0.014 C
HETATM   10  C15 UNL     1      -5.992  13.578 -25.837  1.00  0.00    -0.001 C
HETATM   11  C16 UNL     1      -5.772  14.865 -26.663  1.00  0.00     0.013 C
HETATM   12  C17 UNL     1      -4.442  14.859 -27.374  1.00  0.00     0.002 C
HETATM   13  C18 UNL     1      -3.369  14.209 -26.598  1.00  0.00     0.012 C
HETATM   14  C19 UNL     1      -3.719  14.317 -25.117  1.00  0.00    -0.016 C
HETATM   15  C20 UNL     1      -2.415  13.968 -24.460  1.00  0.00     0.018 C
HETATM   16  C21 UNL     1      -3.860  15.815 -24.846  1.00  0.00     0.018 C
HETATM   17  C22 UNL     1      -4.931  13.525 -24.716  1.00  0.00     0.073 C
HETATM   18  C28 UNL     1      -9.558  12.630 -26.481  1.00  0.00    -0.009 C
HETATM   19  C29 UNL     1      -9.765  11.301 -27.273  1.00  0.00     0.018 C
ENDROOT
BRANCH  17  20
HETATM   20  O3  UNL     1      -5.421  14.328 -23.640  1.00  0.00    -0.388 OA
ATOM     21  H3  UNL     1      -5.160  15.223 -23.820  1.00  0.00     0.210 HD
ENDBRANCH  17  20
BRANCH  17  22
HETATM   22  C23 UNL     1      -4.705  12.174 -24.222  1.00  0.00     0.042 C
BRANCH  22  23
HETATM   23  C24 UNL     1      -4.883  11.710 -22.848  1.00  0.00     0.040 C
BRANCH  23  24
HETATM   24  C25 UNL     1      -5.058  10.139 -22.859  1.00  0.00     0.051 C
HETATM   25  C26 UNL     1      -5.914   9.776 -24.050  1.00  0.00     0.045 C
HETATM   26  C27 UNL     1      -5.608   9.655 -21.564  1.00  0.00     0.045 C
BRANCH  24  27
HETATM   27  O4  UNL     1      -3.820   9.533 -23.057  1.00  0.00    -0.391 OA
ATOM     28  H4  UNL     1      -3.615   9.521 -23.985  1.00  0.00     0.210 HD
ENDBRANCH  24  27
ENDBRANCH  23  24
ENDBRANCH  22  23
ENDBRANCH  17  22
BRANCH  18  29
HETATM   29  C30 UNL     1     -10.349  13.633 -27.323  1.00  0.00     0.174 C
BRANCH  29  30
HETATM   30  O5  UNL     1      -9.656  14.157 -28.397  1.00  0.00    -0.400 OA
ATOM     31  H5  UNL     1     -10.124  14.825 -28.883  1.00  0.00     0.209 HD
ENDBRANCH  29  30
ENDBRANCH  18  29
BRANCH   1  32
HETATM   32  C5  UNL     1     -11.558  12.920 -24.990  1.00  0.00     0.189 C
BRANCH  32  33
HETATM   33  O2  UNL     1     -12.023  13.269 -23.760  1.00  0.00    -0.317 OA
BRANCH  33  34
HETATM   34  C4  UNL     1     -13.169  13.174 -23.059  1.00  0.00     0.288 C
HETATM   35  O1  UNL     1     -14.032  14.061 -23.128  1.00  0.00    -0.260 OA
BRANCH  34  36
HETATM   36  C2  UNL     1     -13.479  12.030 -22.173  1.00  0.00     0.004 C
HETATM   37  C1  UNL     1     -12.716  10.970 -22.109  1.00  0.00     0.024 C
HETATM   38  C3  UNL     1     -14.697  12.122 -21.350  1.00  0.00     0.054 C
ENDBRANCH  34  36
ENDBRANCH  33  34
ENDBRANCH  32  33
ENDBRANCH   1  32
TORSDOF 11
ENDMDL