MODEL 2
REMARK VINA RESULT: -5.731601677      3.159      5.650
REMARK  9 active torsions:
REMARK  status: ('A' for Active; 'I' for Inactive)
REMARK    1  A    between atoms: C2_2  and  C4_4
REMARK    2  A    between atoms: N1_10  and  O2_12
REMARK    3  A    between atoms: C18_23  and  N2_24
REMARK    4  A    between atoms: N2_24  and  C19_26
REMARK    5  A    between atoms: C19_26  and  C20_27
REMARK    6  A    between atoms: C20_27  and  N3_28
REMARK    7  A    between atoms: N3_28  and  C22_30
REMARK    8  A    between atoms: C22_30  and  C23_31
REMARK    9  A    between atoms: C23_31  and  N4_32
ROOT
HETATM    1  C4  UNL     1      -7.222  13.553 -25.028  1.00  0.00    -0.009 C
HETATM    2  C5  UNL     1      -8.247  14.562 -24.558  1.00  0.00     0.013 C
HETATM    3  C6  UNL     1      -8.985  15.023 -25.819  1.00  0.00     0.085 C
HETATM    4  C7  UNL     1      -9.668  16.307 -25.663  1.00  0.00     0.173 C
HETATM    5  O1  UNL     1      -8.981  17.359 -25.691  1.00  0.00    -0.291 OA
HETATM    6  C8  UNL     1     -11.102  16.463 -25.475  1.00  0.00     0.077 C
HETATM    7  N1  UNL     1     -11.778  17.411 -26.031  1.00  0.00    -0.270 N
ATOM      8  H1  UNL     1     -12.782  17.474 -25.867  1.00  0.00     0.194 HD
HETATM    9  C9  UNL     1     -11.866  15.502 -24.600  1.00  0.00     0.063 C
HETATM   10  C10 UNL     1     -13.316  15.562 -24.977  1.00  0.00     0.006 C
HETATM   11  C11 UNL     1     -14.173  14.602 -24.233  1.00  0.00     0.000 C
HETATM   12  C12 UNL     1     -13.433  13.607 -23.403  1.00  0.00     0.000 C
HETATM   13  C13 UNL     1     -13.094  12.330 -24.140  1.00  0.00     0.000 C
HETATM   14  C14 UNL     1     -12.194  11.467 -23.289  1.00  0.00     0.000 C
HETATM   15  C15 UNL     1     -11.205  10.686 -24.120  1.00  0.00     0.000 C
HETATM   16  C16 UNL     1      -9.848  10.737 -23.440  1.00  0.00     0.002 C
HETATM   17  C17 UNL     1      -8.785  11.164 -24.424  1.00  0.00     0.025 C
HETATM   18  C18 UNL     1      -7.429  11.314 -23.826  1.00  0.00     0.081 C
HETATM   19  C29 UNL     1      -6.741  12.605 -24.006  1.00  0.00     0.030 C
ENDROOT
BRANCH  18  20
HETATM   20  N2  UNL     1      -6.629  10.218 -24.291  1.00  0.00    -0.396 N
ATOM     21  H2  UNL     1      -7.022   9.280 -24.371  1.00  0.00     0.159 HD
BRANCH  20  22
HETATM   22  C19 UNL     1      -5.289  10.466 -24.634  1.00  0.00     0.075 C
BRANCH  22  23
HETATM   23  C20 UNL     1      -4.278   9.970 -23.660  1.00  0.00     0.165 C
BRANCH  23  24
HETATM   24  N3  UNL     1      -4.730   8.821 -22.917  1.00  0.00    -0.391 N
HETATM   25  C21 UNL     1      -5.062   8.983 -21.582  1.00  0.00     0.149 C
BRANCH  24  26
HETATM   26  C22 UNL     1      -4.573   7.577 -23.526  1.00  0.00     0.088 C
BRANCH  26  27
HETATM   27  C23 UNL     1      -3.360   6.782 -23.353  1.00  0.00     0.316 C
BRANCH  27  28
HETATM   28  N4  UNL     1      -3.284   5.788 -22.339  1.00  0.00     0.093 N
HETATM   29  C24 UNL     1      -3.570   4.451 -22.767  1.00  0.00     0.273 C
HETATM   30  C25 UNL     1      -3.628   3.446 -21.650  1.00  0.00     0.030 C
HETATM   31  C26 UNL     1      -2.490   3.678 -20.676  1.00  0.00     0.003 C
HETATM   32  C27 UNL     1      -1.436   4.544 -21.367  1.00  0.00     0.030 C
HETATM   33  C28 UNL     1      -2.068   5.886 -21.556  1.00  0.00     0.273 C
ENDBRANCH  27  28
ENDBRANCH  26  27
ENDBRANCH  24  26
ENDBRANCH  23  24
ENDBRANCH  22  23
ENDBRANCH  20  22
ENDBRANCH  18  20
BRANCH   1  34
HETATM   34  C2  UNL     1      -6.031  14.376 -25.520  1.00  0.00    -0.019 C
HETATM   35  C1  UNL     1      -5.298  13.690 -26.653  1.00  0.00     0.010 C
HETATM   36  C3  UNL     1      -5.031  14.673 -24.446  1.00  0.00     0.010 C
ENDBRANCH   1  34
BRANCH   7  37
HETATM   37  O2  UNL     1     -11.168  18.337 -26.839  1.00  0.00    -0.290 OA
ATOM     38  H2  UNL     1     -10.881  19.175 -26.496  1.00  0.00     0.244 HD
ENDBRANCH   7  37
TORSDOF 9
ENDMDL