MODEL 4
REMARK VINA RESULT: -5.643736289      4.412      7.277
REMARK  11 active torsions:
REMARK  status: ('A' for Active; 'I' for Inactive)
REMARK    1  A    between atoms: C2_2  and  C3_3
REMARK    2  A    between atoms: C3_3  and  S1_5
REMARK    3  A    between atoms: S1_5  and  C4_6
REMARK    4  A    between atoms: C4_6  and  C6_8
REMARK    5  A    between atoms: C6_8  and  C7_9
REMARK    6  A    between atoms: C7_9  and  C8_10
REMARK    7  A    between atoms: C8_10  and  C9_11
REMARK    8  A    between atoms: C9_11  and  C10_13
REMARK    9  A    between atoms: C12_15  and  O3_16
REMARK   10  A    between atoms: C17_22  and  C18_23
REMARK   11  A    between atoms: C26_33  and  O4_34
ROOT
HETATM    1  C10 UNL     1      -5.599  14.853 -24.738  1.00  0.00     0.066 C
HETATM    2  C11 UNL     1      -6.074  16.216 -25.228  1.00  0.00     0.045 C
HETATM    3  C12 UNL     1      -4.881  16.839 -25.910  1.00  0.00     0.124 C
HETATM    4  C13 UNL     1      -3.954  15.725 -26.251  1.00  0.00     0.036 C
HETATM    5  C14 UNL     1      -2.519  16.058 -25.979  1.00  0.00    -0.012 C
HETATM    6  C15 UNL     1      -2.146  17.167 -26.944  1.00  0.00     0.020 C
HETATM    7  C16 UNL     1      -2.364  16.618 -24.599  1.00  0.00    -0.004 C
HETATM    8  C17 UNL     1      -1.214  17.078 -24.098  1.00  0.00    -0.024 C
HETATM    9  C20 UNL     1       0.055  17.104 -24.818  1.00  0.00     0.009 C
HETATM   10  C21 UNL     1       0.489  16.241 -25.694  1.00  0.00    -0.017 C
HETATM   11  C22 UNL     1      -0.174  15.017 -26.191  1.00  0.00    -0.023 C
HETATM   12  C23 UNL     1       0.414  14.798 -27.607  1.00  0.00     0.019 C
HETATM   13  C24 UNL     1       0.545  13.888 -25.387  1.00  0.00     0.019 C
HETATM   14  C25 UNL     1      -1.604  14.894 -26.261  1.00  0.00     0.038 C
HETATM   15  C26 UNL     1      -2.084  13.635 -25.548  1.00  0.00     0.125 C
HETATM   16  C27 UNL     1      -3.401  13.786 -24.860  1.00  0.00     0.042 C
HETATM   17  C28 UNL     1      -4.460  14.448 -25.657  1.00  0.00    -0.024 C
HETATM   18  C29 UNL     1      -4.926  13.483 -26.729  1.00  0.00     0.016 C
ENDROOT
BRANCH   1  19
HETATM   19  C9  UNL     1      -6.754  13.959 -24.708  1.00  0.00     0.132 C
HETATM   20  O2  UNL     1      -7.773  14.225 -25.320  1.00  0.00    -0.298 OA
BRANCH  19  21
HETATM   21  C8  UNL     1      -6.745  12.702 -23.939  1.00  0.00     0.079 C
BRANCH  21  22
HETATM   22  C7  UNL     1      -6.021  12.841 -22.646  1.00  0.00     0.008 C
BRANCH  22  23
HETATM   23  C6  UNL     1      -5.100  11.724 -22.281  1.00  0.00     0.015 C
BRANCH  23  24
HETATM   24  C4  UNL     1      -5.897  10.429 -22.383  1.00  0.00     0.051 C
HETATM   25  C5  UNL     1      -5.845   9.648 -21.113  1.00  0.00     0.022 C
BRANCH  24  26
HETATM   26  S1  UNL     1      -5.427   9.410 -23.778  1.00  0.00    -0.088 SA
BRANCH  26  27
HETATM   27  C3  UNL     1      -3.946   8.478 -23.463  1.00  0.00     0.185 C
HETATM   28  O1  UNL     1      -2.864   9.039 -23.527  1.00  0.00    -0.286 OA
BRANCH  27  29
HETATM   29  C2  UNL     1      -4.062   7.040 -23.128  1.00  0.00     0.086 C
HETATM   30  C1  UNL     1      -2.621   6.526 -22.967  1.00  0.00     0.013 C
ENDBRANCH  27  29
ENDBRANCH  26  27
ENDBRANCH  24  26
ENDBRANCH  23  24
ENDBRANCH  22  23
ENDBRANCH  21  22
ENDBRANCH  19  21
ENDBRANCH   1  19
BRANCH   3  31
HETATM   31  O3  UNL     1      -5.291  17.574 -27.054  1.00  0.00    -0.395 OA
ATOM     32  H3  UNL     1      -4.688  17.431 -27.775  1.00  0.00     0.210 HD
ENDBRANCH   3  31
BRANCH  15  33
HETATM   33  O4  UNL     1      -2.047  12.509 -26.408  1.00  0.00    -0.395 OA
ATOM     34  H4  UNL     1      -1.288  11.965 -26.233  1.00  0.00     0.210 HD
ENDBRANCH  15  33
BRANCH   8  35
HETATM   35  C18 UNL     1      -1.221  17.597 -22.730  1.00  0.00     0.093 C
HETATM   36  N1  UNL     1      -0.095  18.036 -22.275  1.00  0.00    -0.402 N
HETATM   37  C19 UNL     1       0.064  18.580 -20.943  1.00  0.00     0.145 C
ATOM     38  H1  UNL     1       0.722  17.996 -22.883  1.00  0.00     0.158 HD
ENDBRANCH   8  35
TORSDOF 11
ENDMDL