MODEL 5
REMARK VINA RESULT: -6.065240219      1.646      1.818
REMARK  12 active torsions:
REMARK  status: ('A' for Active; 'I' for Inactive)
REMARK    1  A    between atoms: C2_2  and  C3_3
REMARK    2  A    between atoms: C3_3  and  C4_4
REMARK    3  A    between atoms: C4_4  and  O1_5
REMARK    4  A    between atoms: O1_5  and  C5_6
REMARK    5  A    between atoms: C5_6  and  C6_7
REMARK    6  A    between atoms: C8_9  and  O2_10
REMARK    7  A    between atoms: C9_12  and  O3_13
REMARK    8  A    between atoms: C10_15  and  S1_16
REMARK    9  A    between atoms: C12_19  and  C13_20
REMARK   10  A    between atoms: C13_20  and  O5_21
REMARK   11  A    between atoms: C14_23  and  N1_24
REMARK   12  A    between atoms: N1_24  and  N2_26
ROOT
HETATM    1  C5  UNL     1       8.371  13.865  23.270  1.00  0.00     0.131 C
HETATM    2  C8  UNL     1       9.160  12.816  22.528  1.00  0.00     0.190 C
HETATM    3  C9  UNL     1      10.607  12.905  22.485  1.00  0.00     0.189 C
HETATM    4  C10 UNL     1      11.181  12.719  23.881  1.00  0.00     0.214 C
HETATM    5  O4  UNL     1      11.002  13.875  24.543  1.00  0.00    -0.360 OA
HETATM    6  C12 UNL     1       9.914  14.109  25.285  1.00  0.00     0.197 C
HETATM    7  C14 UNL     1       8.558  13.774  24.770  1.00  0.00     0.073 C
ENDROOT
BRANCH   1   8
HETATM    8  O1  UNL     1       7.122  13.532  23.017  1.00  0.00    -0.371 OA
BRANCH   8   9
HETATM    9  C4  UNL     1       5.964  14.012  22.939  1.00  0.00     0.169 C
BRANCH   9  10
HETATM   10  C3  UNL     1       5.277  14.990  23.812  1.00  0.00     0.026 C
BRANCH  10  11
HETATM   11  C2  UNL     1       4.906  16.184  22.898  1.00  0.00    -0.002 C
HETATM   12  C1  UNL     1       3.914  17.084  23.566  1.00  0.00     0.005 C
ENDBRANCH  10  11
ENDBRANCH   9  10
ENDBRANCH   8   9
ENDBRANCH   1   8
BRANCH   1  13
HETATM   13  C6  UNL     1       8.768  15.272  22.891  1.00  0.00     0.043 C
HETATM   14  C7  UNL     1       8.314  15.823  21.619  1.00  0.00     0.009 C
ENDBRANCH   1  13
BRANCH   2  15
HETATM   15  O2  UNL     1       8.641  12.674  21.249  1.00  0.00    -0.389 OA
ATOM     16  H2  UNL     1       8.188  13.473  21.006  1.00  0.00     0.210 HD
ENDBRANCH   2  15
BRANCH   7  17
HETATM   17  N1  UNL     1       7.975  12.708  25.444  1.00  0.00    -0.289 N
ATOM     18  H1  UNL     1       8.581  11.888  25.433  1.00  0.00     0.188 HD
BRANCH  17  19
HETATM   19  N2  UNL     1       6.968  12.489  26.028  1.00  0.00    -0.249 N
HETATM   20  N3  UNL     1       6.176  12.418  26.938  1.00  0.00    -0.331 N
ATOM     21  H32 UNL     1       6.789  12.795  27.662  1.00  0.00     0.178 HD
ATOM     22  H31 UNL     1       5.309  12.230  27.441  1.00  0.00     0.178 HD
ATOM     23  H2  UNL     1       6.398  12.118  25.267  1.00  0.00     0.207 HD
ENDBRANCH  17  19
ENDBRANCH   7  17
BRANCH   3  24
HETATM   24  O3  UNL     1      11.183  13.947  21.804  1.00  0.00    -0.389 OA
ATOM     25  H3  UNL     1      11.964  14.351  22.164  1.00  0.00     0.210 HD
ENDBRANCH   3  24
BRANCH   6  26
HETATM   26  C13 UNL     1      10.109  13.420  26.630  1.00  0.00     0.202 C
BRANCH  26  27
HETATM   27  O5  UNL     1      10.943  14.187  27.439  1.00  0.00    -0.398 OA
ATOM     28  H5  UNL     1      10.436  14.854  27.885  1.00  0.00     0.209 HD
ENDBRANCH  26  27
ENDBRANCH   6  26
BRANCH   4  29
HETATM   29  S1  UNL     1      12.967  12.392  23.813  1.00  0.00    -0.139 SA
HETATM   30  C11 UNL     1      13.495  11.239  25.079  1.00  0.00     0.092 C
ENDBRANCH   4  29
TORSDOF 12
ENDMDL