MODEL 5
REMARK VINA RESULT: -6.761858976      2.154      3.572
REMARK  11 active torsions:
REMARK  status: ('A' for Active; 'I' for Inactive)
REMARK    1  A    between atoms: C2_2  and  C3_3
REMARK    2  A    between atoms: C3_3  and  N1_4
REMARK    3  A    between atoms: N1_4  and  C4_6
REMARK    4  A    between atoms: C5_9  and  C6_10
REMARK    5  A    between atoms: C6_10  and  N3_11
REMARK    6  A    between atoms: N4_14  and  C9_15
REMARK    7  A    between atoms: C9_15  and  C10_16
REMARK    8  A    between atoms: C10_16  and  C11_17
REMARK    9  A    between atoms: C11_17  and  C12_18
REMARK   10  A    between atoms: C12_18  and  O1_19
REMARK   11  A    between atoms: N5_21  and  O2_23
ROOT
HETATM    1  N3  UNL     1       7.460  15.096  26.101  1.00  0.00     0.097 N
HETATM    2  C7  UNL     1       8.867  15.279  25.911  1.00  0.00     0.292 C
HETATM    3  C8  UNL     1       9.707  14.253  26.682  1.00  0.00     0.147 C
HETATM    4  N4  UNL     1       9.236  12.927  26.526  1.00  0.00    -0.409 N
HETATM    5  C13 UNL     1       7.837  12.775  26.783  1.00  0.00     0.147 C
HETATM    6  C14 UNL     1       7.192  14.109  27.121  1.00  0.00     0.292 C
ENDROOT
BRANCH   1   7
HETATM    7  C6  UNL     1       6.824  16.321  26.538  1.00  0.00     0.330 C
BRANCH   7   8
HETATM    8  C5  UNL     1       5.610  16.613  25.680  1.00  0.00     0.046 A
HETATM    9  N2  UNL     1       4.526  17.166  26.148  1.00  0.00    -0.338 N
HETATM   10  C4  UNL     1       3.510  17.380  25.317  1.00  0.00     0.144 A
ATOM     11  H2  UNL     1       4.460  17.428  27.131  1.00  0.00     0.168 HD
HETATM   12  S1  UNL     1       4.091  16.786  23.830  1.00  0.00    -0.064 SA
HETATM   13  C15 UNL     1       5.639  16.283  24.352  1.00  0.00     0.080 A
BRANCH  10  14
HETATM   14  N1  UNL     1       2.337  17.912  25.556  1.00  0.00    -0.370 N
ATOM     15  H1  UNL     1       1.504  17.328  25.637  1.00  0.00     0.161 HD
BRANCH  14  16
HETATM   16  C3  UNL     1       2.253  19.349  25.703  1.00  0.00     0.121 C
BRANCH  16  17
HETATM   17  C2  UNL     1       3.373  20.041  24.943  1.00  0.00     0.015 C
HETATM   18  C1  UNL     1       2.900  20.545  23.604  1.00  0.00     0.006 C
ENDBRANCH  16  17
ENDBRANCH  14  16
ENDBRANCH  10  14
ENDBRANCH   7   8
ENDBRANCH   1   7
BRANCH   4  19
HETATM   19  C9  UNL     1       9.742  12.260  25.381  1.00  0.00     0.117 C
BRANCH  19  20
HETATM   20  C10 UNL     1       8.651  11.823  24.441  1.00  0.00     0.027 C
BRANCH  20  21
HETATM   21  C11 UNL     1       8.832  12.491  23.095  1.00  0.00     0.087 C
BRANCH  21  22
HETATM   22  C12 UNL     1       7.673  13.393  22.896  1.00  0.00     0.135 C
HETATM   23  N5  UNL     1       7.810  14.415  22.146  1.00  0.00    -0.251 N
ATOM     24  H5  UNL     1       7.012  15.036  22.008  1.00  0.00     0.196 HD
BRANCH  22  25
HETATM   25  O1  UNL     1       6.485  13.087  23.534  1.00  0.00    -0.348 OA
ATOM     26  H1  UNL     1       5.671  13.216  23.059  1.00  0.00     0.219 HD
ENDBRANCH  22  25
BRANCH  23  27
HETATM   27  O2  UNL     1       8.984  14.705  21.524  1.00  0.00    -0.288 OA
ATOM     28  H2  UNL     1       9.129  14.522  20.604  1.00  0.00     0.244 HD
ENDBRANCH  23  27
ENDBRANCH  21  22
ENDBRANCH  20  21
ENDBRANCH  19  20
ENDBRANCH   4  19
TORSDOF 11
ENDMDL