MODEL 5
REMARK VINA RESULT: -7.412461938      2.764      8.224
REMARK  11 active torsions:
REMARK  status: ('A' for Active; 'I' for Inactive)
REMARK    1  A    between atoms: C1_2  and  C2_3
REMARK       I    between atoms: C1_2  and  N3_22
REMARK    2  A    between atoms: C2_3  and  C3_4
REMARK    3  A    between atoms: N1_6  and  C4_7
REMARK    4  A    between atoms: C4_7  and  C5_8
REMARK    5  A    between atoms: C5_8  and  C6_9
REMARK    6  A    between atoms: C6_9  and  C7_10
REMARK    7  A    between atoms: C7_10  and  C8_11
REMARK    8  A    between atoms: C8_11  and  C9_12
REMARK    9  A    between atoms: C9_12  and  O2_13
REMARK   10  A    between atoms: N2_15  and  O3_17
REMARK   11  A    between atoms: C10_19  and  O4_20
ROOT
HETATM    1  C3  UNL     1       8.022  13.392  24.634  1.00  0.00     0.060 A
HETATM    2  S1  UNL     1       8.206  14.877  23.839  1.00  0.00    -0.010 SA
HETATM    3  N1  UNL     1       6.814  15.111  24.712  1.00  0.00    -0.297 N
HETATM    4  C10 UNL     1       6.876  13.867  25.225  1.00  0.00     0.163 A
ENDROOT
BRANCH   3   5
HETATM    5  C4  UNL     1       5.911  16.268  24.824  1.00  0.00     0.139 C
BRANCH   5   6
HETATM    6  C5  UNL     1       4.630  16.010  24.101  1.00  0.00     0.021 C
BRANCH   6   7
HETATM    7  C6  UNL     1       4.432  16.949  22.930  1.00  0.00     0.002 C
BRANCH   7   8
HETATM    8  C7  UNL     1       3.548  18.114  23.290  1.00  0.00     0.008 C
BRANCH   8   9
HETATM    9  C8  UNL     1       2.642  17.788  24.442  1.00  0.00     0.086 C
BRANCH   9  10
HETATM   10  C9  UNL     1       2.309  18.966  25.267  1.00  0.00     0.135 C
HETATM   11  N2  UNL     1       1.945  18.841  26.484  1.00  0.00    -0.251 N
ATOM     12  H2  UNL     1       1.729  19.695  27.000  1.00  0.00     0.196 HD
BRANCH  10  13
HETATM   13  O2  UNL     1       2.395  20.222  24.707  1.00  0.00    -0.348 OA
ATOM     14  H2  UNL     1       2.836  20.913  25.187  1.00  0.00     0.219 HD
ENDBRANCH  10  13
BRANCH  11  15
HETATM   15  O3  UNL     1       1.821  17.650  27.154  1.00  0.00    -0.288 OA
ATOM     16  H3  UNL     1       1.832  17.549  28.099  1.00  0.00     0.244 HD
ENDBRANCH  11  15
ENDBRANCH   9  10
ENDBRANCH   8   9
ENDBRANCH   7   8
ENDBRANCH   6   7
ENDBRANCH   5   6
ENDBRANCH   3   5
BRANCH   4  17
HETATM   17  O4  UNL     1       5.975  13.260  26.130  1.00  0.00    -0.345 OA
ATOM     18  H4  UNL     1       5.469  13.623  26.847  1.00  0.00     0.219 HD
ENDBRANCH   4  17
BRANCH   1  19
HETATM   19  C2  UNL     1       8.816  12.144  24.630  1.00  0.00     0.155 C
BRANCH  19  20
HETATM   20  C1  UNL     1      10.261  12.342  24.842  1.00  0.00     0.224 C
HETATM   21  O1  UNL     1      10.698  12.463  26.005  1.00  0.00    -0.273 OA
HETATM   22  N3  UNL     1      11.133  12.396  23.751  1.00  0.00    -0.348 N
HETATM   23  C11 UNL     1      10.661  12.252  22.393  1.00  0.00     0.152 C
HETATM   24  C14 UNL     1      12.550  12.604  23.944  1.00  0.00     0.152 C
HETATM   25  C12 UNL     1      11.322  13.202  21.450  1.00  0.00     0.187 C
HETATM   26  O5  UNL     1      12.648  13.441  21.670  1.00  0.00    -0.388 OA
HETATM   27  C13 UNL     1      12.976  13.715  22.983  1.00  0.00     0.187 C
ENDBRANCH  19  20
ENDBRANCH   1  19
TORSDOF 11
ENDMDL