MODEL 2
REMARK VINA RESULT: -6.908180517      1.189      1.298
REMARK  9 active torsions:
REMARK  status: ('A' for Active; 'I' for Inactive)
REMARK    1  A    between atoms: S1_2  and  C2_3
REMARK    2  A    between atoms: C2_3  and  C3_4
REMARK    3  A    between atoms: C4_5  and  O1_6
REMARK    4  A    between atoms: C4_5  and  C5_8
REMARK    5  A    between atoms: C5_8  and  C6_9
REMARK    6  A    between atoms: C6_9  and  C7_10
REMARK    7  A    between atoms: C8_11  and  C9_12
REMARK    8  A    between atoms: C9_12  and  C10_13
REMARK    9  A    between atoms: C10_13  and  C11_14
ROOT
HETATM    1  C9  UNL     1       8.683  15.049  25.257  1.00  0.00     0.087 C
ENDROOT
BRANCH   1   2
HETATM    2  C8  UNL     1       7.332  14.887  24.620  1.00  0.00    -0.027 C
HETATM    3  C7  UNL     1       7.211  15.202  23.347  1.00  0.00    -0.030 C
BRANCH   3   4
HETATM    4  C6  UNL     1       5.959  15.098  22.602  1.00  0.00     0.033 C
BRANCH   4   5
HETATM    5  C5  UNL     1       5.138  16.345  22.597  1.00  0.00     0.068 C
BRANCH   5   6
HETATM    6  C4  UNL     1       4.137  16.396  23.666  1.00  0.00     0.040 C
HETATM    7  C3  UNL     1       3.385  17.478  23.801  1.00  0.00     0.015 C
BRANCH   7   8
HETATM    8  C2  UNL     1       3.440  18.646  22.974  1.00  0.00     0.103 C
BRANCH   8   9
HETATM    9  S1  UNL     1       3.047  20.184  23.900  1.00  0.00    -0.170 SA
HETATM   10  C1  UNL     1       2.338  19.767  25.509  1.00  0.00     0.090 C
ENDBRANCH   8   9
ENDBRANCH   7   8
BRANCH   6  11
HETATM   11  O1  UNL     1       3.964  15.335  24.551  1.00  0.00    -0.365 OA
ATOM     12  H1  UNL     1       3.433  14.593  24.286  1.00  0.00     0.217 HD
ENDBRANCH   6  11
ENDBRANCH   5   6
ENDBRANCH   4   5
ENDBRANCH   3   4
ENDBRANCH   1   2
BRANCH   1  13
HETATM   13  C10 UNL     1       8.998  13.825  26.106  1.00  0.00     0.242 C
HETATM   14  O4  UNL     1       9.005  12.706  25.279  1.00  0.00    -0.323 OA
HETATM   15  C12 UNL     1      10.233  12.613  24.682  1.00  0.00     0.168 C
HETATM   16  C13 UNL     1      10.064  12.867  23.203  1.00  0.00     0.079 C
HETATM   17  C14 UNL     1      10.826  11.247  24.956  1.00  0.00     0.079 C
HETATM   18  O5  UNL     1      11.094  13.558  25.296  1.00  0.00    -0.281 OA
HETATM   19  C15 UNL     1      10.440  13.927  26.471  1.00  0.00     0.308 C
HETATM   20  O6  UNL     1      10.945  14.266  27.586  1.00  0.00    -0.261 OA
BRANCH  13  21
HETATM   21  C11 UNL     1       8.128  13.677  27.266  1.00  0.00     0.220 C
HETATM   22  O2  UNL     1       7.535  12.601  27.473  1.00  0.00    -0.645 OA
HETATM   23  O3  UNL     1       7.957  14.729  28.146  1.00  0.00    -0.645 OA
ENDBRANCH  13  21
ENDBRANCH   1  13
TORSDOF 9
ENDMDL