MODEL 4
REMARK VINA RESULT: -7.697118599      2.357      4.060
REMARK  10 active torsions:
REMARK  status: ('A' for Active; 'I' for Inactive)
REMARK    1  A    between atoms: S1_2  and  C1_5
REMARK    2  A    between atoms: C1_5  and  C2_6
REMARK    3  A    between atoms: C2_6  and  C3_7
REMARK    4  A    between atoms: C3_7  and  C4_8
REMARK    5  A    between atoms: C4_8  and  C5_9
REMARK    6  A    between atoms: C5_9  and  C6_10
REMARK    7  A    between atoms: C6_10  and  N1_11
REMARK    8  A    between atoms: C11_18  and  C12_19
REMARK    9  A    between atoms: C12_19  and  O4_20
REMARK   10  A    between atoms: N3_22  and  O5_24
ROOT
HETATM    1  N1  UNL     1       7.500  15.120  25.919  1.00  0.00    -0.345 N
HETATM    2  C7  UNL     1       7.410  14.680  27.184  1.00  0.00     0.183 A
HETATM    3  N2  UNL     1       8.371  13.766  27.412  1.00  0.00    -0.354 N
ATOM      4  H2  UNL     1       8.527  13.274  28.292  1.00  0.00     0.166 HD
HETATM    5  C8  UNL     1       9.088  13.611  26.288  1.00  0.00     0.035 A
HETATM    6  C9  UNL     1       8.545  14.459  25.349  1.00  0.00     0.038 A
HETATM    7  C10 UNL     1       8.992  14.652  23.937  1.00  0.00     0.099 C
HETATM    8  C11 UNL     1       8.877  13.316  23.184  1.00  0.00     0.203 C
HETATM    9  O6  UNL     1       9.169  12.250  23.980  1.00  0.00    -0.377 OA
HETATM   10  C13 UNL     1      10.320  12.247  24.688  1.00  0.00     0.175 C
HETATM   11  C14 UNL     1      10.243  12.701  26.103  1.00  0.00     0.085 C
ENDROOT
BRANCH   1  12
HETATM   12  C6  UNL     1       6.666  16.104  25.253  1.00  0.00     0.130 C
BRANCH  12  13
HETATM   13  C5  UNL     1       5.602  15.322  24.512  1.00  0.00     0.020 C
BRANCH  13  14
HETATM   14  C4  UNL     1       5.547  15.752  23.095  1.00  0.00     0.002 C
BRANCH  14  15
HETATM   15  C3  UNL     1       4.513  16.845  22.904  1.00  0.00     0.001 C
BRANCH  15  16
HETATM   16  C2  UNL     1       3.644  17.042  24.094  1.00  0.00     0.018 C
BRANCH  16  17
HETATM   17  C1  UNL     1       2.574  18.064  23.924  1.00  0.00     0.165 C
BRANCH  17  18
HETATM   18  S1  UNL     1       2.946  19.594  24.695  1.00  0.00     0.101 S
HETATM   19  O1  UNL     1       2.097  19.704  25.958  1.00  0.00    -0.595 OA
HETATM   20  O2  UNL     1       4.408  19.547  25.099  1.00  0.00    -0.595 OA
HETATM   21  O3  UNL     1       2.687  20.894  23.707  1.00  0.00    -0.595 OA
ENDBRANCH  17  18
ENDBRANCH  16  17
ENDBRANCH  15  16
ENDBRANCH  14  15
ENDBRANCH  13  14
ENDBRANCH  12  13
ENDBRANCH   1  12
BRANCH   8  22
HETATM   22  C12 UNL     1       9.603  13.401  21.923  1.00  0.00     0.165 C
HETATM   23  N3  UNL     1       9.198  12.721  20.905  1.00  0.00    -0.249 N
ATOM     24  H3  UNL     1       8.369  12.137  21.017  1.00  0.00     0.196 HD
BRANCH  22  25
HETATM   25  O4  UNL     1      10.735  14.175  21.703  1.00  0.00    -0.346 OA
ATOM     26  H4  UNL     1      11.416  13.980  21.071  1.00  0.00     0.219 HD
ENDBRANCH  22  25
BRANCH  23  27
HETATM   27  O5  UNL     1       9.816  12.738  19.680  1.00  0.00    -0.288 OA
ATOM     28  H5  UNL     1      10.460  12.097  19.404  1.00  0.00     0.244 HD
ENDBRANCH  23  27
ENDBRANCH   8  22
TORSDOF 10
ENDMDL