MODEL 3
REMARK VINA RESULT: -8.840546046      2.304      3.944
REMARK  10 active torsions:
REMARK  status: ('A' for Active; 'I' for Inactive)
REMARK    1  A    between atoms: C1_2  and  C2_3
REMARK    2  A    between atoms: C1_2  and  C12_13
REMARK    3  A    between atoms: C2_3  and  C3_4
REMARK    4  A    between atoms: C3_4  and  C4_5
REMARK    5  A    between atoms: C4_5  and  C5_6
REMARK    6  A    between atoms: C5_6  and  C6_7
REMARK       I    between atoms: N2_16  and  C13_17
REMARK    7  A    between atoms: C13_17  and  C14_19
REMARK    8  A    between atoms: C14_19  and  C15_20
REMARK    9  A    between atoms: C15_20  and  O3_21
REMARK   10  A    between atoms: C17_25  and  O5_26
ROOT
HETATM    1  C12 UNL     1       8.505  14.604  23.606  1.00  0.00     0.133 A
HETATM    2  N1  UNL     1       8.404  14.875  24.923  1.00  0.00    -0.282 N
ATOM      3  H1  UNL     1       7.628  15.379  25.354  1.00  0.00     0.188 HD
HETATM    4  N2  UNL     1       9.452  14.394  25.582  1.00  0.00    -0.184 N
HETATM    5  C13 UNL     1       9.660  14.506  26.985  1.00  0.00     0.247 C
HETATM    6  O2  UNL     1      10.683  14.018  27.516  1.00  0.00    -0.271 OA
HETATM    7  C16 UNL     1      10.288  13.785  24.722  1.00  0.00     0.305 A
HETATM    8  O4  UNL     1      11.386  13.210  24.972  1.00  0.00    -0.263 OA
HETATM    9  C17 UNL     1       9.689  13.917  23.463  1.00  0.00     0.168 A
ENDROOT
BRANCH   1  10
HETATM   10  C1  UNL     1       7.550  14.972  22.569  1.00  0.00     0.180 C
HETATM   11  O1  UNL     1       7.829  15.722  21.612  1.00  0.00    -0.291 OA
BRANCH  10  12
HETATM   12  C2  UNL     1       6.144  14.421  22.645  1.00  0.00     0.085 C
BRANCH  12  13
HETATM   13  C3  UNL     1       5.351  15.338  23.491  1.00  0.00     0.008 C
BRANCH  13  14
HETATM   14  C4  UNL     1       4.788  16.550  22.876  1.00  0.00     0.001 C
BRANCH  14  15
HETATM   15  C5  UNL     1       3.644  17.279  23.432  1.00  0.00     0.004 C
BRANCH  15  16
HETATM   16  C6  UNL     1       3.821  18.588  24.104  1.00  0.00    -0.014 C
HETATM   17  C7  UNL     1       4.530  18.340  25.449  1.00  0.00     0.004 C
HETATM   18  C8  UNL     1       3.672  17.471  26.310  1.00  0.00     0.000 C
HETATM   19  C9  UNL     1       2.273  17.982  26.378  1.00  0.00     0.000 C
HETATM   20  C10 UNL     1       2.139  19.356  25.769  1.00  0.00     0.000 C
HETATM   21  C11 UNL     1       2.547  19.330  24.303  1.00  0.00     0.004 C
ENDBRANCH  15  16
ENDBRANCH  14  15
ENDBRANCH  13  14
ENDBRANCH  12  13
ENDBRANCH  10  12
ENDBRANCH   1  10
BRANCH   9  22
HETATM   22  O5  UNL     1      10.188  13.440  22.259  1.00  0.00    -0.354 OA
ATOM     23  H5  UNL     1      10.699  13.951  21.642  1.00  0.00     0.218 HD
ENDBRANCH   9  22
BRANCH   5  24
HETATM   24  C14 UNL     1       8.661  15.205  27.835  1.00  0.00     0.131 C
BRANCH  24  25
HETATM   25  C15 UNL     1       7.436  14.357  28.069  1.00  0.00     0.173 C
BRANCH  25  26
HETATM   26  O3  UNL     1       7.849  13.062  28.378  1.00  0.00    -0.400 OA
ATOM     27  H3  UNL     1       7.319  12.743  29.099  1.00  0.00     0.209 HD
ENDBRANCH  25  26
ENDBRANCH  24  25
ENDBRANCH   5  24
TORSDOF 10
ENDMDL