MODEL 4
REMARK VINA RESULT: -7.488491956      1.814      3.538
REMARK  13 active torsions:
REMARK  status: ('A' for Active; 'I' for Inactive)
REMARK    1  A    between atoms: C2_2  and  C3_3
REMARK    2  A    between atoms: C3_3  and  C4_4
REMARK    3  A    between atoms: C5_5  and  C6_6
REMARK    4  A    between atoms: C7_7  and  C8_8
REMARK    5  A    between atoms: C9_9  and  C10_10
REMARK    6  A    between atoms: C10_10  and  C11_11
REMARK    7  A    between atoms: C10_10  and  O2_14
REMARK    8  A    between atoms: C11_11  and  O1_12
REMARK    9  A    between atoms: O2_14  and  C12_15
REMARK   10  A    between atoms: C15_19  and  O4_20
REMARK   11  A    between atoms: C16_22  and  O5_23
REMARK   12  A    between atoms: C17_25  and  S1_26
REMARK   13  A    between atoms: S1_26  and  O6_27
ROOT
HETATM    1  C12 UNL     1       7.811  14.488  25.204  1.00  0.00     0.279 C
HETATM    2  O3  UNL     1       8.925  15.214  24.948  1.00  0.00    -0.352 OA
HETATM    3  C13 UNL     1      10.012  14.732  25.621  1.00  0.00     0.152 C
HETATM    4  C14 UNL     1      10.750  13.802  24.647  1.00  0.00     0.042 C
HETATM    5  C15 UNL     1       9.711  14.033  26.908  1.00  0.00     0.176 C
HETATM    6  C16 UNL     1       8.417  14.410  27.551  1.00  0.00     0.170 C
HETATM    7  C17 UNL     1       7.361  14.890  26.619  1.00  0.00     0.162 C
ENDROOT
BRANCH   1   8
HETATM    8  O2  UNL     1       7.805  13.149  24.985  1.00  0.00    -0.349 OA
BRANCH   8   9
HETATM    9  C10 UNL     1       7.371  12.706  23.759  1.00  0.00     0.171 C
BRANCH   9  10
HETATM   10  C9  UNL     1       7.313  13.691  22.694  1.00  0.00     0.007 C
HETATM   11  C8  UNL     1       6.308  14.536  22.557  1.00  0.00    -0.001 C
BRANCH  11  12
HETATM   12  C7  UNL     1       5.212  14.523  23.468  1.00  0.00    -0.000 C
HETATM   13  C6  UNL     1       4.411  15.539  23.663  1.00  0.00    -0.000 C
BRANCH  13  14
HETATM   14  C5  UNL     1       4.523  16.812  22.985  1.00  0.00    -0.004 C
HETATM   15  C4  UNL     1       3.793  17.868  23.264  1.00  0.00    -0.027 C
BRANCH  15  16
HETATM   16  C3  UNL     1       2.772  17.891  24.303  1.00  0.00     0.027 C
BRANCH  16  17
HETATM   17  C2  UNL     1       2.450  19.300  24.796  1.00  0.00    -0.001 C
HETATM   18  C1  UNL     1       3.010  20.231  23.712  1.00  0.00     0.005 C
ENDBRANCH  16  17
ENDBRANCH  15  16
ENDBRANCH  13  14
ENDBRANCH  11  12
ENDBRANCH   9  10
BRANCH   9  19
HETATM   19  C11 UNL     1       8.081  11.410  23.362  1.00  0.00     0.200 C
BRANCH  19  20
HETATM   20  O1  UNL     1       7.715  10.360  24.198  1.00  0.00    -0.398 OA
ATOM     21  H1  UNL     1       8.469  10.009  24.658  1.00  0.00     0.209 HD
ENDBRANCH  19  20
ENDBRANCH   9  19
ENDBRANCH   8   9
ENDBRANCH   1   8
BRANCH   7  22
HETATM   22  S1  UNL     1       7.004  16.629  26.709  1.00  0.00    -0.003 SA
BRANCH  22  23
HETATM   23  O6  UNL     1       5.553  16.988  26.696  1.00  0.00    -0.329 OA
ATOM     24  H6  UNL     1       4.960  16.280  26.473  1.00  0.00     0.227 HD
ENDBRANCH  22  23
ENDBRANCH   7  22
BRANCH   6  25
HETATM   25  O5  UNL     1       8.602  15.402  28.541  1.00  0.00    -0.391 OA
ATOM     26  H5  UNL     1       8.757  16.254  28.153  1.00  0.00     0.210 HD
ENDBRANCH   6  25
BRANCH   5  27
HETATM   27  O4  UNL     1      10.734  14.281  27.820  1.00  0.00    -0.390 OA
ATOM     28  H4  UNL     1      10.438  14.059  28.695  1.00  0.00     0.210 HD
ENDBRANCH   5  27
TORSDOF 13
ENDMDL