MODEL 5
REMARK VINA RESULT: -7.609037513      3.332      7.607
REMARK  10 active torsions:
REMARK  status: ('A' for Active; 'I' for Inactive)
REMARK    1  A    between atoms: O1_1  and  C1_3
REMARK    2  A    between atoms: N1_7  and  C5_8
REMARK    3  A    between atoms: C5_8  and  C6_9
REMARK    4  A    between atoms: N2_11  and  C8_12
REMARK    5  A    between atoms: C8_12  and  C9_13
REMARK    6  A    between atoms: C9_13  and  C10_14
REMARK    7  A    between atoms: C10_14  and  C11_15
REMARK    8  A    between atoms: C11_15  and  C12_16
REMARK    9  A    between atoms: C12_16  and  C13_17
REMARK   10  A    between atoms: C18_29  and  O2_30
ROOT
HETATM    1  C6  UNL     1       8.931  13.676  26.716  1.00  0.00     0.061 A
HETATM    2  C7  UNL     1       8.436  14.830  26.143  1.00  0.00     0.139 A
HETATM    3  N2  UNL     1       7.230  15.099  26.664  1.00  0.00    -0.287 N
HETATM    4  N4  UNL     1       6.971  14.153  27.532  1.00  0.00    -0.241 N
ATOM      5  H4  UNL     1       6.119  14.090  28.091  1.00  0.00     0.208 HD
HETATM    6  N5  UNL     1       7.972  13.290  27.582  1.00  0.00    -0.287 N
ATOM      7  H5  UNL     1       8.013  12.465  28.180  1.00  0.00     0.188 HD
ENDROOT
BRANCH   3   8
HETATM    8  C8  UNL     1       6.445  16.254  26.264  1.00  0.00     0.150 C
BRANCH   8   9
HETATM    9  C9  UNL     1       6.454  16.280  24.745  1.00  0.00     0.022 C
BRANCH   9  10
HETATM   10  C10 UNL     1       5.652  15.028  24.301  1.00  0.00     0.002 C
BRANCH  10  11
HETATM   11  C11 UNL     1       4.525  15.529  23.481  1.00  0.00     0.002 C
BRANCH  11  12
HETATM   12  C12 UNL     1       4.325  16.978  23.341  1.00  0.00     0.033 C
BRANCH  12  13
HETATM   13  C13 UNL     1       3.445  17.716  24.253  1.00  0.00     0.185 C
HETATM   14  C14 UNL     1       3.977  19.059  24.653  1.00  0.00     0.033 C
HETATM   15  C15 UNL     1       2.699  19.889  24.939  1.00  0.00     0.004 C
HETATM   16  C16 UNL     1       1.966  19.185  26.018  1.00  0.00     0.027 C
HETATM   17  C17 UNL     1       2.400  17.838  26.413  1.00  0.00     0.232 C
HETATM   18  N3  UNL     1       2.931  16.985  25.387  1.00  0.00    -0.071 N
ATOM     19  H32 UNL     1       2.238  16.297  25.092  1.00  0.00     0.277 HD
ATOM     20  H31 UNL     1       3.639  16.357  25.766  1.00  0.00     0.277 HD
ENDBRANCH  12  13
ENDBRANCH  11  12
ENDBRANCH  10  11
ENDBRANCH   9  10
ENDBRANCH   8   9
ENDBRANCH   3   8
BRANCH   1  21
HETATM   21  C5  UNL     1      10.207  13.009  26.451  1.00  0.00     0.179 C
BRANCH  21  22
HETATM   22  N1  UNL     1      10.345  12.499  25.125  1.00  0.00    -0.380 N
HETATM   23  C4  UNL     1       9.213  11.800  24.608  1.00  0.00     0.120 C
HETATM   24  C3  UNL     1       9.700  10.934  23.440  1.00  0.00     0.022 C
HETATM   25  C2  UNL     1      10.494  11.751  22.460  1.00  0.00     0.038 C
HETATM   26  C1  UNL     1      10.412  13.214  22.806  1.00  0.00     0.166 C
HETATM   27  C18 UNL     1      10.965  13.404  24.209  1.00  0.00     0.245 C
BRANCH  26  28
HETATM   28  O1  UNL     1      11.231  13.913  21.927  1.00  0.00    -0.391 OA
ATOM     29  H1  UNL     1      11.348  14.792  22.267  1.00  0.00     0.210 HD
ENDBRANCH  26  28
BRANCH  27  30
HETATM   30  O2  UNL     1      12.327  13.110  24.159  1.00  0.00    -0.374 OA
ATOM     31  H2  UNL     1      12.794  13.892  24.429  1.00  0.00     0.212 HD
ENDBRANCH  27  30
ENDBRANCH  21  22
ENDBRANCH   1  21
TORSDOF 10
ENDMDL