MODEL 3
REMARK VINA RESULT: -7.271619291      0.886      1.493
REMARK  12 active torsions:
REMARK  status: ('A' for Active; 'I' for Inactive)
REMARK    1  A    between atoms: C2_2  and  C3_3
REMARK    2  A    between atoms: C3_3  and  O1_4
REMARK    3  A    between atoms: O1_4  and  C4_5
REMARK    4  A    between atoms: C4_5  and  C5_7
REMARK    5  A    between atoms: C6_8  and  C7_9
REMARK       I    between atoms: C7_9  and  N1_11
REMARK    6  A    between atoms: N1_11  and  N2_13
REMARK    7  A    between atoms: C8_15  and  C9_16
REMARK    8  A    between atoms: C12_19  and  C13_20
REMARK    9  A    between atoms: C14_21  and  C15_22
REMARK   10  A    between atoms: C15_22  and  O4_23
REMARK   11  A    between atoms: C15_22  and  N3_25
REMARK   12  A    between atoms: N3_25  and  O5_27
ROOT
HETATM    1  N2  UNL     1       8.584  14.965  21.524  1.00  0.00    -0.308 N
ATOM      2  H2  UNL     1       8.306  15.901  21.229  1.00  0.00     0.186 HD
HETATM    3  C8  UNL     1       8.058  14.440  22.548  1.00  0.00     0.126 C
ENDROOT
BRANCH   3   4
HETATM    4  C9  UNL     1       7.041  15.176  23.321  1.00  0.00     0.022 A
HETATM    5  C10 UNL     1       7.041  15.473  24.658  1.00  0.00     0.021 A
HETATM    6  C11 UNL     1       5.995  16.158  25.132  1.00  0.00     0.020 A
HETATM    7  C12 UNL     1       5.013  16.510  24.255  1.00  0.00     0.005 A
HETATM    8  S1  UNL     1       5.585  15.864  22.771  1.00  0.00    -0.089 SA
BRANCH   7   9
HETATM    9  C13 UNL     1       3.766  17.262  24.521  1.00  0.00     0.023 C
HETATM   10  C14 UNL     1       3.794  18.276  25.341  1.00  0.00     0.059 C
BRANCH  10  11
HETATM   11  C15 UNL     1       2.564  18.997  25.587  1.00  0.00     0.159 C
BRANCH  11  12
HETATM   12  O4  UNL     1       2.122  20.021  24.751  1.00  0.00    -0.345 OA
ATOM     13  H4  UNL     1       1.203  20.148  24.548  1.00  0.00     0.219 HD
ENDBRANCH  11  12
BRANCH  11  14
HETATM   14  N3  UNL     1       1.831  18.711  26.600  1.00  0.00    -0.248 N
ATOM     15  H3  UNL     1       1.110  19.372  26.886  1.00  0.00     0.196 HD
BRANCH  14  16
HETATM   16  O5  UNL     1       1.980  17.547  27.313  1.00  0.00    -0.288 OA
ATOM     17  H5  UNL     1       1.393  17.302  28.019  1.00  0.00     0.244 HD
ENDBRANCH  14  16
ENDBRANCH  11  14
ENDBRANCH  10  11
ENDBRANCH   7   9
ENDBRANCH   3   4
BRANCH   1  18
HETATM   18  N1  UNL     1       9.546  14.257  20.801  1.00  0.00    -0.267 N
HETATM   19  C7  UNL     1      10.274  14.861  19.765  1.00  0.00     0.259 C
HETATM   20  O3  UNL     1      10.062  16.061  19.475  1.00  0.00    -0.267 OA
ATOM     21  H1  UNL     1       9.724  13.279  21.032  1.00  0.00     0.190 HD
BRANCH  19  22
HETATM   22  C6  UNL     1      11.269  14.089  19.034  1.00  0.00     0.082 C
HETATM   23  C5  UNL     1      12.549  14.246  19.274  1.00  0.00     0.088 C
BRANCH  23  24
HETATM   24  C4  UNL     1      13.515  13.459  18.525  1.00  0.00     0.283 C
HETATM   25  O2  UNL     1      14.560  13.038  19.101  1.00  0.00    -0.260 OA
BRANCH  24  26
HETATM   26  O1  UNL     1      13.267  13.188  17.197  1.00  0.00    -0.314 OA
BRANCH  26  27
HETATM   27  C3  UNL     1      13.945  13.857  16.181  1.00  0.00     0.206 C
BRANCH  27  28
HETATM   28  C2  UNL     1      13.091  14.924  15.606  1.00  0.00    -0.011 C
HETATM   29  C1  UNL     1      13.193  16.156  16.050  1.00  0.00     0.009 C
ENDBRANCH  27  28
ENDBRANCH  26  27
ENDBRANCH  24  26
ENDBRANCH  23  24
ENDBRANCH  19  22
ENDBRANCH   1  18
TORSDOF 12
ENDMDL