MODEL 1
REMARK VINA RESULT: -7.735025583      0.000      0.000
REMARK  11 active torsions:
REMARK  status: ('A' for Active; 'I' for Inactive)
REMARK    1  A    between atoms: C2_2  and  C3_3
REMARK    2  A    between atoms: C3_3  and  C4_4
REMARK    3  A    between atoms: C4_4  and  C5_5
REMARK    4  A    between atoms: C5_5  and  C6_6
REMARK    5  A    between atoms: C6_6  and  C7_7
REMARK    6  A    between atoms: C7_7  and  C8_8
REMARK       I    between atoms: C8_8  and  N1_10
REMARK    7  A    between atoms: N1_10  and  C9_12
REMARK    8  A    between atoms: C10_17  and  S1_18
REMARK    9  A    between atoms: S1_18  and  C11_19
REMARK   10  A    between atoms: C11_19  and  C12_20
REMARK   11  A    between atoms: N4_24  and  O4_26
ROOT
HETATM    1  C8  UNL     1       7.986  15.245  27.647  1.00  0.00     0.246 C
HETATM    2  O1  UNL     1       8.692  16.088  28.291  1.00  0.00    -0.268 OA
HETATM    3  N1  UNL     1       8.325  13.902  27.527  1.00  0.00    -0.302 N
ATOM      4  H1  UNL     1       8.516  13.403  28.395  1.00  0.00     0.171 HD
ENDROOT
BRANCH   3   5
HETATM    5  C9  UNL     1       8.425  13.216  26.435  1.00  0.00     0.168 A
HETATM    6  N2  UNL     1       7.513  12.465  25.809  1.00  0.00    -0.278 N
HETATM    7  N3  UNL     1       7.838  11.866  24.743  1.00  0.00    -0.286 N
ATOM      8  H2  UNL     1       6.570  12.376  26.185  1.00  0.00     0.189 HD
HETATM    9  C10 UNL     1       9.066  11.983  24.258  1.00  0.00     0.130 A
ATOM     10  H3  UNL     1       7.151  11.290  24.256  1.00  0.00     0.188 HD
HETATM   11  S2  UNL     1       9.781  13.019  25.411  1.00  0.00    -0.026 SA
BRANCH   9  12
HETATM   12  S1  UNL     1       9.769  11.260  22.784  1.00  0.00    -0.093 SA
BRANCH  12  13
HETATM   13  C11 UNL     1       9.558  12.391  21.385  1.00  0.00     0.194 C
BRANCH  13  14
HETATM   14  C12 UNL     1      10.135  13.699  21.730  1.00  0.00     0.182 C
HETATM   15  O2  UNL     1       9.351  14.656  21.901  1.00  0.00    -0.647 OA
HETATM   16  O3  UNL     1      11.504  13.857  21.862  1.00  0.00    -0.647 OA
ENDBRANCH  13  14
ENDBRANCH  12  13
ENDBRANCH   9  12
ENDBRANCH   3   5
BRANCH   1  17
HETATM   17  C7  UNL     1       6.775  15.747  27.023  1.00  0.00     0.070 C
BRANCH  17  18
HETATM   18  C6  UNL     1       6.781  16.411  25.884  1.00  0.00    -0.021 C
BRANCH  18  19
HETATM   19  C5  UNL     1       5.605  17.234  25.538  1.00  0.00     0.027 C
BRANCH  19  20
HETATM   20  C4  UNL     1       4.616  16.515  24.645  1.00  0.00     0.009 C
BRANCH  20  21
HETATM   21  C3  UNL     1       3.647  17.586  24.161  1.00  0.00     0.054 C
BRANCH  21  22
HETATM   22  C2  UNL     1       2.820  18.024  25.292  1.00  0.00     0.006 C
HETATM   23  C1  UNL     1       2.403  19.438  25.360  1.00  0.00     0.065 C
HETATM   24  N4  UNL     1       2.496  17.140  26.180  1.00  0.00    -0.278 N
ATOM     25  H4  UNL     1       2.819  16.179  26.069  1.00  0.00     0.193 HD
BRANCH  24  26
HETATM   26  O4  UNL     1       1.734  17.466  27.260  1.00  0.00    -0.290 OA
ATOM     27  H4  UNL     1       0.800  17.291  27.279  1.00  0.00     0.244 HD
ENDBRANCH  24  26
ENDBRANCH  21  22
ENDBRANCH  20  21
ENDBRANCH  19  20
ENDBRANCH  18  19
ENDBRANCH  17  18
ENDBRANCH   1  17
TORSDOF 11
ENDMDL