MODEL 3
REMARK VINA RESULT: -7.059388984      0.964      1.422
REMARK  12 active torsions:
REMARK  status: ('A' for Active; 'I' for Inactive)
REMARK    1  A    between atoms: C2_7  and  N3_8
REMARK    2  A    between atoms: N4_11  and  C3_12
REMARK    3  A    between atoms: C3_12  and  C4_13
REMARK    4  A    between atoms: C4_13  and  C5_14
REMARK    5  A    between atoms: C5_14  and  O1_15
REMARK    6  A    between atoms: O1_15  and  C6_16
REMARK    7  A    between atoms: C6_16  and  O3_18
REMARK    8  A    between atoms: O3_18  and  C7_19
REMARK    9  A    between atoms: C7_19  and  O4_20
REMARK   10  A    between atoms: O4_20  and  C8_21
REMARK   11  A    between atoms: C10_26  and  O6_27
REMARK   12  A    between atoms: C11_29  and  C12_30
ROOT
HETATM    1  N1  UNL     1      10.012  36.805 -20.540  1.00  0.00    -0.384 N
ATOM      2  H11 UNL     1       9.515  35.946 -20.305  1.00  0.00     0.157 HD
ATOM      3  H12 UNL     1       9.501  37.476 -21.113  1.00  0.00     0.157 HD
HETATM    4  C1  UNL     1      11.171  36.948 -20.113  1.00  0.00     0.132 A
HETATM    5  N2  UNL     1      11.847  38.116 -20.433  1.00  0.00    -0.176 N
ATOM      6  H2  UNL     1      11.388  38.825 -21.004  1.00  0.00     0.186 HD
HETATM    7  C2  UNL     1      13.085  38.318 -20.004  1.00  0.00     0.685 A
HETATM    8  N4  UNL     1      13.769  37.454 -19.250  1.00  0.00    -0.142 N
HETATM    9  C9  UNL     1      13.143  36.273 -18.902  1.00  0.00     0.148 A
HETATM   10  N5  UNL     1      13.804  35.382 -18.140  1.00  0.00    -0.321 N
ATOM     11  H5  UNL     1      14.754  35.593 -17.835  1.00  0.00     0.169 HD
HETATM   12  C10 UNL     1      13.238  34.220 -17.772  1.00  0.00     0.159 A
HETATM   13  C11 UNL     1      11.964  33.960 -18.189  1.00  0.00     0.103 A
HETATM   14  C13 UNL     1      11.242  34.848 -18.975  1.00  0.00     0.207 A
HETATM   15  O8  UNL     1      10.074  34.555 -19.331  1.00  0.00    -0.286 OA
HETATM   16  C14 UNL     1      11.852  36.054 -19.349  1.00  0.00     0.104 A
ENDROOT
BRANCH   8  17
HETATM   17  C3  UNL     1      15.017  37.682 -18.663  1.00  0.00     0.115 C
BRANCH  17  18
HETATM   18  C4  UNL     1      15.365  38.642 -17.867  1.00  0.00     0.018 C
BRANCH  18  19
HETATM   19  C5  UNL     1      15.151  38.868 -16.451  1.00  0.00     0.210 C
BRANCH  19  20
HETATM   20  O1  UNL     1      15.284  37.644 -15.691  1.00  0.00    -0.294 OA
BRANCH  20  21
HETATM   21  C6  UNL     1      16.301  37.430 -14.818  1.00  0.00     0.408 C
HETATM   22  O2  UNL     1      17.442  37.085 -15.220  1.00  0.00    -0.229 OA
BRANCH  21  23
HETATM   23  O3  UNL     1      16.118  37.589 -13.417  1.00  0.00    -0.272 OA
BRANCH  23  24
HETATM   24  C7  UNL     1      15.930  38.892 -12.907  1.00  0.00     0.360 C
BRANCH  24  25
HETATM   25  O4  UNL     1      14.532  39.106 -12.819  1.00  0.00    -0.302 OA
BRANCH  25  26
HETATM   26  C8  UNL     1      13.913  40.280 -13.197  1.00  0.00     0.400 C
HETATM   27  O5  UNL     1      14.573  41.163 -13.797  1.00  0.00    -0.276 OA
ENDBRANCH  25  26
ENDBRANCH  24  25
ENDBRANCH  23  24
ENDBRANCH  21  23
ENDBRANCH  20  21
ENDBRANCH  19  20
ENDBRANCH  18  19
ENDBRANCH  17  18
ENDBRANCH   8  17
BRANCH   7  28
HETATM   28  N3  UNL     1      13.701  39.390 -20.460  1.00  0.00    -0.234 N
ATOM     29  H32 UNL     1      13.881  39.466 -21.462  1.00  0.00     0.174 HD
ATOM     30  H31 UNL     1      13.883  40.135 -19.787  1.00  0.00     0.174 HD
ENDBRANCH   7  28
BRANCH  12  31
HETATM   31  O6  UNL     1      13.938  33.294 -16.974  1.00  0.00    -0.345 OA
ATOM     32  H6  UNL     1      13.475  32.685 -16.412  1.00  0.00     0.219 HD
ENDBRANCH  12  31
BRANCH  13  33
HETATM   33  C12 UNL     1      11.309  32.696 -17.806  1.00  0.00     0.278 C
HETATM   34  O7  UNL     1      11.016  32.488 -16.601  1.00  0.00    -0.301 OA
ENDBRANCH  13  33
TORSDOF 12
ENDMDL