MODEL 1
REMARK VINA RESULT: -7.336368271      0.000      0.000
REMARK  12 active torsions:
REMARK  status: ('A' for Active; 'I' for Inactive)
REMARK    1  A    between atoms: O1_2  and  C2_3
REMARK    2  A    between atoms: C4_5  and  C5_6
REMARK    3  A    between atoms: C5_6  and  N1_7
REMARK    4  A    between atoms: N1_7  and  N2_8
REMARK    5  A    between atoms: N1_7  and  C6_14
REMARK    6  A    between atoms: N2_8  and  N3_10
REMARK    7  A    between atoms: N3_10  and  N4_11
REMARK    8  A    between atoms: C7_19  and  C8_20
REMARK    9  A    between atoms: N8_22  and  O2_24
REMARK   10  A    between atoms: C9_26  and  N9_27
REMARK   11  A    between atoms: C10_34  and  O3_35
REMARK   12  A    between atoms: C12_37  and  O4_38
ROOT
HETATM    1  N1  UNL     1      15.331  37.738 -18.437  1.00  0.00    -0.090 N
ENDROOT
BRANCH   1   2
HETATM    2  C5  UNL     1      15.951  38.380 -19.574  1.00  0.00     0.227 C
BRANCH   2   3
HETATM    3  C4  UNL     1      14.967  39.163 -20.371  1.00  0.00     0.034 A
HETATM    4  C3  UNL     1      15.351  39.854 -21.504  1.00  0.00     0.066 A
HETATM    5  C2  UNL     1      14.483  40.580 -22.269  1.00  0.00     0.107 A
HETATM    6  C12 UNL     1      13.160  40.608 -21.863  1.00  0.00     0.153 A
HETATM    7  C10 UNL     1      12.738  39.924 -20.727  1.00  0.00     0.179 A
HETATM    8  N11 UNL     1      13.661  39.242 -20.044  1.00  0.00    -0.336 N
ATOM      9  H11 UNL     1      13.353  38.742 -19.210  1.00  0.00     0.168 HD
BRANCH   5  10
HETATM   10  O1  UNL     1      14.903  41.260 -23.397  1.00  0.00    -0.353 OA
HETATM   11  C1  UNL     1      16.083  40.824 -24.033  1.00  0.00     0.210 C
ENDBRANCH   5  10
BRANCH   6  12
HETATM   12  O4  UNL     1      12.246  41.327 -22.600  1.00  0.00    -0.349 OA
HETATM   13  C13 UNL     1      12.021  42.673 -22.254  1.00  0.00     0.210 C
ENDBRANCH   6  12
BRANCH   7  14
HETATM   14  O3  UNL     1      11.392  39.981 -20.356  1.00  0.00    -0.339 OA
HETATM   15  C11 UNL     1      10.921  38.908 -19.562  1.00  0.00     0.211 C
ENDBRANCH   7  14
ENDBRANCH   2   3
ENDBRANCH   1   2
BRANCH   1  16
HETATM   16  N2  UNL     1      14.346  36.767 -18.586  1.00  0.00    -0.139 N
ATOM     17  H2  UNL     1      13.665  36.877 -19.338  1.00  0.00     0.226 HD
BRANCH  16  18
HETATM   18  N3  UNL     1      14.257  35.770 -17.845  1.00  0.00    -0.227 NA
BRANCH  18  19
HETATM   19  N4  UNL     1      14.019  34.698 -17.306  1.00  0.00    -0.259 N
ATOM     20  H42 UNL     1      14.257  34.199 -18.163  1.00  0.00     0.193 HD
ATOM     21  H41 UNL     1      13.773  33.927 -16.685  1.00  0.00     0.193 HD
ENDBRANCH  18  19
ENDBRANCH  16  18
ENDBRANCH   1  16
BRANCH   1  22
HETATM   22  C6  UNL     1      15.722  38.084 -17.117  1.00  0.00     0.717 A
HETATM   23  N5  UNL     1      16.548  37.266 -16.416  1.00  0.00    -0.130 N
HETATM   24  N6  UNL     1      16.950  37.522 -15.202  1.00  0.00    -0.280 N
ATOM     25  H5  UNL     1      16.870  36.407 -16.861  1.00  0.00     0.205 HD
HETATM   26  C7  UNL     1      16.556  38.651 -14.546  1.00  0.00     0.135 A
ATOM     27  H6  UNL     1      17.573  36.864 -14.733  1.00  0.00     0.188 HD
HETATM   28  C9  UNL     1      15.728  39.488 -15.226  1.00  0.00     0.146 A
HETATM   29  N10 UNL     1      15.320  39.196 -16.501  1.00  0.00    -0.172 N
ATOM     30  H10 UNL     1      14.697  39.842 -16.988  1.00  0.00     0.186 HD
BRANCH  26  31
HETATM   31  C8  UNL     1      17.039  38.873 -13.199  1.00  0.00     0.168 C
HETATM   32  N7  UNL     1      16.427  38.010 -12.157  1.00  0.00    -0.078 NA
HETATM   33  N8  UNL     1      17.867  39.653 -12.762  1.00  0.00    -0.253 N
ATOM     34  H8  UNL     1      17.883  39.459 -11.761  1.00  0.00     0.195 HD
BRANCH  33  35
HETATM   35  O2  UNL     1      18.734  40.598 -12.910  1.00  0.00    -0.288 OA
ATOM     36  H2  UNL     1      19.604  40.913 -13.125  1.00  0.00     0.244 HD
ENDBRANCH  33  35
ENDBRANCH  26  31
BRANCH  28  37
HETATM   37  N9  UNL     1      15.307  40.575 -14.687  1.00  0.00    -0.383 N
ATOM     38  H92 UNL     1      15.277  40.628 -13.669  1.00  0.00     0.157 HD
ATOM     39  H91 UNL     1      15.011  41.363 -15.264  1.00  0.00     0.157 HD
ENDBRANCH  28  37
ENDBRANCH   1  22
TORSDOF 12
ENDMDL