MODEL 2
REMARK VINA RESULT: -5.362091098      1.661      2.770
REMARK  12 active torsions:
REMARK  status: ('A' for Active; 'I' for Inactive)
REMARK    1  A    between atoms: C2_2  and  O1_3
REMARK    2  A    between atoms: O1_3  and  C3_4
REMARK    3  A    between atoms: C3_4  and  C4_6
REMARK    4  A    between atoms: C4_6  and  N1_7
REMARK    5  A    between atoms: N1_7  and  O3_8
REMARK    6  A    between atoms: N1_7  and  C6_13
REMARK    7  A    between atoms: O3_8  and  S1_9
REMARK    8  A    between atoms: C7_16  and  N3_17
REMARK    9  A    between atoms: C8_22  and  N5_23
REMARK   10  A    between atoms: C9_26  and  C10_27
REMARK   11  A    between atoms: C10_27  and  O7_29
REMARK   12  A    between atoms: O7_29  and  C11_30
ROOT
HETATM    1  C6  UNL     1      13.455  36.888 -19.303  1.00  0.00     0.165 A
HETATM    2  N2  UNL     1      14.295  37.815 -18.810  1.00  0.00    -0.174 N
ATOM      3  H2  UNL     1      14.381  38.700 -19.310  1.00  0.00     0.186 HD
HETATM    4  C7  UNL     1      15.027  37.640 -17.697  1.00  0.00     0.679 A
HETATM    5  N4  UNL     1      14.905  36.471 -17.047  1.00  0.00    -0.176 N
ATOM      6  H4  UNL     1      15.447  36.308 -16.198  1.00  0.00     0.186 HD
HETATM    7  C8  UNL     1      14.077  35.511 -17.497  1.00  0.00     0.135 A
HETATM    8  C9  UNL     1      13.318  35.670 -18.637  1.00  0.00     0.130 A
ENDROOT
BRANCH   1   9
HETATM    9  N1  UNL     1      12.690  37.075 -20.484  1.00  0.00    -0.214 N
BRANCH   9  10
HETATM   10  C4  UNL     1      13.403  36.760 -21.730  1.00  0.00     0.270 C
BRANCH  10  11
HETATM   11  C3  UNL     1      14.132  37.939 -22.254  1.00  0.00     0.279 C
HETATM   12  O2  UNL     1      13.622  38.575 -23.209  1.00  0.00    -0.263 OA
BRANCH  11  13
HETATM   13  O1  UNL     1      15.340  38.360 -21.733  1.00  0.00    -0.321 OA
BRANCH  13  14
HETATM   14  C2  UNL     1      15.663  39.733 -21.780  1.00  0.00     0.174 C
HETATM   15  C1  UNL     1      17.052  39.870 -22.360  1.00  0.00     0.034 C
ENDBRANCH  13  14
ENDBRANCH  11  13
ENDBRANCH  10  11
ENDBRANCH   9  10
BRANCH   9  16
HETATM   16  O3  UNL     1      11.438  37.479 -20.582  1.00  0.00    -0.147 OA
BRANCH  16  17
HETATM   17  S1  UNL     1      11.214  39.039 -20.116  1.00  0.00     0.282 S
HETATM   18  C5  UNL     1       9.840  39.804 -20.963  1.00  0.00     0.196 C
HETATM   19  O4  UNL     1      12.407  39.927 -20.324  1.00  0.00    -0.197 OA
HETATM   20  O5  UNL     1      10.864  39.086 -18.657  1.00  0.00    -0.197 OA
ENDBRANCH  16  17
ENDBRANCH   9  16
ENDBRANCH   1   9
BRANCH   8  21
HETATM   21  C10 UNL     1      12.433  34.605 -19.092  1.00  0.00     0.309 C
HETATM   22  O6  UNL     1      12.862  33.754 -19.915  1.00  0.00    -0.258 OA
BRANCH  21  23
HETATM   23  O7  UNL     1      11.122  34.470 -18.667  1.00  0.00    -0.225 OA
BRANCH  23  24
HETATM   24  C11 UNL     1      10.662  33.358 -17.961  1.00  0.00     0.380 C
HETATM   25  N6  UNL     1      11.210  32.980 -16.711  1.00  0.00    -0.032 NA
HETATM   26  O8  UNL     1       9.725  32.711 -18.507  1.00  0.00    -0.242 OA
ENDBRANCH  23  24
ENDBRANCH  21  23
ENDBRANCH   8  21
BRANCH   4  27
HETATM   27  N3  UNL     1      15.828  38.569 -17.260  1.00  0.00    -0.234 N
ATOM     28  H32 UNL     1      15.854  39.490 -17.699  1.00  0.00     0.174 HD
ATOM     29  H31 UNL     1      16.451  38.404 -16.470  1.00  0.00     0.174 HD
ENDBRANCH   4  27
BRANCH   7  30
HETATM   30  N5  UNL     1      13.970  34.393 -16.862  1.00  0.00    -0.384 N
ATOM     31  H52 UNL     1      14.311  33.552 -17.328  1.00  0.00     0.157 HD
ATOM     32  H51 UNL     1      13.559  34.370 -15.929  1.00  0.00     0.157 HD
ENDBRANCH   7  30
TORSDOF 12
ENDMDL