MODEL 3
REMARK VINA RESULT: -6.598334812      0.733      1.227
REMARK  11 active torsions:
REMARK  status: ('A' for Active; 'I' for Inactive)
REMARK    1  A    between atoms: O1_2  and  C2_3
REMARK    2  A    between atoms: C2_3  and  C3_5
REMARK    3  A    between atoms: C3_5  and  O3_6
REMARK    4  A    between atoms: O3_6  and  N1_7
REMARK    5  A    between atoms: N1_7  and  C4_9
REMARK    6  A    between atoms: C4_9  and  C6_11
REMARK       I    between atoms: C6_11  and  N2_13
REMARK    7  A    between atoms: N2_13  and  O5_14
REMARK    8  A    between atoms: N2_13  and  C7_16
REMARK    9  A    between atoms: C8_18  and  C9_19
REMARK   10  A    between atoms: C9_19  and  O6_20
REMARK   11  A    between atoms: O6_20  and  C10_21
ROOT
HETATM    1  C6  UNL     1      15.156  38.963 -18.141  1.00  0.00     0.292 C
HETATM    2  O4  UNL     1      16.062  39.798 -18.390  1.00  0.00    -0.264 OA
HETATM    3  N2  UNL     1      14.290  38.531 -19.160  1.00  0.00    -0.206 N
ENDROOT
BRANCH   3   4
HETATM    4  O5  UNL     1      14.929  38.748 -20.436  1.00  0.00    -0.283 OA
ATOM      5  H5  UNL     1      15.744  38.261 -20.457  1.00  0.00     0.245 HD
ENDBRANCH   3   4
BRANCH   3   6
HETATM    6  C7  UNL     1      12.953  38.194 -19.334  1.00  0.00     0.209 C
HETATM    7  S1  UNL     1      13.085  36.171 -19.289  1.00  0.00    -0.083 SA
HETATM    8  C8  UNL     1      11.373  35.766 -19.517  1.00  0.00     0.088 C
HETATM    9  N4  UNL     1      10.551  36.912 -19.666  1.00  0.00    -0.300 N
HETATM   10  N5  UNL     1      10.860  37.882 -20.545  1.00  0.00    -0.328 N
ATOM     11  H4  UNL     1       9.709  37.002 -19.097  1.00  0.00     0.187 HD
HETATM   12  C11 UNL     1      12.246  38.289 -20.581  1.00  0.00     0.131 C
ATOM     13  H5  UNL     1      10.157  38.306 -21.150  1.00  0.00     0.180 HD
HETATM   14  C12 UNL     1      12.846  37.384 -21.687  1.00  0.00     0.036 C
BRANCH   8  15
HETATM   15  C9  UNL     1      10.767  34.668 -18.740  1.00  0.00     0.246 C
BRANCH  15  16
HETATM   16  O6  UNL     1      11.616  33.562 -18.409  1.00  0.00    -0.300 OA
BRANCH  16  17
HETATM   17  C10 UNL     1      11.192  32.860 -17.259  1.00  0.00     0.373 C
HETATM   18  N3  UNL     1      10.125  31.960 -17.278  1.00  0.00    -0.032 NA
HETATM   19  O7  UNL     1      11.787  33.027 -16.126  1.00  0.00    -0.242 OA
ENDBRANCH  16  17
ENDBRANCH  15  16
ENDBRANCH   8  15
ENDBRANCH   3   6
BRANCH   1  20
HETATM   20  C4  UNL     1      15.089  38.427 -16.750  1.00  0.00     0.098 C
HETATM   21  C5  UNL     1      15.105  37.047 -16.424  1.00  0.00     0.076 C
BRANCH  20  22
HETATM   22  N1  UNL     1      15.708  39.414 -15.893  1.00  0.00    -0.265 N
ATOM     23  H1  UNL     1      15.481  40.389 -16.090  1.00  0.00     0.194 HD
BRANCH  22  24
HETATM   24  O3  UNL     1      16.475  39.212 -14.957  1.00  0.00    -0.270 OA
BRANCH  24  25
HETATM   25  C3  UNL     1      16.246  39.598 -13.665  1.00  0.00     0.312 C
BRANCH  25  26
HETATM   26  C2  UNL     1      14.898  40.281 -13.595  1.00  0.00     0.284 C
HETATM   27  O2  UNL     1      14.792  41.435 -14.024  1.00  0.00    -0.263 OA
BRANCH  26  28
HETATM   28  O1  UNL     1      13.814  39.615 -13.054  1.00  0.00    -0.325 OA
HETATM   29  C1  UNL     1      12.587  40.244 -12.900  1.00  0.00     0.213 C
ENDBRANCH  26  28
ENDBRANCH  25  26
ENDBRANCH  24  25
ENDBRANCH  22  24
ENDBRANCH  20  22
ENDBRANCH   1  20
TORSDOF 11
ENDMDL