MODEL 1
REMARK VINA RESULT: -7.515484816      0.000      0.000
REMARK  10 active torsions:
REMARK  status: ('A' for Active; 'I' for Inactive)
REMARK    1  A    between atoms: N1_2  and  S1_4
REMARK    2  A    between atoms: S1_4  and  N2_6
REMARK    3  A    between atoms: S1_4  and  C10_27
REMARK    4  A    between atoms: N2_6  and  N3_8
REMARK    5  A    between atoms: C2_10  and  C3_11
REMARK    6  A    between atoms: C5_13  and  N4_14
REMARK    7  A    between atoms: C7_18  and  O4_19
REMARK    8  A    between atoms: C9_21  and  N5_22
REMARK    9  A    between atoms: N5_22  and  N6_24
REMARK   10  A    between atoms: C11_33  and  N9_34
ROOT
HETATM    1  N3  UNL     1      15.935  36.983 -16.427  1.00  0.00    -0.303 N
ATOM      2  H3  UNL     1      16.950  36.992 -16.333  1.00  0.00     0.186 HD
HETATM    3  C2  UNL     1      15.638  36.830 -17.609  1.00  0.00     0.121 C
ENDROOT
BRANCH   1   4
HETATM    4  N2  UNL     1      15.376  37.142 -15.220  1.00  0.00    -0.239 N
ATOM      5  H2  UNL     1      14.560  36.574 -14.994  1.00  0.00     0.198 HD
BRANCH   4   6
HETATM    6  S1  UNL     1      15.949  38.246 -14.020  1.00  0.00     0.174 S
HETATM    7  O1  UNL     1      16.442  37.574 -12.790  1.00  0.00    -0.220 OA
BRANCH   6   8
HETATM    8  N1  UNL     1      17.149  39.085 -14.594  1.00  0.00    -0.334 N
HETATM    9  C1  UNL     1      18.411  38.997 -13.880  1.00  0.00     0.158 C
ATOM     10  H1  UNL     1      17.046  39.663 -15.428  1.00  0.00     0.170 HD
ENDBRANCH   6   8
BRANCH   6  11
HETATM   11  C10 UNL     1      14.681  39.366 -13.581  1.00  0.00     0.196 A
HETATM   12  N7  UNL     1      13.346  39.125 -13.503  1.00  0.00    -0.227 N
HETATM   13  O5  UNL     1      12.746  40.215 -13.148  1.00  0.00    -0.154 OA
ATOM     14  H7  UNL     1      12.892  38.232 -13.692  1.00  0.00     0.197 HD
HETATM   15  N8  UNL     1      13.569  41.180 -12.977  1.00  0.00    -0.223 N
HETATM   16  C11 UNL     1      14.798  40.717 -13.232  1.00  0.00     0.162 A
ATOM     17  H8  UNL     1      13.330  42.132 -12.697  1.00  0.00     0.198 HD
BRANCH  16  18
HETATM   18  N9  UNL     1      15.931  41.319 -13.195  1.00  0.00    -0.382 N
ATOM     19  H92 UNL     1      16.704  41.303 -13.859  1.00  0.00     0.157 HD
ATOM     20  H91 UNL     1      16.197  41.930 -12.422  1.00  0.00     0.157 HD
ENDBRANCH  16  18
ENDBRANCH   6  11
ENDBRANCH   4   6
ENDBRANCH   1   4
BRANCH   3  21
HETATM   21  C3  UNL     1      14.318  36.756 -18.200  1.00  0.00     0.014 A
HETATM   22  C4  UNL     1      13.615  37.877 -18.601  1.00  0.00     0.051 A
HETATM   23  C5  UNL     1      12.354  37.819 -19.163  1.00  0.00     0.106 A
HETATM   24  C6  UNL     1      11.780  36.603 -19.328  1.00  0.00     0.075 A
HETATM   25  C7  UNL     1      12.435  35.463 -18.947  1.00  0.00     0.099 A
HETATM   26  C9  UNL     1      13.703  35.511 -18.381  1.00  0.00     0.092 A
BRANCH  23  27
HETATM   27  N4  UNL     1      11.710  39.024 -19.541  1.00  0.00    -0.116 N
HETATM   28  O2  UNL     1      10.566  39.322 -19.167  1.00  0.00    -0.532 OA
HETATM   29  O3  UNL     1      12.373  39.896 -20.355  1.00  0.00    -0.532 OA
ENDBRANCH  23  27
BRANCH  25  30
HETATM   30  O4  UNL     1      11.860  34.200 -19.108  1.00  0.00    -0.353 OA
HETATM   31  C8  UNL     1      10.582  33.874 -18.596  1.00  0.00     0.210 C
ENDBRANCH  25  30
BRANCH  26  32
HETATM   32  N5  UNL     1      14.333  34.288 -18.005  1.00  0.00    -0.304 N
ATOM     33  H5  UNL     1      15.171  33.977 -18.495  1.00  0.00     0.186 HD
BRANCH  32  34
HETATM   34  N6  UNL     1      13.802  33.507 -16.960  1.00  0.00    -0.345 N
ATOM     35  H62 UNL     1      12.960  32.958 -17.134  1.00  0.00     0.176 HD
ATOM     36  H61 UNL     1      14.254  33.496 -16.045  1.00  0.00     0.176 HD
ENDBRANCH  32  34
ENDBRANCH  26  32
ENDBRANCH   3  21
TORSDOF 10
ENDMDL