MODEL 1
REMARK VINA RESULT: -6.687016457      0.000      0.000
REMARK  12 active torsions:
REMARK  status: ('A' for Active; 'I' for Inactive)
REMARK    1  A    between atoms: C2_2  and  O1_3
REMARK    2  A    between atoms: O1_3  and  C3_4
REMARK    3  A    between atoms: C3_4  and  C4_6
REMARK    4  A    between atoms: N1_7  and  N2_9
REMARK       I    between atoms: N2_9  and  C5_11
REMARK    5  A    between atoms: C5_11  and  C6_13
REMARK    6  A    between atoms: C7_14  and  O4_15
REMARK    7  A    between atoms: C8_17  and  O5_18
REMARK    8  A    between atoms: C9_20  and  C10_21
REMARK    9  A    between atoms: C10_21  and  O7_23
REMARK   10  A    between atoms: C13_27  and  C14_28
REMARK   11  A    between atoms: C14_28  and  O9_30
REMARK   12  A    between atoms: O9_30  and  C15_31
ROOT
HETATM    1  C6  UNL     1      13.319  35.674 -18.534  1.00  0.00     0.087 A
HETATM    2  C7  UNL     1      13.172  34.290 -18.496  1.00  0.00     0.117 A
HETATM    3  C8  UNL     1      12.182  33.628 -19.198  1.00  0.00     0.118 A
HETATM    4  C9  UNL     1      11.301  34.351 -19.967  1.00  0.00     0.100 A
HETATM    5  C12 UNL     1      11.438  35.705 -20.009  1.00  0.00     0.083 A
HETATM    6  N3  UNL     1      10.522  36.488 -20.812  1.00  0.00    -0.100 NA
HETATM    7  C13 UNL     1      12.444  36.408 -19.300  1.00  0.00     0.083 A
ENDROOT
BRANCH   1   8
HETATM    8  C5  UNL     1      14.370  36.304 -17.781  1.00  0.00     0.274 C
HETATM    9  N2  UNL     1      14.685  36.109 -16.419  1.00  0.00    -0.266 N
ATOM     10  H2  UNL     1      14.143  35.461 -15.848  1.00  0.00     0.190 HD
HETATM   11  O3  UNL     1      15.174  37.153 -18.298  1.00  0.00    -0.266 OA
BRANCH   9  12
HETATM   12  N1  UNL     1      15.770  36.832 -15.862  1.00  0.00    -0.303 N
HETATM   13  C4  UNL     1      15.543  37.602 -14.874  1.00  0.00     0.189 C
ATOM     14  H1  UNL     1      16.711  36.738 -16.243  1.00  0.00     0.186 HD
BRANCH  13  15
HETATM   15  C3  UNL     1      16.599  38.393 -14.229  1.00  0.00     0.299 C
HETATM   16  O2  UNL     1      17.785  37.997 -14.117  1.00  0.00    -0.259 OA
BRANCH  15  17
HETATM   17  O1  UNL     1      16.280  39.636 -13.715  1.00  0.00    -0.317 OA
BRANCH  17  18
HETATM   18  C2  UNL     1      15.116  40.310 -14.126  1.00  0.00     0.174 C
HETATM   19  C1  UNL     1      14.064  40.306 -13.057  1.00  0.00     0.034 C
ENDBRANCH  17  18
ENDBRANCH  15  17
ENDBRANCH  13  15
ENDBRANCH   9  12
ENDBRANCH   1   8
BRANCH   2  20
HETATM   20  O4  UNL     1      14.024  33.517 -17.745  1.00  0.00    -0.357 OA
ATOM     21  H4  UNL     1      13.686  32.944 -17.067  1.00  0.00     0.217 HD
ENDBRANCH   2  20
BRANCH   7  22
HETATM   22  C14 UNL     1      12.437  37.844 -19.463  1.00  0.00     0.296 C
HETATM   23  O8  UNL     1      11.867  38.687 -18.794  1.00  0.00    -0.259 OA
BRANCH  22  24
HETATM   24  O9  UNL     1      13.178  38.426 -20.537  1.00  0.00    -0.318 OA
BRANCH  24  25
HETATM   25  C15 UNL     1      13.214  39.835 -20.689  1.00  0.00     0.174 C
HETATM   26  C16 UNL     1      14.550  40.431 -20.366  1.00  0.00     0.034 C
ENDBRANCH  24  25
ENDBRANCH  22  24
ENDBRANCH   7  22
BRANCH   3  27
HETATM   27  O5  UNL     1      12.048  32.239 -19.149  1.00  0.00    -0.357 OA
ATOM     28  H5  UNL     1      12.795  31.669 -19.007  1.00  0.00     0.217 HD
ENDBRANCH   3  27
BRANCH   4  29
HETATM   29  C10 UNL     1      10.246  33.674 -20.719  1.00  0.00     0.297 C
HETATM   30  O6  UNL     1      10.238  33.783 -21.971  1.00  0.00    -0.259 OA
BRANCH  29  31
HETATM   31  O7  UNL     1       9.261  32.924 -20.133  1.00  0.00    -0.322 OA
HETATM   32  C11 UNL     1       8.413  33.429 -19.112  1.00  0.00     0.213 C
ENDBRANCH  29  31
ENDBRANCH   4  29
TORSDOF 12
ENDMDL