MODEL 3
REMARK VINA RESULT: -6.733958770      3.868      5.071
REMARK  10 active torsions:
REMARK  status: ('A' for Active; 'I' for Inactive)
REMARK    1  A    between atoms: C2_2  and  C3_3
REMARK    2  A    between atoms: C2_2  and  C5_8
REMARK    3  A    between atoms: C3_3  and  O1_4
REMARK    4  A    between atoms: C3_3  and  O2_6
REMARK    5  A    between atoms: C5_8  and  C6_9
REMARK    6  A    between atoms: C5_8  and  N1_14
REMARK    7  A    between atoms: C6_9  and  O3_10
REMARK    8  A    between atoms: C6_9  and  O4_12
REMARK    9  A    between atoms: C8_16  and  C9_17
REMARK   10  A    between atoms: C10_18  and  N2_19
ROOT
HETATM    1  N1  UNL     1      13.448  37.600 -18.597  1.00  0.00    -0.303 N
HETATM    2  C7  UNL     1      13.450  36.284 -18.456  1.00  0.00     0.117 A
HETATM    3  C8  UNL     1      12.444  35.566 -19.007  1.00  0.00     0.056 A
HETATM    4  S1  UNL     1      11.495  36.830 -19.734  1.00  0.00    -0.025 SA
HETATM    5  C13 UNL     1      12.445  38.149 -19.281  1.00  0.00     0.291 A
HETATM    6  O7  UNL     1      12.214  39.361 -19.554  1.00  0.00    -0.259 OA
ENDROOT
BRANCH   1   7
HETATM    7  C5  UNL     1      14.523  38.480 -18.019  1.00  0.00     0.180 C
BRANCH   7   8
HETATM    8  C2  UNL     1      14.923  37.984 -16.705  1.00  0.00    -0.007 C
HETATM    9  C1  UNL     1      15.183  36.710 -16.504  1.00  0.00     0.021 C
BRANCH   8  10
HETATM   10  C3  UNL     1      15.067  38.887 -15.528  1.00  0.00     0.288 C
BRANCH  10  11
HETATM   11  O1  UNL     1      16.174  39.728 -15.663  1.00  0.00    -0.367 OA
ATOM     12  H1  UNL     1      16.447  40.079 -14.823  1.00  0.00     0.213 HD
ENDBRANCH  10  11
BRANCH  10  13
HETATM   13  O2  UNL     1      15.089  38.226 -14.329  1.00  0.00    -0.362 OA
HETATM   14  C4  UNL     1      15.249  39.126 -13.285  1.00  0.00     0.205 C
ENDBRANCH  10  13
ENDBRANCH   8  10
ENDBRANCH   7   8
BRANCH   7  15
HETATM   15  C6  UNL     1      15.631  38.617 -19.030  1.00  0.00     0.281 C
BRANCH  15  16
HETATM   16  O3  UNL     1      15.212  38.708 -20.328  1.00  0.00    -0.369 OA
ATOM     17  H3  UNL     1      15.766  39.238 -20.889  1.00  0.00     0.212 HD
ENDBRANCH  15  16
BRANCH  15  18
HETATM   18  O4  UNL     1      16.305  39.818 -18.699  1.00  0.00    -0.369 OA
ATOM     19  H4  UNL     1      17.232  39.620 -18.767  1.00  0.00     0.212 HD
ENDBRANCH  15  18
ENDBRANCH   7  15
ENDBRANCH   1   7
BRANCH   3  20
HETATM   20  C9  UNL     1      12.130  34.124 -19.051  1.00  0.00     0.105 A
HETATM   21  C10 UNL     1      10.905  33.586 -18.676  1.00  0.00     0.177 A
HETATM   22  C11 UNL     1      11.021  32.201 -18.843  1.00  0.00     0.149 A
HETATM   23  N3  UNL     1      10.067  31.387 -18.585  1.00  0.00    -0.382 N
HETATM   24  N4  UNL     1      12.258  31.973 -19.293  1.00  0.00    -0.281 N
ATOM     25  H32 UNL     1       9.123  31.561 -18.242  1.00  0.00     0.157 HD
ATOM     26  H31 UNL     1      10.152  30.377 -18.707  1.00  0.00     0.157 HD
HETATM   27  N5  UNL     1      12.930  33.134 -19.420  1.00  0.00    -0.291 N
ATOM     28  H4  UNL     1      12.639  31.052 -19.509  1.00  0.00     0.189 HD
HETATM   29  C12 UNL     1      14.299  33.172 -19.894  1.00  0.00     0.178 C
BRANCH  21  30
HETATM   30  N2  UNL     1       9.801  34.310 -18.221  1.00  0.00    -0.109 N
HETATM   31  O5  UNL     1       9.529  34.357 -17.005  1.00  0.00    -0.532 OA
HETATM   32  O6  UNL     1       9.006  35.005 -19.095  1.00  0.00    -0.532 OA
ENDBRANCH  21  30
ENDBRANCH   3  20
TORSDOF 10
ENDMDL