MODEL 1
REMARK VINA RESULT: -7.038029892      0.000      0.000
REMARK  11 active torsions:
REMARK  status: ('A' for Active; 'I' for Inactive)
REMARK    1  A    between atoms: O1_2  and  C2_3
REMARK    2  A    between atoms: C2_3  and  C3_5
REMARK    3  A    between atoms: N2_7  and  N3_9
REMARK    4  A    between atoms: N3_9  and  C4_11
REMARK    5  A    between atoms: C5_12  and  O3_13
REMARK    6  A    between atoms: C6_16  and  C7_17
REMARK    7  A    between atoms: C7_17  and  C8_19
REMARK    8  A    between atoms: C8_19  and  O6_21
REMARK    9  A    between atoms: C8_19  and  C10_23
REMARK   10  A    between atoms: C10_23  and  O8_25
REMARK   11  A    between atoms: C12_27  and  N4_28
REMARK       I    between atoms: N4_28  and  C13_30
ROOT
HETATM    1  C4  UNL     1      15.103  37.526 -16.875  1.00  0.00     0.136 A
HETATM    2  C5  UNL     1      14.812  36.573 -15.938  1.00  0.00     0.215 A
HETATM    3  O4  UNL     1      14.208  35.567 -16.527  1.00  0.00    -0.280 OA
HETATM    4  C6  UNL     1      14.086  35.805 -17.810  1.00  0.00     0.157 A
HETATM    5  C12 UNL     1      14.635  37.037 -18.088  1.00  0.00     0.106 A
ENDROOT
BRANCH   1   6
HETATM    6  N3  UNL     1      15.753  38.771 -16.671  1.00  0.00    -0.293 N
ATOM      7  H3  UNL     1      16.620  38.946 -17.180  1.00  0.00     0.187 HD
BRANCH   6   8
HETATM    8  N2  UNL     1      15.283  39.771 -15.821  1.00  0.00    -0.282 N
HETATM    9  C3  UNL     1      15.759  39.900 -14.634  1.00  0.00     0.206 C
HETATM   10  N1  UNL     1      16.786  38.975 -14.224  1.00  0.00    -0.075 NA
ATOM     11  H2  UNL     1      14.554  40.407 -16.145  1.00  0.00     0.188 HD
BRANCH   9  12
HETATM   12  C2  UNL     1      15.345  40.899 -13.670  1.00  0.00     0.325 C
HETATM   13  O2  UNL     1      16.205  41.549 -13.015  1.00  0.00    -0.256 OA
BRANCH  12  14
HETATM   14  O1  UNL     1      14.003  41.179 -13.428  1.00  0.00    -0.321 OA
HETATM   15  C1  UNL     1      13.083  40.259 -12.878  1.00  0.00     0.213 C
ENDBRANCH  12  14
ENDBRANCH   9  12
ENDBRANCH   6   8
ENDBRANCH   1   6
BRANCH   2  16
HETATM   16  O3  UNL     1      15.080  36.596 -14.559  1.00  0.00    -0.339 OA
ATOM     17  H3  UNL     1      14.722  36.037 -13.880  1.00  0.00     0.220 HD
ENDBRANCH   2  16
BRANCH   5  18
HETATM   18  N4  UNL     1      14.688  37.685 -19.329  1.00  0.00    -0.323 N
HETATM   19  C13 UNL     1      13.782  38.635 -19.842  1.00  0.00     0.218 C
HETATM   20  C14 UNL     1      13.988  39.234 -21.203  1.00  0.00     0.117 C
HETATM   21  O9  UNL     1      12.786  38.976 -19.137  1.00  0.00    -0.274 OA
ATOM     22  H4  UNL     1      15.474  37.442 -19.932  1.00  0.00     0.169 HD
ENDBRANCH   5  18
BRANCH   4  23
HETATM   23  C7  UNL     1      13.460  34.878 -18.768  1.00  0.00     0.229 C
HETATM   24  O5  UNL     1      12.992  35.389 -19.837  1.00  0.00    -0.286 OA
BRANCH  23  25
HETATM   25  C8  UNL     1      13.343  33.430 -18.575  1.00  0.00     0.209 C
HETATM   26  C9  UNL     1      13.873  32.753 -19.835  1.00  0.00     0.066 C
BRANCH  25  27
HETATM   27  O6  UNL     1      14.196  33.086 -17.521  1.00  0.00    -0.372 OA
ATOM     28  H6  UNL     1      15.079  33.304 -17.794  1.00  0.00     0.211 HD
ENDBRANCH  25  27
BRANCH  25  29
HETATM   29  C10 UNL     1      11.989  32.982 -18.246  1.00  0.00     0.301 C
HETATM   30  O7  UNL     1      11.426  33.245 -17.129  1.00  0.00    -0.261 OA
BRANCH  29  31
HETATM   31  O8  UNL     1      11.252  32.252 -19.127  1.00  0.00    -0.324 OA
HETATM   32  C11 UNL     1      10.160  31.425 -18.829  1.00  0.00     0.213 C
ENDBRANCH  29  31
ENDBRANCH  25  29
ENDBRANCH  23  25
ENDBRANCH   4  23
TORSDOF 11
ENDMDL