MODEL 1
REMARK VINA RESULT: -8.058581402      0.000      0.000
REMARK  12 active torsions:
REMARK  status: ('A' for Active; 'I' for Inactive)
REMARK    1  A    between atoms: O1_2  and  C2_3
REMARK    2  A    between atoms: C5_6  and  C6_7
REMARK    3  A    between atoms: N1_8  and  N2_10
REMARK    4  A    between atoms: N2_10  and  C7_12
REMARK    5  A    between atoms: C8_15  and  N4_16
REMARK    6  A    between atoms: N4_16  and  O2_17
REMARK    7  A    between atoms: N4_16  and  C9_19
REMARK    8  A    between atoms: C10_23  and  N6_24
REMARK    9  A    between atoms: N6_24  and  C11_26
REMARK   10  A    between atoms: C11_26  and  N7_27
REMARK   11  A    between atoms: C12_32  and  O6_33
REMARK   12  A    between atoms: C13_35  and  O7_36
ROOT
HETATM    1  C7  UNL     1      15.544  39.030 -18.912  1.00  0.00     0.726 A
HETATM    2  N3  UNL     1      14.986  37.825 -18.868  1.00  0.00    -0.018 N
ATOM      3  H3  UNL     1      14.740  37.373 -19.748  1.00  0.00     0.203 HD
HETATM    4  C8  UNL     1      14.729  37.171 -17.719  1.00  0.00     0.740 A
HETATM    5  N5  UNL     1      15.071  37.801 -16.562  1.00  0.00    -0.019 N
ATOM      6  H5  UNL     1      14.892  37.333 -15.673  1.00  0.00     0.203 HD
HETATM    7  C10 UNL     1      15.638  39.020 -16.555  1.00  0.00     0.708 A
HETATM    8  N8  UNL     1      15.866  39.616 -17.737  1.00  0.00    -0.020 N
ATOM      9  H8  UNL     1      16.297  40.540 -17.748  1.00  0.00     0.203 HD
ENDROOT
BRANCH   1  10
HETATM   10  N2  UNL     1      15.787  39.655 -20.020  1.00  0.00    -0.131 N
ATOM     11  H2  UNL     1      15.485  40.622 -20.140  1.00  0.00     0.205 HD
BRANCH  10  12
HETATM   12  N1  UNL     1      16.463  39.002 -21.048  1.00  0.00    -0.297 N
HETATM   13  C6  UNL     1      17.466  39.569 -21.603  1.00  0.00     0.122 C
ATOM     14  H1  UNL     1      16.160  38.079 -21.356  1.00  0.00     0.186 HD
BRANCH  13  15
HETATM   15  C5  UNL     1      18.195  38.906 -22.686  1.00  0.00     0.017 A
HETATM   16  C4  UNL     1      17.603  37.843 -23.310  1.00  0.00     0.018 A
HETATM   17  C3  UNL     1      18.259  37.193 -24.335  1.00  0.00     0.040 A
HETATM   18  C2  UNL     1      19.510  37.579 -24.765  1.00  0.00     0.104 A
HETATM   19  C13 UNL     1      20.098  38.669 -24.113  1.00  0.00     0.133 A
HETATM   20  C12 UNL     1      19.447  39.321 -23.090  1.00  0.00     0.113 A
BRANCH  18  21
HETATM   21  O1  UNL     1      20.163  36.926 -25.793  1.00  0.00    -0.353 OA
HETATM   22  C1  UNL     1      19.476  36.702 -27.009  1.00  0.00     0.210 C
ENDBRANCH  18  21
BRANCH  19  23
HETATM   23  O7  UNL     1      21.350  39.022 -24.574  1.00  0.00    -0.356 OA
ATOM     24  H7  UNL     1      21.762  38.388 -25.149  1.00  0.00     0.218 HD
ENDBRANCH  19  23
BRANCH  20  25
HETATM   25  O6  UNL     1      20.027  40.393 -22.450  1.00  0.00    -0.357 OA
ATOM     26  H6  UNL     1      19.527  41.194 -22.356  1.00  0.00     0.217 HD
ENDBRANCH  20  25
ENDBRANCH  13  15
ENDBRANCH  10  12
ENDBRANCH   1  10
BRANCH   4  27
HETATM   27  N4  UNL     1      14.132  35.884 -17.709  1.00  0.00    -0.025 N
BRANCH  27  28
HETATM   28  O2  UNL     1      14.276  35.086 -16.649  1.00  0.00    -0.267 OA
ATOM     29  H2  UNL     1      14.766  34.275 -16.726  1.00  0.00     0.246 HD
ENDBRANCH  27  28
BRANCH  27  30
HETATM   30  C9  UNL     1      13.377  35.443 -18.825  1.00  0.00     0.400 C
HETATM   31  O3  UNL     1      12.434  36.130 -19.277  1.00  0.00    -0.280 OA
ENDBRANCH  27  30
ENDBRANCH   4  27
BRANCH   7  32
HETATM   32  N6  UNL     1      15.977  39.655 -15.485  1.00  0.00    -0.203 N
ATOM     33  H6  UNL     1      16.582  40.471 -15.579  1.00  0.00     0.179 HD
BRANCH  32  34
HETATM   34  C11 UNL     1      15.544  39.268 -14.157  1.00  0.00     0.341 C
BRANCH  34  35
HETATM   35  N7  UNL     1      14.630  40.230 -13.594  1.00  0.00    -0.136 N
HETATM   36  O4  UNL     1      14.581  41.384 -14.037  1.00  0.00    -0.535 OA
HETATM   37  O5  UNL     1      13.818  39.865 -12.568  1.00  0.00    -0.535 OA
ENDBRANCH  34  35
ENDBRANCH  32  34
ENDBRANCH   7  32
TORSDOF 12
ENDMDL