MODEL 1
REMARK VINA RESULT: -7.970423144      0.000      0.000
REMARK  9 active torsions:
REMARK  status: ('A' for Active; 'I' for Inactive)
REMARK    1  A    between atoms: C2_2  and  O1_3
REMARK    2  A    between atoms: O1_3  and  C3_4
REMARK    3  A    between atoms: C3_4  and  C4_6
REMARK    4  A    between atoms: C4_6  and  C5_7
REMARK    5  A    between atoms: C5_7  and  C6_9
REMARK    6  A    between atoms: C10_15  and  N1_16
REMARK    7  A    between atoms: N1_16  and  C11_18
REMARK    8  A    between atoms: C13_25  and  N4_26
REMARK    9  A    between atoms: C14_32  and  O7_33
ROOT
HETATM    1  C6  UNL     1      12.338  35.697 -18.978  1.00  0.00     0.075 A
HETATM    2  C7  UNL     1      12.030  36.821 -19.701  1.00  0.00     0.070 A
HETATM    3  C8  UNL     1      10.855  36.920 -20.585  1.00  0.00     0.078 C
HETATM    4  O4  UNL     1      12.818  37.894 -19.623  1.00  0.00    -0.278 OA
HETATM    5  C9  UNL     1      13.886  37.930 -18.879  1.00  0.00     0.317 A
HETATM    6  O5  UNL     1      14.607  38.982 -18.840  1.00  0.00    -0.257 OA
HETATM    7  C10 UNL     1      14.272  36.859 -18.125  1.00  0.00     0.142 A
HETATM    8  C14 UNL     1      13.477  35.708 -18.177  1.00  0.00     0.117 A
ENDROOT
BRANCH   7   9
HETATM    9  N1  UNL     1      15.397  36.863 -17.280  1.00  0.00    -0.345 N
ATOM     10  H1  UNL     1      16.242  36.434 -17.658  1.00  0.00     0.163 HD
BRANCH   9  11
HETATM   11  C11 UNL     1      15.503  37.398 -15.947  1.00  0.00     0.291 C
HETATM   12  N2  UNL     1      15.194  38.838 -15.951  1.00  0.00    -0.305 N
HETATM   13  C12 UNL     1      15.539  39.564 -14.791  1.00  0.00     0.321 C
ATOM     14  H2  UNL     1      14.754  39.288 -16.753  1.00  0.00     0.168 HD
HETATM   15  O6  UNL     1      15.094  40.722 -14.580  1.00  0.00    -0.247 OA
HETATM   16  N3  UNL     1      16.413  38.939 -13.862  1.00  0.00    -0.299 N
HETATM   17  C13 UNL     1      17.253  37.878 -14.332  1.00  0.00     0.389 C
ATOM     18  H3  UNL     1      16.441  39.237 -12.887  1.00  0.00     0.168 HD
HETATM   19  N5  UNL     1      16.919  37.335 -15.602  1.00  0.00    -0.343 N
ATOM     20  H5  UNL     1      17.617  36.932 -16.226  1.00  0.00     0.160 HD
BRANCH  17  21
HETATM   21  N4  UNL     1      18.604  38.457 -14.440  1.00  0.00    -0.041 N
ATOM     22  H43 UNL     1      18.791  39.190 -13.755  1.00  0.00     0.279 HD
ATOM     23  H42 UNL     1      19.347  37.823 -14.144  1.00  0.00     0.279 HD
ATOM     24  H41 UNL     1      18.695  38.768 -15.408  1.00  0.00     0.279 HD
ENDBRANCH  17  21
ENDBRANCH   9  11
ENDBRANCH   7   9
BRANCH   8  25
HETATM   25  O7  UNL     1      13.858  34.606 -17.431  1.00  0.00    -0.352 OA
HETATM   26  C15 UNL     1      14.430  33.426 -18.024  1.00  0.00     0.210 C
ENDBRANCH   8  25
BRANCH   1  27
HETATM   27  C5  UNL     1      11.509  34.536 -18.960  1.00  0.00     0.174 C
HETATM   28  O3  UNL     1      11.739  33.638 -19.856  1.00  0.00    -0.292 OA
BRANCH  27  29
HETATM   29  C4  UNL     1      10.415  34.190 -18.067  1.00  0.00     0.195 C
BRANCH  29  30
HETATM   30  C3  UNL     1      10.731  33.022 -17.160  1.00  0.00     0.266 C
HETATM   31  O2  UNL     1      11.510  33.087 -16.210  1.00  0.00    -0.265 OA
BRANCH  30  32
HETATM   32  O1  UNL     1      10.111  31.795 -17.407  1.00  0.00    -0.322 OA
BRANCH  32  33
HETATM   33  C2  UNL     1       9.117  31.677 -18.426  1.00  0.00     0.174 C
HETATM   34  C1  UNL     1       9.697  30.811 -19.513  1.00  0.00     0.034 C
ENDBRANCH  32  33
ENDBRANCH  30  32
ENDBRANCH  29  30
ENDBRANCH  27  29
ENDBRANCH   1  27
TORSDOF 9
ENDMDL