MODEL 2
REMARK VINA RESULT: -7.658379855      1.122      1.299
REMARK  8 active torsions:
REMARK  status: ('A' for Active; 'I' for Inactive)
REMARK    1  A    between atoms: C3_3  and  C4_4
REMARK    2  A    between atoms: C3_3  and  C28_32
REMARK    3  A    between atoms: C15_15  and  O1_16
REMARK    4  A    between atoms: C16_18  and  O2_19
REMARK       I    between atoms: C28_32  and  N1_34
REMARK    5  A    between atoms: N1_34  and  C29_36
REMARK    6  A    between atoms: C29_36  and  C30_37
REMARK    7  A    between atoms: C29_36  and  C33_42
REMARK    8  A    between atoms: C30_37  and  O4_40
ROOT
HETATM    1  C1  UNL     1     -15.874  18.198  -7.828  1.00  0.00     0.013 C
HETATM    2  C2  UNL     1     -14.710  18.005  -8.066  1.00  0.00    -0.099 C
HETATM    3  C3  UNL     1     -13.273  17.759  -8.387  1.00  0.00     0.179 C
ENDROOT
BRANCH   3   4
HETATM    4  C4  UNL     1     -12.679  19.053  -8.745  1.00  0.00     0.003 C
HETATM    5  C5  UNL     1     -12.553  19.625  -9.912  1.00  0.00    -0.073 C
HETATM    6  C6  UNL     1     -11.882  21.001 -10.011  1.00  0.00     0.040 C
HETATM    7  C25 UNL     1     -12.886  19.333 -11.300  1.00  0.00    -0.017 C
HETATM    8  C7  UNL     1     -12.280  21.573 -11.302  1.00  0.00     0.003 C
HETATM    9  C8  UNL     1     -12.610  23.037 -11.306  1.00  0.00    -0.005 C
HETATM   10  C23 UNL     1     -13.412  20.707 -11.756  1.00  0.00    -0.029 C
HETATM   11  C9  UNL     1     -11.523  23.811 -10.600  1.00  0.00     0.006 C
HETATM   12  C20 UNL     1     -13.992  23.374 -10.871  1.00  0.00    -0.001 C
HETATM   13  C10 UNL     1     -11.792  25.279 -10.571  1.00  0.00     0.007 C
HETATM   14  C11 UNL     1     -13.183  25.669 -10.206  1.00  0.00     0.004 C
HETATM   15  C12 UNL     1     -13.677  26.726 -11.160  1.00  0.00    -0.015 C
HETATM   16  C18 UNL     1     -14.120  24.545  -9.952  1.00  0.00    -0.033 C
HETATM   17  C13 UNL     1     -13.802  26.319 -12.579  1.00  0.00     0.018 C
HETATM   18  C14 UNL     1     -12.626  27.849 -11.113  1.00  0.00     0.018 C
HETATM   19  C15 UNL     1     -14.972  27.363 -10.712  1.00  0.00     0.155 C
HETATM   20  C16 UNL     1     -15.677  26.496  -9.725  1.00  0.00     0.148 C
HETATM   21  C17 UNL     1     -15.568  25.045 -10.090  1.00  0.00     0.044 C
HETATM   22  C19 UNL     1     -14.029  24.136  -8.480  1.00  0.00     0.016 C
HETATM   23  C21 UNL     1     -14.719  22.210 -10.221  1.00  0.00     0.006 C
HETATM   24  C22 UNL     1     -14.697  20.968 -11.053  1.00  0.00     0.011 C
HETATM   25  C24 UNL     1     -13.590  20.789 -13.239  1.00  0.00     0.016 C
HETATM   26  C26 UNL     1     -13.822  18.248 -11.612  1.00  0.00     0.020 C
HETATM   27  C27 UNL     1     -11.573  19.010 -12.034  1.00  0.00     0.020 C
BRANCH  19  28
HETATM   28  O1  UNL     1     -15.809  27.608 -11.822  1.00  0.00    -0.392 OA
ATOM     29  H1  UNL     1     -16.721  27.614 -11.554  1.00  0.00     0.210 HD
ENDBRANCH  19  28
BRANCH  20  30
HETATM   30  O2  UNL     1     -17.024  26.830  -9.712  1.00  0.00    -0.393 OA
ATOM     31  H2  UNL     1     -17.362  26.713  -8.832  1.00  0.00     0.210 HD
ENDBRANCH  20  30
ENDBRANCH   3   4
BRANCH   3  32
HETATM   32  C28 UNL     1     -12.638  17.166  -7.176  1.00  0.00     0.237 C
HETATM   33  O3  UNL     1     -12.889  15.987  -6.864  1.00  0.00    -0.272 OA
HETATM   34  N1  UNL     1     -11.766  17.930  -6.398  1.00  0.00    -0.344 N
ATOM     35  H1  UNL     1     -11.590  18.890  -6.695  1.00  0.00     0.163 HD
BRANCH  34  36
HETATM   36  C29 UNL     1     -11.094  17.468  -5.208  1.00  0.00     0.225 C
BRANCH  36  37
HETATM   37  C30 UNL     1      -9.749  18.135  -5.099  1.00  0.00     0.079 C
HETATM   38  C31 UNL     1      -8.912  17.626  -6.283  1.00  0.00     0.048 C
HETATM   39  C32 UNL     1      -9.799  19.622  -5.202  1.00  0.00     0.048 C
BRANCH  37  40
HETATM   40  O4  UNL     1      -9.059  17.769  -3.962  1.00  0.00    -0.388 OA
ATOM     41  H4  UNL     1      -8.671  18.509  -3.511  1.00  0.00     0.210 HD
ENDBRANCH  37  40
ENDBRANCH  36  37
BRANCH  36  42
HETATM   42  C33 UNL     1     -11.918  17.550  -3.968  1.00  0.00     0.410 C
HETATM   43  F1  UNL     1     -12.993  18.404  -4.245  1.00  0.00    -0.169 F
HETATM   44  F2  UNL     1     -12.466  16.317  -3.723  1.00  0.00    -0.169 F
HETATM   45  F3  UNL     1     -11.275  18.074  -2.889  1.00  0.00    -0.169 F
ENDBRANCH  36  42
ENDBRANCH  34  36
ENDBRANCH   3  32
TORSDOF 8
ENDMDL