MODEL 2
REMARK VINA RESULT: -8.621548135      1.249      1.568
REMARK  8 active torsions:
REMARK  status: ('A' for Active; 'I' for Inactive)
REMARK    1  A    between atoms: C2_2  and  C5_5
REMARK    2  A    between atoms: C8_8  and  N1_10
REMARK    3  A    between atoms: C15_19  and  C16_20
REMARK    4  A    between atoms: C16_20  and  C17_21
REMARK    5  A    between atoms: C27_36  and  C28_37
REMARK       I    between atoms: C28_37  and  N4_39
REMARK    6  A    between atoms: N4_39  and  C29_41
REMARK    7  A    between atoms: C29_41  and  C30_42
REMARK    8  A    between atoms: C30_42  and  N5_43
ROOT
HETATM    1  N1  UNL     1      -8.063  18.065  -9.083  1.00  0.00    -0.404 N
HETATM    2  C10 UNL     1      -8.789  16.899  -8.753  1.00  0.00     0.120 C
HETATM    3  C11 UNL     1      -9.895  17.109  -7.741  1.00  0.00     0.059 C
HETATM    4  C12 UNL     1     -10.787  18.250  -8.058  1.00  0.00     0.141 C
HETATM    5  C13 UNL     1     -10.059  19.313  -8.905  1.00  0.00     0.059 C
HETATM    6  C14 UNL     1      -8.585  19.234  -8.476  1.00  0.00     0.120 C
HETATM    7  N2  UNL     1     -11.976  17.904  -8.821  1.00  0.00    -0.060 N
ATOM      8  H21 UNL     1     -12.108  16.897  -8.908  1.00  0.00     0.278 HD
ATOM      9  H22 UNL     1     -11.883  18.117  -9.814  1.00  0.00     0.278 HD
HETATM   10  C15 UNL     1     -13.089  18.555  -8.222  1.00  0.00     0.205 C
HETATM   11  C26 UNL     1     -12.547  19.625  -7.328  1.00  0.00     0.050 C
HETATM   12  C27 UNL     1     -11.236  18.950  -6.830  1.00  0.00     0.116 C
ENDROOT
BRANCH  12  13
HETATM   13  C28 UNL     1     -11.535  18.117  -5.664  1.00  0.00     0.224 C
HETATM   14  O1  UNL     1     -10.883  18.171  -4.593  1.00  0.00    -0.273 OA
HETATM   15  N4  UNL     1     -12.606  17.185  -5.697  1.00  0.00    -0.359 N
ATOM     16  H4  UNL     1     -13.161  17.109  -6.549  1.00  0.00     0.162 HD
BRANCH  15  17
HETATM   17  C29 UNL     1     -12.940  16.337  -4.568  1.00  0.00     0.150 C
BRANCH  17  18
HETATM   18  C30 UNL     1     -13.017  14.885  -4.967  1.00  0.00     0.249 C
BRANCH  18  19
HETATM   19  N5  UNL     1     -12.311  14.599  -6.176  1.00  0.00    -0.078 N
ATOM     20  H53 UNL     1     -11.393  15.043  -6.176  1.00  0.00     0.274 HD
ATOM     21  H52 UNL     1     -12.022  13.620  -6.206  1.00  0.00     0.274 HD
ATOM     22  H51 UNL     1     -12.836  14.849  -7.015  1.00  0.00     0.274 HD
ENDBRANCH  18  19
ENDBRANCH  17  18
ENDBRANCH  15  17
ENDBRANCH  12  13
BRANCH  10  23
HETATM   23  C16 UNL     1     -14.188  18.978  -9.158  1.00  0.00     0.086 C
HETATM   24  C18 UNL     1     -13.976  20.405  -9.522  1.00  0.00     0.021 C
HETATM   25  C19 UNL     1     -14.821  20.991 -10.580  1.00  0.00     0.001 C
HETATM   26  C20 UNL     1     -14.004  21.913 -11.498  1.00  0.00     0.005 C
HETATM   27  C21 UNL     1     -14.428  21.800 -12.913  1.00  0.00     0.044 C
HETATM   28  C22 UNL     1     -14.420  20.452 -13.515  1.00  0.00     0.055 C
HETATM   29  N3  UNL     1     -13.312  19.626 -13.318  1.00  0.00    -0.402 N
HETATM   30  C23 UNL     1     -13.514  18.326 -12.779  1.00  0.00     0.118 C
ATOM     31  H3  UNL     1     -12.374  19.949 -13.557  1.00  0.00     0.158 HD
HETATM   32  C24 UNL     1     -13.073  18.254 -11.309  1.00  0.00     0.021 C
HETATM   33  C25 UNL     1     -14.208  18.058 -10.365  1.00  0.00     0.022 C
BRANCH  23  34
HETATM   34  C17 UNL     1     -15.556  18.839  -8.525  1.00  0.00     0.397 C
HETATM   35  F1  UNL     1     -16.534  18.520  -9.452  1.00  0.00    -0.170 F
HETATM   36  F2  UNL     1     -15.904  19.979  -7.807  1.00  0.00    -0.170 F
HETATM   37  F3  UNL     1     -15.547  17.828  -7.593  1.00  0.00    -0.170 F
ENDBRANCH  23  34
ENDBRANCH  10  23
BRANCH   1  38
HETATM   38  C8  UNL     1      -6.663  17.964  -9.247  1.00  0.00     0.024 C
HETATM   39  C7  UNL     1      -6.231  18.228 -10.661  1.00  0.00     0.031 C
HETATM   40  C6  UNL     1      -4.917  17.679 -11.046  1.00  0.00     0.008 C
HETATM   41  C5  UNL     1      -4.048  17.119  -9.979  1.00  0.00    -0.007 C
HETATM   42  C32 UNL     1      -4.758  16.367  -8.902  1.00  0.00     0.008 C
HETATM   43  C31 UNL     1      -6.253  16.531  -8.937  1.00  0.00     0.031 C
HETATM   44  C9  UNL     1      -5.945  18.864  -8.268  1.00  0.00     0.038 C
BRANCH  41  45
HETATM   45  C2  UNL     1      -3.090  16.123 -10.653  1.00  0.00    -0.048 C
HETATM   46  C1  UNL     1      -3.667  14.730 -10.639  1.00  0.00     0.015 C
HETATM   47  C3  UNL     1      -1.712  16.178 -10.081  1.00  0.00     0.015 C
HETATM   48  C4  UNL     1      -3.013  16.546 -12.114  1.00  0.00     0.015 C
ENDBRANCH  41  45
ENDBRANCH   1  38
TORSDOF 8
ENDMDL