MODEL 5
REMARK VINA RESULT: -7.670701986      1.419      1.735
REMARK  7 active torsions:
REMARK  status: ('A' for Active; 'I' for Inactive)
REMARK    1  A    between atoms: C2_2  and  O1_3
REMARK    2  A    between atoms: C3_5  and  O2_6
REMARK    3  A    between atoms: C11_15  and  C12_16
REMARK    4  A    between atoms: C13_17  and  C14_18
REMARK    5  A    between atoms: C16_22  and  C17_23
REMARK       I    between atoms: C17_23  and  N2_25
REMARK    6  A    between atoms: N2_25  and  C18_27
REMARK    7  A    between atoms: C18_27  and  C19_28
ROOT
HETATM    1  C12 UNL     1     -13.867  17.265  -6.597  1.00  0.00    -0.019 C
HETATM    2  C13 UNL     1     -12.832  16.537  -6.417  1.00  0.00     0.027 C
ENDROOT
BRANCH   2   3
HETATM    3  C14 UNL     1     -11.428  16.850  -6.508  1.00  0.00     0.050 A
HETATM    4  N1  UNL     1     -10.544  16.631  -7.493  1.00  0.00    -0.364 N
HETATM    5  C15 UNL     1      -9.351  17.101  -7.120  1.00  0.00     0.106 A
ATOM      6  H1  UNL     1     -10.751  16.179  -8.384  1.00  0.00     0.165 HD
HETATM    7  C16 UNL     1      -9.445  17.654  -5.834  1.00  0.00     0.067 A
HETATM    8  C24 UNL     1     -10.747  17.496  -5.451  1.00  0.00     0.054 A
HETATM    9 BR1  UNL     1     -11.516  18.022  -3.760  1.00  0.00    -0.048 Br
BRANCH   7  10
HETATM   10  C17 UNL     1      -8.348  18.289  -5.153  1.00  0.00     0.258 C
HETATM   11  O3  UNL     1      -8.208  17.943  -3.917  1.00  0.00    -0.267 OA
HETATM   12  N2  UNL     1      -7.470  19.211  -5.753  1.00  0.00    -0.335 N
ATOM     13  H2  UNL     1      -7.564  19.491  -6.729  1.00  0.00     0.168 HD
BRANCH  12  14
HETATM   14  C18 UNL     1      -6.431  19.733  -4.907  1.00  0.00     0.091 C
BRANCH  14  15
HETATM   15  C19 UNL     1      -5.087  19.249  -5.088  1.00  0.00     0.085 C
HETATM   16 CL1  UNL     1      -3.983  20.714  -5.120  1.00  0.00    -0.112 Cl
HETATM   17  C20 UNL     1      -4.492  18.398  -3.970  1.00  0.00     0.033 C
HETATM   18  C21 UNL     1      -3.064  18.254  -4.519  1.00  0.00     0.004 C
HETATM   19  C22 UNL     1      -3.195  18.341  -6.047  1.00  0.00     0.022 C
HETATM   20  C23 UNL     1      -4.725  18.444  -6.286  1.00  0.00     0.111 C
HETATM   21 CL2  UNL     1      -5.310  16.771  -6.249  1.00  0.00    -0.123 Cl
ENDBRANCH  14  15
ENDBRANCH  12  14
ENDBRANCH   7  10
ENDBRANCH   2   3
BRANCH   1  22
HETATM   22  C11 UNL     1     -14.054  18.634  -6.944  1.00  0.00     0.017 C
HETATM   23  C9  UNL     1     -14.788  18.754  -8.337  1.00  0.00    -0.033 C
HETATM   24  C8  UNL     1     -14.115  17.983  -9.398  1.00  0.00     0.011 C
HETATM   25  C10 UNL     1     -16.233  18.384  -8.114  1.00  0.00     0.016 C
HETATM   26  C27 UNL     1     -14.706  20.249  -8.512  1.00  0.00    -0.001 C
HETATM   27  C7  UNL     1     -13.820  18.743 -10.672  1.00  0.00     0.009 C
HETATM   28  C6  UNL     1     -14.806  19.800 -10.998  1.00  0.00     0.027 C
HETATM   29  C2  UNL     1     -14.317  20.686 -12.095  1.00  0.00     0.084 C
HETATM   30  C5  UNL     1     -15.133  20.726  -9.868  1.00  0.00    -0.000 C
HETATM   31  C1  UNL     1     -12.823  20.735 -12.240  1.00  0.00     0.049 C
HETATM   32  C3  UNL     1     -14.826  22.071 -11.764  1.00  0.00     0.152 C
HETATM   33  C4  UNL     1     -14.650  22.086 -10.237  1.00  0.00     0.040 C
HETATM   34  C26 UNL     1     -13.337  20.627  -8.088  1.00  0.00     0.006 C
HETATM   35  C25 UNL     1     -12.789  19.393  -7.353  1.00  0.00     0.010 C
BRANCH  29  36
HETATM   36  O1  UNL     1     -14.853  20.327 -13.332  1.00  0.00    -0.387 OA
ATOM     37  H1  UNL     1     -15.730  20.687 -13.383  1.00  0.00     0.210 HD
ENDBRANCH  29  36
BRANCH  32  38
HETATM   38  O2  UNL     1     -14.058  23.074 -12.350  1.00  0.00    -0.393 OA
ATOM     39  H2  UNL     1     -13.941  23.822 -11.776  1.00  0.00     0.210 HD
ENDBRANCH  32  38
ENDBRANCH   1  22
TORSDOF 7
ENDMDL