MODEL 5
REMARK VINA RESULT: -5.826746267      2.726      3.906
REMARK  10 active torsions:
REMARK  status: ('A' for Active; 'I' for Inactive)
REMARK    1  A    between atoms: C2_2  and  C5_5
REMARK    2  A    between atoms: C8_10  and  O1_11
REMARK    3  A    between atoms: C9_13  and  C10_14
REMARK    4  A    between atoms: N1_15  and  N2_17
REMARK    5  A    between atoms: N2_17  and  C11_19
REMARK    6  A    between atoms: C11_19  and  N3_21
REMARK    7  A    between atoms: N3_21  and  C12_23
REMARK    8  A    between atoms: C12_23  and  C13_24
REMARK    9  A    between atoms: C13_24  and  N4_25
REMARK   10  A    between atoms: C18_30  and  C19_31
ROOT
HETATM    1  C5  UNL     1     -13.368  18.858  -9.217  1.00  0.00    -0.023 A
HETATM    2  C6  UNL     1     -13.071  18.922 -10.618  1.00  0.00     0.038 A
HETATM    3 BR1  UNL     1     -14.314  19.789 -11.758  1.00  0.00    -0.049 Br
HETATM    4  C7  UNL     1     -11.966  18.371 -11.184  1.00  0.00     0.062 A
HETATM    5 BR2  UNL     1     -11.661  18.512 -13.074  1.00  0.00    -0.047 Br
HETATM    6  C8  UNL     1     -11.082  17.724 -10.387  1.00  0.00     0.096 A
HETATM    7  C9  UNL     1     -11.311  17.618  -8.988  1.00  0.00     0.024 A
HETATM    8  C18 UNL     1     -12.444  18.166  -8.407  1.00  0.00    -0.013 A
ENDROOT
BRANCH   7   9
HETATM    9  C10 UNL     1     -10.196  17.082  -8.282  1.00  0.00     0.122 C
HETATM   10  N1  UNL     1      -9.012  17.725  -8.410  1.00  0.00    -0.309 N
ATOM     11  H1  UNL     1      -8.981  18.555  -9.002  1.00  0.00     0.186 HD
BRANCH  10  12
HETATM   12  N2  UNL     1      -7.861  17.333  -7.798  1.00  0.00    -0.277 N
ATOM     13  H2  UNL     1      -7.458  16.425  -8.031  1.00  0.00     0.189 HD
BRANCH  12  14
HETATM   14  C11 UNL     1      -7.212  18.148  -6.854  1.00  0.00     0.186 C
HETATM   15  S1  UNL     1      -5.828  17.604  -6.167  1.00  0.00    -0.040 SA
BRANCH  14  16
HETATM   16  N3  UNL     1      -7.752  19.428  -6.502  1.00  0.00    -0.364 N
ATOM     17  H3  UNL     1      -7.881  20.154  -7.207  1.00  0.00     0.162 HD
BRANCH  16  18
HETATM   18  C12 UNL     1      -8.105  19.656  -5.139  1.00  0.00     0.152 C
BRANCH  18  19
HETATM   19  C13 UNL     1      -9.426  19.087  -4.740  1.00  0.00     0.292 C
BRANCH  19  20
HETATM   20  N4  UNL     1      -9.335  17.885  -3.958  1.00  0.00     0.090 N
HETATM   21  C14 UNL     1     -10.584  17.688  -3.280  1.00  0.00     0.272 C
HETATM   22  C15 UNL     1     -10.306  17.395  -1.844  1.00  0.00     0.032 C
HETATM   23  C16 UNL     1      -8.840  17.121  -1.775  1.00  0.00     0.032 C
HETATM   24  C17 UNL     1      -8.301  17.930  -2.956  1.00  0.00     0.272 C
ENDBRANCH  19  20
ENDBRANCH  18  19
ENDBRANCH  16  18
ENDBRANCH  14  16
ENDBRANCH  12  14
ENDBRANCH  10  12
ENDBRANCH   7   9
BRANCH   6  25
HETATM   25  O1  UNL     1      -9.956  17.173 -10.990  1.00  0.00    -0.358 OA
ATOM     26  H1  UNL     1      -9.158  17.687 -10.982  1.00  0.00     0.217 HD
ENDBRANCH   6  25
BRANCH   8  27
HETATM   27  C19 UNL     1     -12.771  17.827  -7.079  1.00  0.00     0.058 C
HETATM   28  C20 UNL     1     -14.009  16.848  -7.172  1.00  0.00     0.037 C
HETATM   29  C21 UNL     1     -11.898  16.684  -6.419  1.00  0.00     0.037 C
HETATM   30 CL1  UNL     1     -12.949  18.741  -5.672  1.00  0.00    -0.115 Cl
ENDBRANCH   8  27
BRANCH   1  31
HETATM   31  C2  UNL     1     -14.508  19.582  -8.822  1.00  0.00    -0.022 C
HETATM   32  C1  UNL     1     -14.622  20.699  -9.997  1.00  0.00     0.019 C
HETATM   33  C3  UNL     1     -14.608  20.614  -7.714  1.00  0.00     0.019 C
HETATM   34  C4  UNL     1     -15.882  18.918  -8.942  1.00  0.00     0.019 C
ENDBRANCH   1  31
TORSDOF 10
ENDMDL