MODEL 1
REMARK VINA RESULT: -10.077679480      0.000      0.000
REMARK  9 active torsions:
REMARK  status: ('A' for Active; 'I' for Inactive)
REMARK    1  A    between atoms: O1_1  and  C1_3
REMARK    2  A    between atoms: C4_6  and  N1_7
REMARK    3  A    between atoms: N1_7  and  C5_9
REMARK    4  A    between atoms: C11_15  and  N2_16
REMARK    5  A    between atoms: N2_16  and  C12_18
REMARK    6  A    between atoms: C15_23  and  N4_24
REMARK    7  A    between atoms: N4_24  and  C16_26
REMARK    8  A    between atoms: C16_26  and  C17_27
REMARK    9  A    between atoms: C20_30  and  C21_31
ROOT
HETATM    1  C12 UNL     1      -8.883  19.164  -6.401  1.00  0.00     0.680 A
HETATM    2  N3  UNL     1      -8.192  18.848  -5.310  1.00  0.00    -0.195 N
ATOM      3  H3  UNL     1      -7.178  18.951  -5.344  1.00  0.00     0.184 HD
HETATM    4  C13 UNL     1      -8.746  18.394  -4.148  1.00  0.00     0.036 A
HETATM    5  C14 UNL     1     -10.104  18.245  -4.080  1.00  0.00     0.009 A
HETATM    6  C15 UNL     1     -10.858  18.566  -5.202  1.00  0.00     0.125 A
HETATM    7  N5  UNL     1     -10.255  19.007  -6.309  1.00  0.00    -0.176 N
ATOM      8  H5  UNL     1     -10.828  19.237  -7.120  1.00  0.00     0.186 HD
HETATM    9  C24 UNL     1     -10.798  17.767  -2.888  1.00  0.00     0.044 C
HETATM   10  C25 UNL     1      -9.954  17.269  -1.774  1.00  0.00     0.005 C
HETATM   11  C26 UNL     1      -8.524  16.980  -2.146  1.00  0.00     0.006 C
HETATM   12  C27 UNL     1      -7.912  18.064  -2.975  1.00  0.00     0.058 C
ENDROOT
BRANCH   1  13
HETATM   13  N2  UNL     1      -8.453  19.591  -7.511  1.00  0.00    -0.221 N
ATOM     14  H2  UNL     1      -8.923  20.417  -7.882  1.00  0.00     0.178 HD
BRANCH  13  15
HETATM   15  C11 UNL     1      -7.420  19.078  -8.296  1.00  0.00     0.099 C
HETATM   16  C10 UNL     1      -6.036  19.577  -8.089  1.00  0.00     0.026 C
HETATM   17  C9  UNL     1      -4.982  18.534  -8.121  1.00  0.00     0.011 C
HETATM   18  C8  UNL     1      -5.084  17.604  -9.313  1.00  0.00    -0.040 C
HETATM   19  C7  UNL     1      -4.442  18.279 -10.465  1.00  0.00     0.011 C
HETATM   20  C29 UNL     1      -6.496  17.143  -9.537  1.00  0.00     0.011 C
HETATM   21  C30 UNL     1      -4.229  16.393  -8.963  1.00  0.00     0.011 C
HETATM   22  C6  UNL     1      -4.196  17.402 -11.675  1.00  0.00     0.025 C
HETATM   23  C5  UNL     1      -3.705  16.036 -11.392  1.00  0.00     0.077 C
HETATM   24  C31 UNL     1      -4.219  15.435 -10.079  1.00  0.00     0.025 C
HETATM   25  C28 UNL     1      -7.373  17.553  -8.350  1.00  0.00     0.026 C
BRANCH  23  26
HETATM   26  N1  UNL     1      -3.955  15.112 -12.411  1.00  0.00    -0.413 N
ATOM     27  H1  UNL     1      -4.923  14.812 -12.520  1.00  0.00     0.154 HD
BRANCH  26  28
HETATM   28  C4  UNL     1      -3.046  14.564 -13.281  1.00  0.00     0.077 C
HETATM   29  C3  UNL     1      -3.445  13.920 -14.545  1.00  0.00     0.027 C
HETATM   30  C2  UNL     1      -4.200  12.620 -14.440  1.00  0.00     0.034 C
HETATM   31  C1  UNL     1      -3.777  11.708 -13.355  1.00  0.00     0.118 C
HETATM   32  C33 UNL     1      -3.230  12.418 -12.140  1.00  0.00     0.034 C
HETATM   33  C32 UNL     1      -2.249  13.487 -12.487  1.00  0.00     0.027 C
BRANCH  31  34
HETATM   34  O1  UNL     1      -4.910  10.987 -12.923  1.00  0.00    -0.396 OA
ATOM     35  H1  UNL     1      -4.610  10.191 -12.502  1.00  0.00     0.210 HD
ENDBRANCH  31  34
ENDBRANCH  26  28
ENDBRANCH  23  26
ENDBRANCH  13  15
ENDBRANCH   1  13
BRANCH   6  36
HETATM   36  N4  UNL     1     -12.138  18.417  -5.130  1.00  0.00    -0.375 N
ATOM     37  H4  UNL     1     -12.620  18.340  -4.234  1.00  0.00     0.161 HD
BRANCH  36  38
HETATM   38  C16 UNL     1     -12.862  18.365  -6.404  1.00  0.00     0.126 C
BRANCH  38  39
HETATM   39  C17 UNL     1     -13.544  17.025  -6.591  1.00  0.00     0.003 C
HETATM   40  C18 UNL     1     -12.517  15.929  -6.771  1.00  0.00     0.007 C
HETATM   41  C19 UNL     1     -13.098  14.658  -6.189  1.00  0.00     0.014 C
HETATM   42  C20 UNL     1     -13.257  14.806  -4.685  1.00  0.00     0.093 C
HETATM   43  C22 UNL     1     -14.081  16.019  -4.343  1.00  0.00     0.014 C
HETATM   44  C23 UNL     1     -14.591  16.721  -5.575  1.00  0.00     0.007 C
BRANCH  42  45
HETATM   45  C21 UNL     1     -13.897  13.532  -4.130  1.00  0.00     0.391 C
HETATM   46  F1  UNL     1     -14.668  13.896  -3.040  1.00  0.00    -0.171 F
HETATM   47  F2  UNL     1     -14.615  12.874  -5.093  1.00  0.00    -0.171 F
HETATM   48  F3  UNL     1     -12.853  12.686  -3.753  1.00  0.00    -0.171 F
ENDBRANCH  42  45
ENDBRANCH  38  39
ENDBRANCH  36  38
ENDBRANCH   6  36
TORSDOF 9
ENDMDL