MODEL 3
REMARK VINA RESULT: -8.087667673      5.968      9.388
REMARK  8 active torsions:
REMARK  status: ('A' for Active; 'I' for Inactive)
REMARK    1  A    between atoms: C2_2  and  C3_3
REMARK    2  A    between atoms: C2_2  and  C8_19
REMARK    3  A    between atoms: C3_3  and  C4_4
REMARK    4  A    between atoms: C4_4  and  N1_5
REMARK       I    between atoms: N1_5  and  C5_7
REMARK       I    between atoms: C5_7  and  N3_9
REMARK    5  A    between atoms: N3_9  and  C6_10
REMARK    6  A    between atoms: C6_10  and  N4_11
REMARK    7  A    between atoms: C6_10  and  C7_15
REMARK    8  A    between atoms: C19_31  and  O2_32
ROOT
HETATM    1  C8  UNL     1     -14.054  19.252  -8.715  1.00  0.00    -0.002 C
HETATM    2  C9  UNL     1     -14.959  19.575  -9.925  1.00  0.00     0.006 C
HETATM    3  C10 UNL     1     -13.822  20.153 -10.773  1.00  0.00     0.006 C
HETATM    4  C11 UNL     1     -13.369  21.268  -9.930  1.00  0.00     0.006 C
HETATM    5  C12 UNL     1     -13.868  22.598 -10.112  1.00  0.00     0.065 C
HETATM    6  C13 UNL     1     -14.979  22.928 -11.026  1.00  0.00     0.132 C
HETATM    7  O1  UNL     1     -15.528  22.196 -11.815  1.00  0.00    -0.298 OA
HETATM    8  C14 UNL     1     -15.526  24.300 -11.017  1.00  0.00     0.085 C
HETATM    9  C15 UNL     1     -14.843  25.355 -10.242  1.00  0.00     0.011 C
HETATM   10  C16 UNL     1     -14.180  26.384 -11.130  1.00  0.00    -0.017 C
HETATM   11  C17 UNL     1     -15.320  27.264 -11.697  1.00  0.00     0.018 C
HETATM   12  C18 UNL     1     -13.493  25.844 -12.336  1.00  0.00     0.018 C
HETATM   13  C19 UNL     1     -13.292  27.340 -10.406  1.00  0.00     0.126 C
HETATM   14  C20 UNL     1     -12.522  26.787  -9.261  1.00  0.00     0.033 C
HETATM   15  C21 UNL     1     -12.547  25.273  -9.191  1.00  0.00     0.012 C
HETATM   16  C22 UNL     1     -14.003  24.888  -9.087  1.00  0.00    -0.035 C
HETATM   17  C23 UNL     1     -14.454  25.523  -7.750  1.00  0.00     0.016 C
HETATM   18  C24 UNL     1     -14.228  23.410  -8.869  1.00  0.00     0.006 C
HETATM   19  C25 UNL     1     -13.643  22.859  -7.620  1.00  0.00     0.007 C
HETATM   20  C26 UNL     1     -14.251  21.434  -7.583  1.00  0.00     0.010 C
HETATM   21  C27 UNL     1     -13.464  20.629  -8.528  1.00  0.00    -0.036 C
HETATM   22  C28 UNL     1     -12.077  20.437  -7.950  1.00  0.00     0.016 C
ENDROOT
BRANCH   1  23
HETATM   23  C2  UNL     1     -14.833  18.698  -7.561  1.00  0.00    -0.012 C
HETATM   24  C1  UNL     1     -16.190  18.284  -8.149  1.00  0.00     0.010 C
BRANCH  23  25
HETATM   25  C3  UNL     1     -14.100  17.476  -7.060  1.00  0.00     0.024 C
BRANCH  25  26
HETATM   26  C4  UNL     1     -13.667  17.464  -5.643  1.00  0.00     0.123 C
BRANCH  26  27
HETATM   27  N1  UNL     1     -12.777  18.469  -5.187  1.00  0.00    -0.353 N
HETATM   28  C5  UNL     1     -11.361  18.095  -5.004  1.00  0.00     0.259 C
HETATM   29  N2  UNL     1     -10.821  18.399  -3.681  1.00  0.00    -0.050 NA
HETATM   30  N3  UNL     1     -10.680  17.596  -5.820  1.00  0.00    -0.380 NA
ATOM     31  H1  UNL     1     -13.103  19.416  -4.993  1.00  0.00     0.163 HD
BRANCH  30  32
HETATM   32  C6  UNL     1      -9.905  17.032  -6.740  1.00  0.00     0.415 C
BRANCH  32  33
HETATM   33  N4  UNL     1     -10.603  16.983  -8.048  1.00  0.00    -0.042 N
ATOM     34  H43 UNL     1     -11.023  16.070  -8.220  1.00  0.00     0.278 HD
ATOM     35  H42 UNL     1     -11.455  17.544  -8.044  1.00  0.00     0.278 HD
ATOM     36  H41 UNL     1      -9.972  17.258  -8.801  1.00  0.00     0.278 HD
ENDBRANCH  32  33
BRANCH  32  37
HETATM   37  C7  UNL     1      -8.550  17.724  -7.016  1.00  0.00     0.245 C
HETATM   38 CL1  UNL     1      -8.766  19.329  -7.703  1.00  0.00    -0.078 Cl
HETATM   39 CL2  UNL     1      -7.718  16.699  -8.217  1.00  0.00    -0.078 Cl
HETATM   40 CL3  UNL     1      -7.591  17.756  -5.537  1.00  0.00    -0.078 Cl
ENDBRANCH  32  37
ENDBRANCH  30  32
ENDBRANCH  26  27
ENDBRANCH  25  26
ENDBRANCH  23  25
ENDBRANCH   1  23
BRANCH  13  41
HETATM   41  O2  UNL     1     -13.961  28.542 -10.061  1.00  0.00    -0.395 OA
ATOM     42  H2  UNL     1     -13.590  28.954  -9.289  1.00  0.00     0.210 HD
ENDBRANCH  13  41
TORSDOF 8
ENDMDL