MODEL 3
REMARK VINA RESULT: -7.175279089      3.663      7.010
REMARK  7 active torsions:
REMARK  status: ('A' for Active; 'I' for Inactive)
REMARK    1  A    between atoms: C13_14  and  C14_15
REMARK    2  A    between atoms: C17_20  and  C18_21
REMARK    3  A    between atoms: C18_21  and  C19_24
REMARK    4  A    between atoms: C19_24  and  O3_25
REMARK    5  A    between atoms: C21_29  and  C22_30
REMARK    6  A    between atoms: C22_30  and  C23_31
REMARK    7  A    between atoms: C23_31  and  C24_32
ROOT
HETATM    1  C1  UNL     1     -11.706  17.335  -4.495  1.00  0.00     0.016 C
HETATM    2  C2  UNL     1     -12.509  16.800  -5.694  1.00  0.00    -0.031 C
HETATM    3  C3  UNL     1     -12.541  15.318  -5.563  1.00  0.00     0.037 C
HETATM    4  C4  UNL     1     -13.594  15.159  -4.488  1.00  0.00    -0.029 C
HETATM    5  C5  UNL     1     -14.348  16.247  -4.463  1.00  0.00    -0.021 C
HETATM    6  C6  UNL     1     -13.900  17.238  -5.488  1.00  0.00     0.038 C
HETATM    7  C7  UNL     1     -14.843  17.254  -6.612  1.00  0.00    -0.020 C
HETATM    8  C8  UNL     1     -14.506  17.514  -7.985  1.00  0.00    -0.005 C
HETATM    9  C9  UNL     1     -14.052  18.767  -8.612  1.00  0.00     0.074 C
HETATM   10  C10 UNL     1     -14.252  18.435 -10.077  1.00  0.00     0.074 C
HETATM   11  N1  UNL     1     -14.420  18.156 -11.208  1.00  0.00    -0.196 NA
HETATM   12  C11 UNL     1     -15.032  19.807  -8.249  1.00  0.00     0.031 C
HETATM   13  C12 UNL     1     -14.503  20.985  -7.540  1.00  0.00     0.023 C
HETATM   14  C13 UNL     1     -13.234  21.576  -8.113  1.00  0.00     0.058 C
HETATM   15  C15 UNL     1     -13.723  22.782  -8.877  1.00  0.00     0.022 C
HETATM   16  C16 UNL     1     -13.162  23.098 -10.187  1.00  0.00     0.011 C
HETATM   17  C17 UNL     1     -13.244  21.779 -10.928  1.00  0.00     0.058 C
HETATM   18  C20 UNL     1     -12.192  20.950 -10.306  1.00  0.00     0.101 C
HETATM   19 CL1  UNL     1     -10.747  22.003 -10.683  1.00  0.00    -0.124 Cl
HETATM   20  C21 UNL     1     -12.304  20.622  -8.832  1.00  0.00     0.004 C
HETATM   21  C25 UNL     1     -12.590  19.148  -8.540  1.00  0.00    -0.010 C
HETATM   22  C26 UNL     1     -11.885  18.175  -9.406  1.00  0.00     0.018 C
HETATM   23  C27 UNL     1     -12.147  18.739  -7.149  1.00  0.00     0.013 C
HETATM   24  C28 UNL     1     -11.806  17.315  -6.928  1.00  0.00     0.011 C
ENDROOT
BRANCH  20  25
HETATM   25  C22 UNL     1     -10.924  21.003  -8.323  1.00  0.00     0.024 C
BRANCH  25  26
HETATM   26  C23 UNL     1      -9.715  20.284  -8.639  1.00  0.00     0.114 C
BRANCH  26  27
HETATM   27  C24 UNL     1      -8.891  20.217  -7.355  1.00  0.00     0.172 C
HETATM   28  O4  UNL     1      -9.134  21.033  -6.443  1.00  0.00    -0.648 OA
HETATM   29  O5  UNL     1      -7.903  19.264  -7.234  1.00  0.00    -0.648 OA
ENDBRANCH  26  27
ENDBRANCH  25  26
ENDBRANCH  20  25
BRANCH  14  30
HETATM   30  C14 UNL     1     -12.625  22.235  -6.893  1.00  0.00     0.182 C
HETATM   31  O1  UNL     1     -12.284  23.455  -6.890  1.00  0.00    -0.647 OA
HETATM   32  O2  UNL     1     -12.377  21.616  -5.690  1.00  0.00    -0.647 OA
ENDBRANCH  14  30
BRANCH  17  33
HETATM   33  C18 UNL     1     -13.143  22.078 -12.366  1.00  0.00     0.186 C
HETATM   34  F1  UNL     1     -12.022  21.330 -12.843  1.00  0.00    -0.228 F
HETATM   35 BR1  UNL     1     -14.572  21.291 -13.458  1.00  0.00    -0.046 Br
BRANCH  33  36
HETATM   36  C19 UNL     1     -12.883  23.473 -12.789  1.00  0.00     0.220 C
BRANCH  36  37
HETATM   37  O3  UNL     1     -13.438  23.656 -14.056  1.00  0.00    -0.397 OA
ATOM     38  H3  UNL     1     -14.374  23.775 -13.956  1.00  0.00     0.209 HD
ENDBRANCH  36  37
ENDBRANCH  33  36
ENDBRANCH  17  33
TORSDOF 7
ENDMDL