MODEL 3
REMARK VINA RESULT: -6.446103964      0.848      1.039
REMARK  7 active torsions:
REMARK  status: ('A' for Active; 'I' for Inactive)
REMARK    1  A    between atoms: C2_2  and  C3_3
REMARK    2  A    between atoms: C2_2  and  C4_5
REMARK    3  A    between atoms: C12_13  and  O1_14
REMARK    4  A    between atoms: N1_16  and  C13_17
REMARK    5  A    between atoms: N2_20  and  C16_21
REMARK    6  A    between atoms: C16_21  and  C17_22
REMARK    7  A    between atoms: C20_26  and  O2_27
ROOT
HETATM    1  C4  UNL     1     -12.195  16.992  -4.760  1.00  0.00     0.018 C
HETATM    2  C5  UNL     1     -12.419  18.218  -3.877  1.00  0.00     0.008 C
HETATM    3  C6  UNL     1     -11.711  19.363  -4.566  1.00  0.00     0.007 C
HETATM    4  C7  UNL     1     -10.993  18.738  -5.713  1.00  0.00     0.014 C
HETATM    5  C8  UNL     1     -10.705  19.641  -6.866  1.00  0.00     0.022 C
HETATM    6  C9  UNL     1     -11.909  20.184  -7.571  1.00  0.00     0.084 C
HETATM    7  C10 UNL     1     -12.228  21.606  -7.286  1.00  0.00     0.013 A
HETATM    8  C11 UNL     1     -13.435  22.080  -7.709  1.00  0.00     0.004 A
HETATM    9  C12 UNL     1     -13.541  23.397  -7.373  1.00  0.00     0.151 A
HETATM   10  N1  UNL     1     -12.416  23.769  -6.743  1.00  0.00    -0.303 N
HETATM   11  C20 UNL     1     -11.628  22.690  -6.692  1.00  0.00     0.152 A
HETATM   12  C21 UNL     1     -14.420  21.188  -8.417  1.00  0.00     0.048 C
HETATM   13  C22 UNL     1     -14.441  19.956  -7.538  1.00  0.00     0.071 C
HETATM   14  C23 UNL     1     -13.067  19.267  -7.552  1.00  0.00     0.180 C
HETATM   15  F1  UNL     1     -13.127  18.511  -8.743  1.00  0.00    -0.219 F
HETATM   16  N3  UNL     1     -13.157  18.318  -6.497  1.00  0.00    -0.378 N
ATOM     17  H3  UNL     1     -14.050  18.140  -6.038  1.00  0.00     0.157 HD
HETATM   18  C24 UNL     1     -12.000  17.627  -6.093  1.00  0.00     0.032 C
HETATM   19  C25 UNL     1     -11.322  16.778  -7.110  1.00  0.00     0.039 C
ENDROOT
BRANCH  10  20
HETATM   20  C13 UNL     1     -12.249  25.129  -6.277  1.00  0.00     0.097 C
HETATM   21  C14 UNL     1     -12.121  25.353  -4.837  1.00  0.00     0.056 C
HETATM   22  C15 UNL     1     -10.756  25.521  -4.255  1.00  0.00     0.274 C
HETATM   23  N2  UNL     1      -9.958  26.417  -5.015  1.00  0.00     0.089 N
HETATM   24  C18 UNL     1      -9.850  25.931  -6.351  1.00  0.00     0.274 C
HETATM   25  C19 UNL     1     -11.172  25.828  -7.039  1.00  0.00     0.056 C
BRANCH  23  26
HETATM   26  C16 UNL     1     -10.182  27.805  -4.855  1.00  0.00     0.283 C
BRANCH  26  27
HETATM   27  C17 UNL     1     -10.197  28.205  -3.417  1.00  0.00     0.115 C
HETATM   28 BR2  UNL     1     -11.911  28.942  -2.895  1.00  0.00    -0.095 Br
ENDBRANCH  26  27
ENDBRANCH  23  26
ENDBRANCH  10  20
BRANCH   9  29
HETATM   29  O1  UNL     1     -14.664  24.232  -7.650  1.00  0.00    -0.345 OA
ATOM     30  H1  UNL     1     -14.651  25.009  -8.195  1.00  0.00     0.219 HD
ENDBRANCH   9  29
BRANCH  11  31
HETATM   31  O2  UNL     1     -10.372  22.699  -6.105  1.00  0.00    -0.345 OA
ATOM     32  H2  UNL     1      -9.718  23.380  -6.204  1.00  0.00     0.219 HD
ENDBRANCH  11  31
BRANCH   1  33
HETATM   33  C2  UNL     1     -13.268  15.991  -4.599  1.00  0.00    -0.002 C
HETATM   34  C1  UNL     1     -14.677  16.452  -4.759  1.00  0.00     0.011 C
BRANCH  33  35
HETATM   35  C3  UNL     1     -13.025  14.672  -5.278  1.00  0.00     0.089 C
HETATM   36 BR1  UNL     1     -13.963  13.269  -4.315  1.00  0.00    -0.096 Br
ENDBRANCH  33  35
ENDBRANCH   1  33
TORSDOF 7
ENDMDL