MODEL 2
REMARK VINA RESULT: -7.658148611      3.122      5.414
REMARK  6 active torsions:
REMARK  status: ('A' for Active; 'I' for Inactive)
REMARK    1  A    between atoms: C3_3  and  O1_4
REMARK    2  A    between atoms: C4_6  and  C5_7
REMARK    3  A    between atoms: C8_10  and  C10_12
REMARK    4  A    between atoms: C13_16  and  O2_18
REMARK    5  A    between atoms: C17_22  and  C18_23
REMARK    6  A    between atoms: C20_27  and  O5_28
ROOT
HETATM    1  C1  UNL     1      -8.872  18.398 -11.826  1.00  0.00     0.013 C
HETATM    2  C2  UNL     1     -10.318  18.770 -11.354  1.00  0.00     0.018 C
HETATM    3  C3  UNL     1     -10.497  17.917 -10.206  1.00  0.00     0.130 C
HETATM    4  C4  UNL     1     -11.625  17.807  -9.236  1.00  0.00     0.037 C
HETATM    5  C15 UNL     1     -12.416  19.006  -8.952  1.00  0.00     0.012 C
HETATM    6  C16 UNL     1     -13.862  19.158  -9.349  1.00  0.00     0.022 C
HETATM    7  C17 UNL     1     -14.068  20.250 -10.380  1.00  0.00     0.056 C
HETATM    8  C19 UNL     1     -15.275  20.633 -11.006  1.00  0.00     0.059 C
HETATM    9  C20 UNL     1     -14.924  21.805 -11.938  1.00  0.00     0.178 C
HETATM   10  C21 UNL     1     -13.711  21.732 -12.786  1.00  0.00     0.112 C
HETATM   11  F1  UNL     1     -12.858  22.822 -12.765  1.00  0.00    -0.212 F
HETATM   12  C22 UNL     1     -13.163  20.418 -12.864  1.00  0.00     0.050 C
HETATM   13  C23 UNL     1     -13.919  19.797 -14.056  1.00  0.00     0.026 C
HETATM   14  C24 UNL     1     -13.331  19.724 -11.554  1.00  0.00     0.023 C
HETATM   15  C25 UNL     1     -13.604  18.351 -11.941  1.00  0.00     0.007 C
HETATM   16  C26 UNL     1     -12.299  17.752 -12.467  1.00  0.00     0.009 C
HETATM   17  C27 UNL     1     -11.223  18.792 -12.541  1.00  0.00     0.032 C
HETATM   18  C28 UNL     1     -11.682  20.116 -13.137  1.00  0.00     0.117 C
HETATM   19  C29 UNL     1     -10.765  21.234 -12.728  1.00  0.00     0.053 C
HETATM   20  F2  UNL     1     -11.568  20.101 -14.538  1.00  0.00    -0.242 F
ENDROOT
BRANCH   4  21
HETATM   21  C5  UNL     1     -11.036  17.097  -8.035  1.00  0.00    -0.014 C
HETATM   22  C6  UNL     1     -11.540  17.232  -6.687  1.00  0.00    -0.049 C
HETATM   23  C7  UNL     1     -12.978  16.881  -6.449  1.00  0.00     0.046 C
HETATM   24  C13 UNL     1     -11.062  18.276  -5.736  1.00  0.00     0.077 C
HETATM   25  C8  UNL     1     -13.189  16.354  -5.063  1.00  0.00    -0.031 C
HETATM   26  C9  UNL     1     -14.691  16.359  -4.774  1.00  0.00     0.016 C
HETATM   27  C11 UNL     1     -12.518  17.196  -4.033  1.00  0.00     0.013 C
HETATM   28  C12 UNL     1     -11.108  17.577  -4.326  1.00  0.00     0.043 C
HETATM   29  C14 UNL     1      -9.627  18.674  -5.877  1.00  0.00     0.051 C
BRANCH  25  30
HETATM   30  C10 UNL     1     -12.753  14.920  -4.869  1.00  0.00     0.094 C
HETATM   31 BR1  UNL     1     -14.270  13.975  -4.070  1.00  0.00    -0.096 Br
ENDBRANCH  25  30
BRANCH  24  32
HETATM   32  O2  UNL     1     -11.937  19.332  -5.498  1.00  0.00    -0.386 OA
ATOM     33  H2  UNL     1     -11.804  20.112  -6.026  1.00  0.00     0.211 HD
ENDBRANCH  24  32
ENDBRANCH   4  21
BRANCH   3  34
HETATM   34  O1  UNL     1      -9.355  18.232  -9.404  1.00  0.00    -0.395 OA
ATOM     35  H1  UNL     1      -8.840  17.436  -9.455  1.00  0.00     0.210 HD
ENDBRANCH   3  34
BRANCH   7  36
HETATM   36  C18 UNL     1     -13.639  21.403  -9.612  1.00  0.00     0.182 C
HETATM   37  O3  UNL     1     -12.720  22.187  -9.576  1.00  0.00    -0.647 OA
HETATM   38  O4  UNL     1     -14.564  21.729  -8.575  1.00  0.00    -0.647 OA
ENDBRANCH   7  36
BRANCH   9  39
HETATM   39  O5  UNL     1     -14.901  23.016 -11.209  1.00  0.00    -0.389 OA
ATOM     40  H5  UNL     1     -14.458  23.691 -11.711  1.00  0.00     0.210 HD
ENDBRANCH   9  39
TORSDOF 6
ENDMDL