MODEL 4
REMARK VINA RESULT: -8.203544396      4.993      9.523
REMARK  9 active torsions:
REMARK  status: ('A' for Active; 'I' for Inactive)
REMARK    1  A    between atoms: C5_5  and  O1_6
REMARK    2  A    between atoms: C14_16  and  C15_17
REMARK    3  A    between atoms: C15_17  and  C16_19
REMARK    4  A    between atoms: C16_19  and  N1_20
REMARK    5  A    between atoms: C16_19  and  C23_28
REMARK    6  A    between atoms: N1_20  and  C17_22
REMARK       I    between atoms: C23_28  and  N2_30
REMARK    7  A    between atoms: N2_30  and  C24_32
REMARK    8  A    between atoms: C24_32  and  C25_33
REMARK    9  A    between atoms: C33_44  and  O4_45
ROOT
HETATM    1  C1  UNL     1     -16.137  26.650  -8.959  1.00  0.00     0.025 C
HETATM    2  C2  UNL     1     -14.937  26.030  -9.701  1.00  0.00     0.003 C
HETATM    3  C3  UNL     1     -15.368  25.942 -11.143  1.00  0.00     0.021 C
HETATM    4  C4  UNL     1     -15.995  27.217 -11.607  1.00  0.00     0.033 C
HETATM    5  C5  UNL     1     -15.614  28.471 -10.935  1.00  0.00     0.122 C
HETATM    6  C6  UNL     1     -14.411  28.476 -10.073  1.00  0.00     0.066 C
HETATM    7  C7  UNL     1     -13.909  27.112  -9.723  1.00  0.00    -0.069 C
HETATM    8  C8  UNL     1     -12.646  26.974  -9.482  1.00  0.00    -0.022 C
HETATM    9  C9  UNL     1     -12.087  25.671  -9.151  1.00  0.00     0.037 C
HETATM   10  C10 UNL     1     -13.111  24.897  -8.360  1.00  0.00     0.025 C
HETATM   11  C11 UNL     1     -12.627  23.509  -8.335  1.00  0.00     0.024 C
HETATM   12  C12 UNL     1     -11.298  23.099  -7.884  1.00  0.00     0.009 C
HETATM   13  C13 UNL     1     -11.170  21.683  -8.504  1.00  0.00     0.014 C
HETATM   14  C14 UNL     1     -12.395  20.905  -8.686  1.00  0.00     0.072 C
HETATM   15  C28 UNL     1     -13.750  21.528  -8.535  1.00  0.00     0.011 C
HETATM   16  C29 UNL     1     -14.829  20.650  -7.980  1.00  0.00     0.023 C
HETATM   17  C30 UNL     1     -14.236  22.231  -9.809  1.00  0.00    -0.014 C
HETATM   18  C31 UNL     1     -14.649  23.567  -9.919  1.00  0.00     0.001 C
HETATM   19  C32 UNL     1     -14.459  24.758  -9.083  1.00  0.00    -0.063 C
HETATM   20  C33 UNL     1     -13.553  22.661  -7.578  1.00  0.00     0.135 C
ENDROOT
BRANCH  14  21
HETATM   21  C15 UNL     1     -12.287  19.636  -7.924  1.00  0.00     0.163 C
HETATM   22  O2  UNL     1     -11.938  19.738  -6.768  1.00  0.00    -0.295 OA
BRANCH  21  23
HETATM   23  C16 UNL     1     -12.552  18.281  -8.426  1.00  0.00     0.240 C
BRANCH  23  24
HETATM   24  N1  UNL     1     -11.943  17.832  -9.602  1.00  0.00    -0.399 N
ATOM     25  H1  UNL     1     -11.056  17.344  -9.472  1.00  0.00     0.154 HD
BRANCH  24  26
HETATM   26  C17 UNL     1     -12.361  17.948 -10.903  1.00  0.00     0.077 C
HETATM   27  C18 UNL     1     -13.803  18.200 -11.229  1.00  0.00     0.024 C
HETATM   28  C19 UNL     1     -13.921  19.462 -12.130  1.00  0.00     0.002 C
HETATM   29  C20 UNL     1     -13.205  19.167 -13.403  1.00  0.00     0.000 C
HETATM   30  C21 UNL     1     -11.817  18.606 -13.167  1.00  0.00     0.002 C
HETATM   31  C22 UNL     1     -11.458  18.911 -11.711  1.00  0.00     0.024 C
ENDBRANCH  24  26
ENDBRANCH  23  24
BRANCH  23  32
HETATM   32  C23 UNL     1     -12.296  17.241  -7.343  1.00  0.00     0.248 C
HETATM   33  O3  UNL     1     -11.178  16.698  -7.379  1.00  0.00    -0.271 OA
HETATM   34  N2  UNL     1     -13.243  16.912  -6.387  1.00  0.00    -0.341 N
ATOM     35  H2  UNL     1     -14.126  17.419  -6.447  1.00  0.00     0.163 HD
BRANCH  34  36
HETATM   36  C24 UNL     1     -13.148  15.956  -5.324  1.00  0.00     0.131 A
HETATM   37  C26 UNL     1     -12.429  16.308  -4.071  1.00  0.00     0.043 A
HETATM   38  C27 UNL     1     -13.926  16.316  -4.065  1.00  0.00     0.043 A
BRANCH  36  39
HETATM   39  C25 UNL     1     -13.139  14.474  -5.657  1.00  0.00     0.412 C
HETATM   40  F1  UNL     1     -11.832  14.080  -5.769  1.00  0.00    -0.168 F
HETATM   41  F2  UNL     1     -13.908  13.708  -4.837  1.00  0.00    -0.168 F
HETATM   42  F3  UNL     1     -13.691  14.328  -6.939  1.00  0.00    -0.168 F
ENDBRANCH  36  39
ENDBRANCH  34  36
ENDBRANCH  23  32
ENDBRANCH  21  23
ENDBRANCH  14  21
BRANCH  20  43
HETATM   43  O4  UNL     1     -13.043  22.264  -6.317  1.00  0.00    -0.394 OA
ATOM     44  H4  UNL     1     -12.352  21.615  -6.381  1.00  0.00     0.210 HD
ENDBRANCH  20  43
BRANCH   5  45
HETATM   45  O1  UNL     1     -15.418  29.462 -11.936  1.00  0.00    -0.395 OA
ATOM     46  H1  UNL     1     -14.493  29.487 -12.146  1.00  0.00     0.210 HD
ENDBRANCH   5  45
TORSDOF 9
ENDMDL