MODEL 2
REMARK VINA RESULT: -6.194669056      4.710      7.761
REMARK  10 active torsions:
REMARK  status: ('A' for Active; 'I' for Inactive)
REMARK    1  A    between atoms: C2_2  and  C4_4
REMARK    2  A    between atoms: C4_4  and  C5_5
REMARK    3  A    between atoms: C5_5  and  C6_6
REMARK    4  A    between atoms: C8_8  and  C9_9
REMARK    5  A    between atoms: C10_10  and  C11_11
REMARK    6  A    between atoms: C11_11  and  O1_12
REMARK    7  A    between atoms: C11_11  and  C12_14
REMARK    8  A    between atoms: C12_14  and  C14_16
REMARK    9  A    between atoms: C14_16  and  C15_17
REMARK   10  A    between atoms: N2_19  and  O2_21
ROOT
HETATM    1  C11 UNL     1      25.049 -16.401  -1.008  1.00  0.00     0.144 C
ENDROOT
BRANCH   1   2
HETATM    2  C10 UNL     1      26.262 -15.755  -0.480  1.00  0.00     0.001 C
HETATM    3  C9  UNL     1      26.247 -14.551   0.023  1.00  0.00    -0.023 C
BRANCH   3   4
HETATM    4  C8  UNL     1      27.425 -13.840   0.570  1.00  0.00     0.012 A
HETATM    5  C6  UNL     1      27.694 -13.785   2.020  1.00  0.00    -0.006 A
HETATM    6  C7  UNL     1      27.043 -12.582   1.364  1.00  0.00     0.014 A
BRANCH   5   7
HETATM    7  C5  UNL     1      29.111 -13.523   2.469  1.00  0.00     0.005 C
BRANCH   7   8
HETATM    8  C4  UNL     1      29.165 -12.654   3.705  1.00  0.00     0.004 C
BRANCH   8   9
HETATM    9  C2  UNL     1      28.401 -13.418   4.794  1.00  0.00    -0.023 C
HETATM   10  C1  UNL     1      28.201 -12.524   6.012  1.00  0.00     0.009 C
HETATM   11  C3  UNL     1      29.234 -14.598   5.260  1.00  0.00     0.009 C
ENDBRANCH   8   9
ENDBRANCH   7   8
ENDBRANCH   5   7
ENDBRANCH   3   4
ENDBRANCH   1   2
BRANCH   1  12
HETATM   12  O1  UNL     1      25.147 -16.388  -2.408  1.00  0.00    -0.391 OA
ATOM     13  H1  UNL     1      25.369 -17.270  -2.683  1.00  0.00     0.210 HD
ENDBRANCH   1  12
BRANCH   1  14
HETATM   14  C12 UNL     1      24.867 -17.821  -0.586  1.00  0.00     0.021 C
HETATM   15  C13 UNL     1      25.936 -18.307   0.351  1.00  0.00     0.013 C
BRANCH  14  16
HETATM   16  C14 UNL     1      23.544 -17.905   0.168  1.00  0.00     0.082 C
BRANCH  16  17
HETATM   17  C15 UNL     1      22.560 -18.741  -0.569  1.00  0.00     0.113 C
HETATM   18  N1  UNL     1      22.836 -19.073  -1.925  1.00  0.00    -0.086 NA
HETATM   19  N2  UNL     1      21.476 -19.183  -0.054  1.00  0.00    -0.260 N
ATOM     20  H2  UNL     1      20.872 -19.748  -0.649  1.00  0.00     0.195 HD
BRANCH  19  21
HETATM   21  O2  UNL     1      21.064 -18.959   1.223  1.00  0.00    -0.289 OA
ATOM     22  H2  UNL     1      20.815 -19.632   1.846  1.00  0.00     0.244 HD
ENDBRANCH  19  21
ENDBRANCH  16  17
ENDBRANCH  14  16
ENDBRANCH   1  14
TORSDOF 10
ENDMDL