MODEL 3
REMARK VINA RESULT: -6.129823067      1.482      2.366
REMARK  10 active torsions:
REMARK  status: ('A' for Active; 'I' for Inactive)
REMARK    1  A    between atoms: C2_2  and  C3_3
REMARK    2  A    between atoms: C3_3  and  C4_4
REMARK    3  A    between atoms: C5_5  and  C6_6
REMARK    4  A    between atoms: C6_6  and  C7_7
REMARK    5  A    between atoms: C7_7  and  C8_8
REMARK    6  A    between atoms: C8_8  and  O1_9
REMARK    7  A    between atoms: C8_8  and  C9_11
REMARK    8  A    between atoms: C9_11  and  C10_12
REMARK    9  A    between atoms: C11_13  and  C12_14
REMARK   10  A    between atoms: C14_16  and  N1_17
ROOT
HETATM    1  C10 UNL     1      25.941 -13.931  -2.269  1.00  0.00    -0.026 C
HETATM    2  C11 UNL     1      26.002 -13.648  -3.548  1.00  0.00    -0.006 C
ENDROOT
BRANCH   1   3
HETATM    3  C9  UNL     1      27.140 -14.327  -1.512  1.00  0.00     0.058 C
BRANCH   3   4
HETATM    4  C8  UNL     1      26.863 -14.591  -0.049  1.00  0.00     0.121 C
BRANCH   4   5
HETATM    5  C7  UNL     1      27.693 -15.776   0.393  1.00  0.00     0.036 C
BRANCH   5   6
HETATM    6  C6  UNL     1      27.474 -16.962  -0.551  1.00  0.00     0.029 C
BRANCH   6   7
HETATM    7  C5  UNL     1      26.588 -17.904   0.166  1.00  0.00    -0.030 C
HETATM    8  C4  UNL     1      25.307 -18.001  -0.012  1.00  0.00    -0.027 C
BRANCH   8   9
HETATM    9  C3  UNL     1      24.530 -17.193  -0.952  1.00  0.00     0.053 C
BRANCH   9  10
HETATM   10  C2  UNL     1      23.077 -17.411  -0.619  1.00  0.00    -0.033 C
HETATM   11  C1  UNL     1      22.614 -18.641  -0.631  1.00  0.00     0.007 C
ENDBRANCH   9  10
ENDBRANCH   8   9
ENDBRANCH   6   7
ENDBRANCH   5   6
ENDBRANCH   4   5
BRANCH   4  12
HETATM   12  O1  UNL     1      27.199 -13.471   0.699  1.00  0.00    -0.395 OA
ATOM     13  H1  UNL     1      26.978 -13.611   1.612  1.00  0.00     0.210 HD
ENDBRANCH   4  12
ENDBRANCH   3   4
ENDBRANCH   1   3
BRANCH   2  14
HETATM   14  C12 UNL     1      27.265 -13.713  -4.279  1.00  0.00     0.106 C
HETATM   15  C13 UNL     1      27.310 -14.931  -5.219  1.00  0.00     0.068 C
HETATM   16  C14 UNL     1      28.509 -14.478  -6.073  1.00  0.00     0.230 C
HETATM   17  C15 UNL     1      28.145 -13.022  -6.204  1.00  0.00     0.009 C
HETATM   18  C16 UNL     1      28.537 -12.159  -7.355  1.00  0.00     0.065 C
HETATM   19  N2  UNL     1      27.465 -12.651  -5.200  1.00  0.00    -0.387 N
ATOM     20  H2  UNL     1      27.105 -11.706  -5.071  1.00  0.00     0.159 HD
BRANCH  16  21
HETATM   21  N1  UNL     1      29.671 -14.601  -5.244  1.00  0.00    -0.070 N
ATOM     22  H13 UNL     1      29.474 -15.011  -4.332  1.00  0.00     0.275 HD
ATOM     23  H12 UNL     1      30.323 -15.316  -5.568  1.00  0.00     0.275 HD
ATOM     24  H11 UNL     1      30.088 -13.672  -5.186  1.00  0.00     0.275 HD
ENDBRANCH  16  21
ENDBRANCH   2  14
TORSDOF 10
ENDMDL