MODEL 3
REMARK VINA RESULT: -6.136456777      2.442      6.706
REMARK  11 active torsions:
REMARK  status: ('A' for Active; 'I' for Inactive)
REMARK    1  A    between atoms: C2_2  and  C3_3
REMARK    2  A    between atoms: C3_3  and  C4_4
REMARK    3  A    between atoms: C6_6  and  C7_7
REMARK    4  A    between atoms: C7_7  and  O1_8
REMARK    5  A    between atoms: C7_7  and  C8_10
REMARK    6  A    between atoms: C8_10  and  O2_11
REMARK    7  A    between atoms: C8_10  and  C9_13
REMARK    8  A    between atoms: C9_13  and  C10_14
REMARK    9  A    between atoms: C11_15  and  C12_16
REMARK   10  A    between atoms: C12_16  and  C13_17
REMARK   11  A    between atoms: C16_20  and  O3_21
ROOT
HETATM    1  C7  UNL     1      26.077 -14.115  -2.489  1.00  0.00     0.151 C
ENDROOT
BRANCH   1   2
HETATM    2  C6  UNL     1      26.402 -15.517  -2.147  1.00  0.00     0.020 C
HETATM    3  C5  UNL     1      25.227 -16.220  -1.479  1.00  0.00     0.014 C
HETATM    4  C4  UNL     1      25.920 -17.457  -0.949  1.00  0.00     0.018 C
HETATM    5  C16 UNL     1      27.276 -17.032  -0.539  1.00  0.00     0.123 C
HETATM    6  C15 UNL     1      27.500 -15.688  -1.171  1.00  0.00     0.039 C
BRANCH   4   7
HETATM    7  C3  UNL     1      25.161 -18.076   0.183  1.00  0.00     0.033 C
BRANCH   7   8
HETATM    8  C2  UNL     1      23.686 -17.933  -0.058  1.00  0.00    -0.036 C
HETATM    9  C1  UNL     1      23.010 -18.853  -0.743  1.00  0.00     0.007 C
ENDBRANCH   7   8
ENDBRANCH   4   7
BRANCH   5  10
HETATM   10  O3  UNL     1      27.417 -16.863   0.839  1.00  0.00    -0.395 OA
ATOM     11  H3  UNL     1      28.197 -17.272   1.195  1.00  0.00     0.210 HD
ENDBRANCH   5  10
ENDBRANCH   1   2
BRANCH   1  12
HETATM   12  O1  UNL     1      27.043 -13.192  -2.133  1.00  0.00    -0.393 OA
ATOM     13  H1  UNL     1      26.717 -12.437  -1.658  1.00  0.00     0.210 HD
ENDBRANCH   1  12
BRANCH   1  14
HETATM   14  C8  UNL     1      25.706 -13.963  -3.932  1.00  0.00     0.150 C
BRANCH  14  15
HETATM   15  O2  UNL     1      24.351 -13.779  -4.169  1.00  0.00    -0.393 OA
ATOM     16  H2  UNL     1      23.968 -14.391  -4.785  1.00  0.00     0.210 HD
ENDBRANCH  14  15
BRANCH  14  17
HETATM   17  C9  UNL     1      26.272 -14.934  -4.888  1.00  0.00     0.061 C
BRANCH  17  18
HETATM   18  C10 UNL     1      27.598 -14.473  -5.434  1.00  0.00    -0.028 C
HETATM   19  C11 UNL     1      27.858 -13.218  -5.666  1.00  0.00    -0.031 C
BRANCH  19  20
HETATM   20  C12 UNL     1      29.106 -12.666  -6.195  1.00  0.00     0.026 C
BRANCH  20  21
HETATM   21  C13 UNL     1      29.142 -12.448  -7.662  1.00  0.00    -0.001 C
HETATM   22  C14 UNL     1      28.028 -11.594  -8.181  1.00  0.00     0.005 C
ENDBRANCH  20  21
ENDBRANCH  19  20
ENDBRANCH  17  18
ENDBRANCH  14  17
ENDBRANCH   1  14
TORSDOF 11
ENDMDL