MODEL 3
REMARK VINA RESULT: -5.526767795      3.329      5.028
REMARK  10 active torsions:
REMARK  status: ('A' for Active; 'I' for Inactive)
REMARK    1  A    between atoms: C2_2  and  C4_4
REMARK    2  A    between atoms: C4_4  and  C5_5
REMARK    3  A    between atoms: C5_5  and  C7_7
REMARK    4  A    between atoms: C7_7  and  C8_8
REMARK    5  A    between atoms: C8_8  and  N1_9
REMARK    6  A    between atoms: C8_8  and  C9_13
REMARK    7  A    between atoms: C9_13  and  N2_14
REMARK    8  A    between atoms: N2_14  and  C10_17
REMARK    9  A    between atoms: C10_17  and  C11_18
REMARK   10  A    between atoms: C11_18  and  O1_19
ROOT
HETATM    1  C8  UNL     1      28.528 -15.349  -0.378  1.00  0.00     0.209 C
ENDROOT
BRANCH   1   2
HETATM    2  C7  UNL     1      27.658 -15.516  -1.538  1.00  0.00     0.038 C
BRANCH   2   3
HETATM    3  C5  UNL     1      26.186 -15.403  -1.437  1.00  0.00    -0.016 C
HETATM    4  C6  UNL     1      25.770 -14.569  -2.668  1.00  0.00     0.010 C
BRANCH   3   5
HETATM    5  C4  UNL     1      25.501 -16.699  -1.475  1.00  0.00     0.008 C
BRANCH   5   6
HETATM    6  C2  UNL     1      25.264 -17.441  -0.212  1.00  0.00    -0.023 C
HETATM    7  C1  UNL     1      26.327 -18.310   0.326  1.00  0.00     0.009 C
HETATM    8  C3  UNL     1      23.982 -18.257  -0.240  1.00  0.00     0.009 C
ENDBRANCH   5   6
ENDBRANCH   3   5
ENDBRANCH   2   3
ENDBRANCH   1   2
BRANCH   1   9
HETATM    9  N1  UNL     1      29.408 -16.403  -0.010  1.00  0.00    -0.073 N
ATOM     10  H13 UNL     1      29.468 -17.064  -0.785  1.00  0.00     0.274 HD
ATOM     11  H12 UNL     1      30.360 -16.038   0.016  1.00  0.00     0.274 HD
ATOM     12  H11 UNL     1      29.233 -16.923   0.849  1.00  0.00     0.274 HD
ENDBRANCH   1   9
BRANCH   1  13
HETATM   13  C9  UNL     1      27.783 -14.920   0.890  1.00  0.00     0.266 C
BRANCH  13  14
HETATM   14  N2  UNL     1      28.727 -14.471   1.859  1.00  0.00    -0.062 N
ATOM     15  H22 UNL     1      29.060 -15.243   2.437  1.00  0.00     0.278 HD
ATOM     16  H21 UNL     1      29.610 -14.206   1.421  1.00  0.00     0.278 HD
BRANCH  14  17
HETATM   17  C10 UNL     1      28.195 -13.385   2.679  1.00  0.00     0.146 C
HETATM   18  C12 UNL     1      26.956 -12.883   1.977  1.00  0.00     0.041 C
HETATM   19  C13 UNL     1      27.326 -11.476   1.552  1.00  0.00     0.003 C
HETATM   20  C14 UNL     1      28.256 -11.035   2.690  1.00  0.00     0.003 C
HETATM   21  C15 UNL     1      29.154 -12.249   2.806  1.00  0.00     0.041 C
BRANCH  17  22
HETATM   22  C11 UNL     1      27.786 -13.863   4.044  1.00  0.00     0.203 C
BRANCH  22  23
HETATM   23  O1  UNL     1      28.543 -14.916   4.500  1.00  0.00    -0.398 OA
ATOM     24  H1  UNL     1      28.028 -15.688   4.705  1.00  0.00     0.209 HD
ENDBRANCH  22  23
ENDBRANCH  17  22
ENDBRANCH  14  17
ENDBRANCH  13  14
ENDBRANCH   1  13
TORSDOF 10
ENDMDL