MODEL 2
REMARK VINA RESULT: -5.796978300      1.900      3.279
REMARK  9 active torsions:
REMARK  status: ('A' for Active; 'I' for Inactive)
REMARK    1  A    between atoms: C2_2  and  C3_3
REMARK    2  A    between atoms: C3_3  and  N1_4
REMARK    3  A    between atoms: C3_3  and  C12_14
REMARK    4  A    between atoms: N1_4  and  C4_6
REMARK    5  A    between atoms: C4_6  and  C6_8
REMARK    6  A    between atoms: C6_8  and  C8_10
REMARK    7  A    between atoms: C8_10  and  C9_11
REMARK    8  A    between atoms: C12_14  and  O1_15
REMARK    9  A    between atoms: C12_14  and  C13_17
ROOT
HETATM    1  C3  UNL     1      27.025 -13.885  -0.238  1.00  0.00     0.107 C
ENDROOT
BRANCH   1   2
HETATM    2  C2  UNL     1      26.829 -12.967   0.948  1.00  0.00     0.023 C
HETATM    3  C1  UNL     1      27.629 -13.488   2.156  1.00  0.00     0.007 C
ENDBRANCH   1   2
BRANCH   1   4
HETATM    4  N1  UNL     1      27.572 -15.139   0.029  1.00  0.00    -0.410 N
ATOM      5  H1  UNL     1      28.115 -15.213   0.889  1.00  0.00     0.154 HD
BRANCH   4   6
HETATM    6  C4  UNL     1      27.474 -16.292  -0.718  1.00  0.00     0.076 C
HETATM    7  C5  UNL     1      28.620 -17.184  -0.891  1.00  0.00     0.032 C
BRANCH   6   8
HETATM    8  C6  UNL     1      26.250 -17.049  -0.144  1.00  0.00     0.004 C
HETATM    9  C7  UNL     1      26.805 -18.294   0.441  1.00  0.00     0.012 C
BRANCH   8  10
HETATM   10  C8  UNL     1      25.104 -17.121  -1.047  1.00  0.00     0.010 C
BRANCH  10  11
HETATM   11  C9  UNL     1      23.791 -17.509  -0.442  1.00  0.00    -0.022 C
HETATM   12  C10 UNL     1      22.839 -16.330  -0.752  1.00  0.00     0.009 C
HETATM   13  C11 UNL     1      23.135 -18.722  -1.056  1.00  0.00     0.009 C
ENDBRANCH  10  11
ENDBRANCH   8  10
ENDBRANCH   6   8
ENDBRANCH   4   6
ENDBRANCH   1   4
BRANCH   1  14
HETATM   14  C12 UNL     1      27.687 -13.097  -1.337  1.00  0.00     0.171 C
BRANCH  14  15
HETATM   15  O1  UNL     1      27.785 -11.736  -1.043  1.00  0.00    -0.391 OA
ATOM     16  H1  UNL     1      28.626 -11.502  -0.667  1.00  0.00     0.210 HD
ENDBRANCH  14  15
BRANCH  14  17
HETATM   17  C13 UNL     1      27.042 -13.199  -2.678  1.00  0.00     0.216 C
HETATM   18  C14 UNL     1      25.666 -13.774  -2.683  1.00  0.00     0.037 C
HETATM   19  C15 UNL     1      25.502 -14.158  -4.154  1.00  0.00     0.029 C
HETATM   20  C16 UNL     1      26.865 -14.650  -4.502  1.00  0.00     0.233 C
HETATM   21  N2  UNL     1      27.780 -14.097  -3.557  1.00  0.00    -0.068 N
ATOM     22  H22 UNL     1      28.578 -13.644  -4.001  1.00  0.00     0.277 HD
ATOM     23  H21 UNL     1      28.296 -14.811  -3.044  1.00  0.00     0.277 HD
ENDBRANCH  14  17
ENDBRANCH   1  14
TORSDOF 9
ENDMDL