MODEL 2
REMARK VINA RESULT: -5.880795953      4.990      6.914
REMARK  10 active torsions:
REMARK  status: ('A' for Active; 'I' for Inactive)
REMARK    1  A    between atoms: C2_2  and  C3_3
REMARK    2  A    between atoms: C2_2  and  C9_9
REMARK    3  A    between atoms: C3_3  and  C4_4
REMARK    4  A    between atoms: C9_9  and  C10_10
REMARK    5  A    between atoms: C10_10  and  N1_12
REMARK    6  A    between atoms: N1_12  and  C12_14
REMARK    7  A    between atoms: C12_14  and  C14_16
REMARK    8  A    between atoms: C14_16  and  O1_17
REMARK    9  A    between atoms: C14_16  and  C15_19
REMARK   10  A    between atoms: C15_19  and  N2_20
ROOT
HETATM    1  N1  UNL     1      27.913 -13.770  -3.817  1.00  0.00    -0.411 N
ATOM      2  H1  UNL     1      28.191 -12.833  -3.526  1.00  0.00     0.154 HD
ENDROOT
BRANCH   1   3
HETATM    3  C10 UNL     1      28.551 -14.886  -3.238  1.00  0.00     0.073 C
HETATM    4  C11 UNL     1      29.708 -15.451  -3.963  1.00  0.00     0.032 C
BRANCH   3   5
HETATM    5  C9  UNL     1      28.783 -14.563  -1.792  1.00  0.00     0.028 C
BRANCH   5   6
HETATM    6  C2  UNL     1      28.173 -15.485  -0.812  1.00  0.00    -0.016 C
HETATM    7  C1  UNL     1      27.462 -14.626   0.237  1.00  0.00     0.010 C
BRANCH   6   8
HETATM    8  C3  UNL     1      27.137 -16.383  -1.410  1.00  0.00     0.009 C
BRANCH   8   9
HETATM    9  C4  UNL     1      25.958 -16.627  -0.533  1.00  0.00    -0.014 C
HETATM   10  C5  UNL     1      24.684 -16.380  -1.311  1.00  0.00     0.005 C
HETATM   11  C6  UNL     1      23.984 -17.726  -1.314  1.00  0.00     0.000 C
HETATM   12  C7  UNL     1      24.343 -18.226   0.082  1.00  0.00     0.000 C
HETATM   13  C8  UNL     1      25.862 -17.978   0.063  1.00  0.00     0.005 C
ENDBRANCH   8   9
ENDBRANCH   6   8
ENDBRANCH   5   6
ENDBRANCH   3   5
ENDBRANCH   1   3
BRANCH   1  14
HETATM   14  C12 UNL     1      26.910 -13.914  -4.778  1.00  0.00     0.103 C
HETATM   15  C13 UNL     1      26.202 -15.247  -4.829  1.00  0.00     0.034 C
BRANCH  14  16
HETATM   16  C14 UNL     1      25.821 -12.881  -4.458  1.00  0.00     0.165 C
BRANCH  16  17
HETATM   17  O1  UNL     1      24.640 -13.517  -4.165  1.00  0.00    -0.392 OA
ATOM     18  H1  UNL     1      24.394 -13.349  -3.263  1.00  0.00     0.210 HD
ENDBRANCH  16  17
BRANCH  16  19
HETATM   19  C15 UNL     1      26.292 -11.924  -3.400  1.00  0.00     0.263 C
BRANCH  19  20
HETATM   20  N2  UNL     1      25.839 -10.597  -3.690  1.00  0.00    -0.077 N
ATOM     21  H23 UNL     1      24.821 -10.533  -3.680  1.00  0.00     0.274 HD
ATOM     22  H22 UNL     1      26.038  -9.952  -2.926  1.00  0.00     0.274 HD
ATOM     23  H21 UNL     1      26.232 -10.272  -4.574  1.00  0.00     0.274 HD
ENDBRANCH  19  20
ENDBRANCH  16  19
ENDBRANCH  14  16
ENDBRANCH   1  14
TORSDOF 10
ENDMDL