MODEL 2
REMARK VINA RESULT: -5.613737396      2.961      5.821
REMARK  10 active torsions:
REMARK  status: ('A' for Active; 'I' for Inactive)
REMARK    1  A    between atoms: C4_4  and  C5_5
REMARK    2  A    between atoms: C5_5  and  C6_6
REMARK    3  A    between atoms: C6_6  and  C7_7
REMARK    4  A    between atoms: C7_7  and  C8_8
REMARK    5  A    between atoms: C7_7  and  N1_11
REMARK    6  A    between atoms: C8_8  and  O1_9
REMARK    7  A    between atoms: N1_11  and  C9_14
REMARK    8  A    between atoms: C9_14  and  O2_15
REMARK    9  A    between atoms: C9_14  and  C10_17
REMARK   10  A    between atoms: C10_17  and  C11_18
ROOT
HETATM    1  N1  UNL     1      27.968 -15.371   0.871  1.00  0.00    -0.043 N
ATOM      2  H11 UNL     1      28.735 -15.142   1.504  1.00  0.00     0.280 HD
ATOM      3  H12 UNL     1      27.424 -15.983   1.478  1.00  0.00     0.280 HD
ENDROOT
BRANCH   1   4
HETATM    4  C7  UNL     1      28.450 -16.087  -0.268  1.00  0.00     0.212 C
BRANCH   4   5
HETATM    5  C6  UNL     1      27.939 -17.485  -0.392  1.00  0.00     0.036 C
BRANCH   5   6
HETATM    6  C5  UNL     1      26.619 -17.690   0.314  1.00  0.00     0.007 C
BRANCH   6   7
HETATM    7  C4  UNL     1      25.442 -17.760  -0.598  1.00  0.00    -0.010 A
HETATM    8  C2  UNL     1      24.062 -17.900  -0.068  1.00  0.00    -0.014 A
HETATM    9  C1  UNL     1      23.061 -18.729  -0.860  1.00  0.00     0.010 C
HETATM   10  C3  UNL     1      24.539 -16.602  -0.749  1.00  0.00     0.009 A
ENDBRANCH   6   7
ENDBRANCH   5   6
ENDBRANCH   4   5
BRANCH   4  11
HETATM   11  C8  UNL     1      29.966 -16.132  -0.312  1.00  0.00     0.197 C
BRANCH  11  12
HETATM   12  O1  UNL     1      30.551 -15.623   0.838  1.00  0.00    -0.399 OA
ATOM     13  H1  UNL     1      30.021 -15.765   1.614  1.00  0.00     0.209 HD
ENDBRANCH  11  12
ENDBRANCH   4  11
ENDBRANCH   1   4
BRANCH   1  14
HETATM   14  C9  UNL     1      27.216 -14.189   0.533  1.00  0.00     0.319 C
BRANCH  14  15
HETATM   15  O2  UNL     1      27.001 -13.366   1.640  1.00  0.00    -0.370 OA
ATOM     16  H2  UNL     1      26.963 -13.860   2.451  1.00  0.00     0.212 HD
ENDBRANCH  14  15
BRANCH  14  17
HETATM   17  C10 UNL     1      27.691 -13.468  -0.685  1.00  0.00     0.065 C
BRANCH  17  18
HETATM   18  C11 UNL     1      26.672 -13.265  -1.747  1.00  0.00    -0.010 C
HETATM   19  C12 UNL     1      26.553 -14.333  -2.767  1.00  0.00     0.005 C
HETATM   20  C13 UNL     1      25.279 -14.003  -3.566  1.00  0.00     0.000 C
HETATM   21  C14 UNL     1      25.639 -12.819  -4.441  1.00  0.00     0.000 C
HETATM   22  C15 UNL     1      26.874 -12.104  -3.974  1.00  0.00     0.000 C
HETATM   23  C16 UNL     1      26.995 -11.969  -2.489  1.00  0.00     0.005 C
ENDBRANCH  17  18
ENDBRANCH  14  17
ENDBRANCH   1  14
TORSDOF 10
ENDMDL