MODEL 2
REMARK VINA RESULT: -6.269941348      1.575      1.849
REMARK  10 active torsions:
REMARK  status: ('A' for Active; 'I' for Inactive)
REMARK    1  A    between atoms: C2_2  and  C5_6
REMARK    2  A    between atoms: C3_3  and  C4_4
REMARK    3  A    between atoms: C5_6  and  C6_7
REMARK    4  A    between atoms: C7_8  and  C8_9
REMARK    5  A    between atoms: C10_11  and  O2_12
REMARK    6  A    between atoms: C12_15  and  C13_16
REMARK    7  A    between atoms: C13_16  and  C14_17
REMARK    8  A    between atoms: C14_17  and  O3_18
REMARK    9  A    between atoms: C14_17  and  C15_20
REMARK   10  A    between atoms: C15_20  and  O4_21
ROOT
HETATM    1  C8  UNL     1      27.945 -14.462  -1.347  1.00  0.00     0.014 C
HETATM    2  C9  UNL     1      28.350 -15.099  -2.659  1.00  0.00     0.040 C
HETATM    3  C10 UNL     1      29.501 -14.178  -3.066  1.00  0.00     0.119 C
HETATM    4  C11 UNL     1      28.900 -12.821  -2.760  1.00  0.00     0.037 C
HETATM    5  C12 UNL     1      27.806 -13.014  -1.776  1.00  0.00    -0.002 C
ENDROOT
BRANCH   1   6
HETATM    6  C7  UNL     1      26.628 -14.966  -0.870  1.00  0.00    -0.025 C
HETATM    7  C6  UNL     1      26.039 -16.007  -1.414  1.00  0.00    -0.026 C
BRANCH   7   8
HETATM    8  C5  UNL     1      24.716 -16.456  -0.881  1.00  0.00     0.060 C
BRANCH   8   9
HETATM    9  C2  UNL     1      24.796 -17.794  -0.276  1.00  0.00    -0.077 C
HETATM   10  C1  UNL     1      26.118 -18.232   0.232  1.00  0.00     0.044 C
HETATM   11  C3  UNL     1      23.756 -18.572  -0.181  1.00  0.00     0.044 C
BRANCH  11  12
HETATM   12  C4  UNL     1      22.417 -18.263  -0.636  1.00  0.00     0.259 C
HETATM   13  O1  UNL     1      21.773 -19.124  -1.293  1.00  0.00    -0.302 OA
ENDBRANCH  11  12
ENDBRANCH   8   9
ENDBRANCH   7   8
ENDBRANCH   1   6
BRANCH   5  14
HETATM   14  C13 UNL     1      26.423 -12.834  -2.311  1.00  0.00     0.039 C
BRANCH  14  15
HETATM   15  C14 UNL     1      26.370 -12.439  -3.760  1.00  0.00     0.142 C
BRANCH  15  16
HETATM   16  O3  UNL     1      25.632 -11.295  -3.923  1.00  0.00    -0.393 OA
ATOM     17  H3  UNL     1      26.101 -10.667  -4.460  1.00  0.00     0.210 HD
ENDBRANCH  15  16
BRANCH  15  18
HETATM   18  C15 UNL     1      25.728 -13.617  -4.507  1.00  0.00     0.195 C
BRANCH  18  19
HETATM   19  O4  UNL     1      24.418 -13.794  -4.124  1.00  0.00    -0.398 OA
ATOM     20  H4  UNL     1      24.114 -14.670  -4.333  1.00  0.00     0.209 HD
ENDBRANCH  18  19
ENDBRANCH  15  18
ENDBRANCH  14  15
ENDBRANCH   5  14
BRANCH   3  21
HETATM   21  O2  UNL     1      30.586 -14.456  -2.238  1.00  0.00    -0.396 OA
ATOM     22  H2  UNL     1      31.338 -14.633  -2.791  1.00  0.00     0.210 HD
ENDBRANCH   3  21
TORSDOF 10
ENDMDL