MODEL 5
REMARK VINA RESULT: -7.068597332      2.928      5.857
REMARK  7 active torsions:
REMARK  status: ('A' for Active; 'I' for Inactive)
REMARK    1  A    between atoms: C4_4  and  C5_5
REMARK    2  A    between atoms: C5_5  and  O1_6
REMARK    3  A    between atoms: C6_8  and  O2_9
REMARK    4  A    between atoms: C10_14  and  C11_15
REMARK    5  A    between atoms: C11_15  and  C12_16
REMARK    6  A    between atoms: C12_16  and  C13_17
REMARK    7  A    between atoms: C17_22  and  O4_23
ROOT
HETATM    1  C1  UNL     1      30.919 -12.067   3.072  1.00  0.00     0.020 C
HETATM    2  C2  UNL     1      29.654 -12.187   2.743  1.00  0.00    -0.054 C
HETATM    3  C3  UNL     1      28.675 -12.445   3.789  1.00  0.00    -0.025 C
HETATM    4  C4  UNL     1      28.567 -11.798   4.885  1.00  0.00     0.009 C
HETATM    5  C6  UNL     1      27.701 -13.557   3.488  1.00  0.00     0.152 C
HETATM    6  C7  UNL     1      27.596 -13.805   2.018  1.00  0.00     0.051 C
HETATM    7  C8  UNL     1      27.724 -12.499   1.255  1.00  0.00    -0.010 C
HETATM    8  C9  UNL     1      26.796 -11.493   1.850  1.00  0.00     0.021 C
HETATM    9  C10 UNL     1      27.430 -12.663  -0.196  1.00  0.00    -0.069 C
HETATM   10  C18 UNL     1      28.122 -11.939  -1.091  1.00  0.00    -0.081 C
HETATM   11  C19 UNL     1      27.796 -12.134  -2.540  1.00  0.00     0.043 C
HETATM   12  C20 UNL     1      29.170 -10.960  -0.766  1.00  0.00     0.034 C
HETATM   13  C21 UNL     1      29.392 -10.775   0.722  1.00  0.00     0.015 C
HETATM   14  C22 UNL     1      29.185 -12.099   1.358  1.00  0.00     0.031 C
ENDROOT
BRANCH   9  15
HETATM   15  C11 UNL     1      26.383 -13.620  -0.690  1.00  0.00     0.040 C
BRANCH  15  16
HETATM   16  C12 UNL     1      26.964 -14.834  -1.354  1.00  0.00     0.048 C
BRANCH  16  17
HETATM   17  C13 UNL     1      26.321 -16.085  -0.944  1.00  0.00     0.003 A
HETATM   18  C14 UNL     1      24.965 -16.334  -0.979  1.00  0.00     0.044 A
HETATM   19  C15 UNL     1      24.802 -17.630  -0.509  1.00  0.00     0.052 A
HETATM   20  C16 UNL     1      23.515 -18.355  -0.360  1.00  0.00     0.077 C
HETATM   21  O3  UNL     1      25.984 -18.081  -0.227  1.00  0.00    -0.292 OA
HETATM   22  C17 UNL     1      26.925 -17.226  -0.458  1.00  0.00     0.189 A
BRANCH  22  23
HETATM   23  O4  UNL     1      28.298 -17.371  -0.273  1.00  0.00    -0.340 OA
ATOM     24  H4  UNL     1      28.724 -17.405   0.576  1.00  0.00     0.220 HD
ENDBRANCH  22  23
ENDBRANCH  16  17
ENDBRANCH  15  16
ENDBRANCH   9  15
BRANCH   5  25
HETATM   25  O2  UNL     1      28.213 -14.698   4.098  1.00  0.00    -0.391 OA
ATOM     26  H2  UNL     1      27.636 -14.891   4.827  1.00  0.00     0.210 HD
ENDBRANCH   5  25
BRANCH   4  27
HETATM   27  C5  UNL     1      29.383 -10.668   5.320  1.00  0.00     0.192 C
BRANCH  27  28
HETATM   28  O1  UNL     1      28.602  -9.662   5.938  1.00  0.00    -0.397 OA
ATOM     29  H1  UNL     1      29.142  -8.974   6.309  1.00  0.00     0.209 HD
ENDBRANCH  27  28
ENDBRANCH   4  27
TORSDOF 7
ENDMDL