MODEL 2
REMARK VINA RESULT: -6.866377039      2.183      3.582
REMARK  7 active torsions:
REMARK  status: ('A' for Active; 'I' for Inactive)
REMARK    1  A    between atoms: C2_2  and  O1_3
REMARK    2  A    between atoms: O1_3  and  C3_4
REMARK    3  A    between atoms: C4_5  and  O2_6
REMARK    4  A    between atoms: C6_9  and  C7_10
REMARK    5  A    between atoms: C7_10  and  C8_11
REMARK    6  A    between atoms: C19_22  and  O3_23
REMARK    7  A    between atoms: C21_26  and  O4_27
ROOT
HETATM    1  C8  UNL     1      29.562 -15.894  -3.586  1.00  0.00     0.016 C
HETATM    2  C9  UNL     1      30.831 -16.645  -3.609  1.00  0.00    -0.025 C
HETATM    3  C10 UNL     1      32.153 -16.232  -3.989  1.00  0.00    -0.029 C
HETATM    4  C11 UNL     1      32.468 -15.650  -5.379  1.00  0.00     0.038 C
HETATM    5  C12 UNL     1      31.080 -15.326  -5.835  1.00  0.00    -0.015 C
HETATM    6  C13 UNL     1      30.514 -16.539  -6.321  1.00  0.00     0.018 C
HETATM    7  C14 UNL     1      30.739 -14.354  -4.818  1.00  0.00     0.017 C
HETATM    8  C15 UNL     1      29.335 -14.704  -4.381  1.00  0.00    -0.002 C
HETATM    9  C16 UNL     1      28.636 -14.615  -5.681  1.00  0.00    -0.012 C
HETATM   10  C17 UNL     1      27.530 -13.519  -5.511  1.00  0.00     0.010 C
HETATM   11  C18 UNL     1      29.353 -14.160  -6.891  1.00  0.00     0.037 C
HETATM   12  C19 UNL     1      30.867 -14.410  -7.047  1.00  0.00     0.127 C
ENDROOT
BRANCH   1  13
HETATM   13  C7  UNL     1      29.167 -15.639  -2.140  1.00  0.00     0.047 C
BRANCH  13  14
HETATM   14  C6  UNL     1      27.825 -15.989  -1.719  1.00  0.00    -0.052 A
HETATM   15  C5  UNL     1      26.638 -15.423  -2.139  1.00  0.00     0.046 A
HETATM   16  C4  UNL     1      25.396 -15.820  -1.695  1.00  0.00     0.102 A
HETATM   17  C3  UNL     1      25.272 -16.838  -0.776  1.00  0.00     0.135 A
HETATM   18  C21 UNL     1      26.431 -17.432  -0.328  1.00  0.00     0.102 A
HETATM   19  C20 UNL     1      27.663 -17.027  -0.780  1.00  0.00     0.046 A
BRANCH  16  20
HETATM   20  O2  UNL     1      24.265 -15.175  -2.190  1.00  0.00    -0.358 OA
ATOM     21  H2  UNL     1      24.312 -14.668  -2.992  1.00  0.00     0.217 HD
ENDBRANCH  16  20
BRANCH  17  22
HETATM   22  O1  UNL     1      24.016 -17.251  -0.316  1.00  0.00    -0.346 OA
BRANCH  22  23
HETATM   23  C2  UNL     1      23.325 -18.327  -0.924  1.00  0.00     0.171 C
HETATM   24  C1  UNL     1      21.929 -18.474  -0.359  1.00  0.00     0.034 C
ENDBRANCH  22  23
ENDBRANCH  17  22
BRANCH  18  25
HETATM   25  O4  UNL     1      26.295 -18.459   0.599  1.00  0.00    -0.358 OA
ATOM     26  H4  UNL     1      26.793 -18.382   1.403  1.00  0.00     0.217 HD
ENDBRANCH  18  25
ENDBRANCH  13  14
ENDBRANCH   1  13
BRANCH  12  27
HETATM   27  O3  UNL     1      31.589 -13.241  -6.924  1.00  0.00    -0.395 OA
ATOM     28  H3  UNL     1      31.637 -12.778  -7.752  1.00  0.00     0.210 HD
ENDBRANCH  12  27
TORSDOF 7
ENDMDL