MODEL 4
REMARK VINA RESULT: -6.288558961      1.845      3.960
REMARK  6 active torsions:
REMARK  status: ('A' for Active; 'I' for Inactive)
REMARK    1  A    between atoms: N1_2  and  C2_4
REMARK    2  A    between atoms: C16_18  and  O1_19
REMARK    3  A    between atoms: C16_18  and  C17_21
REMARK    4  A    between atoms: C18_22  and  C19_23
REMARK    5  A    between atoms: C19_23  and  N2_24
REMARK    6  A    between atoms: N2_24  and  N3_26
ROOT
HETATM    1  C2  UNL     1      26.211 -14.544  -1.676  1.00  0.00     0.123 C
HETATM    2  C3  UNL     1      27.195 -13.719  -2.442  1.00  0.00     0.029 C
HETATM    3  C4  UNL     1      27.495 -14.168  -3.828  1.00  0.00     0.002 C
HETATM    4  C5  UNL     1      27.826 -12.924  -4.668  1.00  0.00     0.000 C
HETATM    5  C6  UNL     1      29.265 -12.551  -4.599  1.00  0.00     0.000 C
HETATM    6  C7  UNL     1      29.607 -11.587  -3.491  1.00  0.00     0.000 C
HETATM    7  C8  UNL     1      30.870 -12.113  -2.824  1.00  0.00     0.000 C
HETATM    8  C9  UNL     1      31.238 -11.329  -1.591  1.00  0.00     0.000 C
HETATM    9  C10 UNL     1      31.620 -12.284  -0.468  1.00  0.00     0.000 C
HETATM   10  C11 UNL     1      30.869 -12.032   0.795  1.00  0.00     0.000 C
HETATM   11  C12 UNL     1      29.417 -12.379   0.745  1.00  0.00     0.000 C
HETATM   12  C13 UNL     1      29.134 -13.819   1.074  1.00  0.00     0.000 C
HETATM   13  C14 UNL     1      27.638 -14.055   0.827  1.00  0.00     0.004 C
HETATM   14  C15 UNL     1      27.347 -15.444   0.416  1.00  0.00     0.053 C
HETATM   15  C16 UNL     1      26.806 -15.698  -0.929  1.00  0.00     0.141 C
ENDROOT
BRANCH  15  16
HETATM   16  O1  UNL     1      27.756 -16.299  -1.782  1.00  0.00    -0.375 OA
ATOM     17  H1  UNL     1      28.566 -15.813  -1.686  1.00  0.00     0.211 HD
ENDBRANCH  15  16
BRANCH  15  18
HETATM   18  C17 UNL     1      25.724 -16.710  -0.801  1.00  0.00    -0.064 C
HETATM   19  C18 UNL     1      24.860 -17.547  -0.707  1.00  0.00    -0.082 C
BRANCH  19  20
HETATM   20  C19 UNL     1      23.826 -18.582  -0.579  1.00  0.00     0.239 C
BRANCH  20  21
HETATM   21  N2  UNL     1      22.611 -17.923  -0.185  1.00  0.00    -0.266 N
ATOM     22  H2  UNL     1      22.633 -16.939   0.083  1.00  0.00     0.187 HD
BRANCH  21  23
HETATM   23  N3  UNL     1      21.420 -18.607  -0.167  1.00  0.00    -0.043 N
HETATM   24  O2  UNL     1      20.918 -18.972  -1.246  1.00  0.00    -0.517 OA
HETATM   25  O3  UNL     1      20.731 -18.922   0.998  1.00  0.00    -0.517 OA
ENDBRANCH  21  23
ENDBRANCH  20  21
ENDBRANCH  19  20
ENDBRANCH  15  18
BRANCH   1  26
HETATM   26  N1  UNL     1      25.212 -15.025  -2.563  1.00  0.00    -0.417 N
HETATM   27  C1  UNL     1      24.259 -14.112  -3.054  1.00  0.00     0.140 C
ATOM     28  H1  UNL     1      25.185 -16.006  -2.837  1.00  0.00     0.153 HD
ENDBRANCH   1  26
TORSDOF 6
ENDMDL