MODEL 2
REMARK VINA RESULT: -7.055298282      3.061      7.000
REMARK  6 active torsions:
REMARK  status: ('A' for Active; 'I' for Inactive)
REMARK    1  A    between atoms: C2_2  and  C3_3
REMARK    2  A    between atoms: C5_5  and  C6_6
REMARK    3  A    between atoms: C6_6  and  C9_9
REMARK    4  A    between atoms: C10_10  and  O1_11
REMARK    5  A    between atoms: C17_21  and  O2_22
REMARK    6  A    between atoms: N2_27  and  O3_29
ROOT
HETATM    1  C9  UNL     1      28.149 -15.273  -1.904  1.00  0.00     0.021 A
HETATM    2  C10 UNL     1      27.637 -14.342  -2.836  1.00  0.00     0.084 A
HETATM    3  C11 UNL     1      28.014 -14.339  -4.154  1.00  0.00    -0.001 A
HETATM    4  C12 UNL     1      27.471 -13.352  -5.137  1.00  0.00     0.054 C
HETATM    5  C13 UNL     1      28.927 -15.286  -4.568  1.00  0.00     0.055 A
HETATM    6  N1  UNL     1      29.479 -15.524  -5.790  1.00  0.00    -0.353 N
ATOM      7  H1  UNL     1      29.284 -14.998  -6.641  1.00  0.00     0.166 HD
HETATM    8  C14 UNL     1      30.326 -16.569  -5.690  1.00  0.00     0.064 A
HETATM    9  C15 UNL     1      30.347 -17.038  -4.401  1.00  0.00    -0.014 A
HETATM   10  C16 UNL     1      29.456 -16.216  -3.701  1.00  0.00     0.034 A
HETATM   11  C17 UNL     1      29.050 -16.196  -2.355  1.00  0.00     0.088 A
HETATM   12  C18 UNL     1      31.266 -18.193  -4.238  1.00  0.00     0.048 C
HETATM   13  C19 UNL     1      31.688 -18.551  -5.620  1.00  0.00     0.066 C
HETATM   14  C20 UNL     1      31.253 -17.412  -6.452  1.00  0.00     0.059 C
HETATM   15  N2  UNL     1      31.618 -17.182  -7.649  1.00  0.00    -0.269 N
ATOM     16  H2  UNL     1      31.256 -16.362  -8.137  1.00  0.00     0.194 HD
ENDROOT
BRANCH   1  17
HETATM   17  C6  UNL     1      27.680 -15.195  -0.503  1.00  0.00     0.003 C
HETATM   18  C7  UNL     1      26.747 -14.066  -0.272  1.00  0.00     0.025 C
HETATM   19  C8  UNL     1      28.958 -14.978   0.321  1.00  0.00     0.025 C
BRANCH  17  20
HETATM   20  C5  UNL     1      27.046 -16.453  -0.087  1.00  0.00    -0.006 C
HETATM   21  C3  UNL     1      25.913 -16.974  -0.449  1.00  0.00    -0.066 C
HETATM   22  C4  UNL     1      25.486 -18.316   0.149  1.00  0.00     0.048 C
BRANCH  21  23
HETATM   23  C2  UNL     1      24.954 -16.427  -1.389  1.00  0.00    -0.004 C
HETATM   24  C1  UNL     1      23.710 -16.103  -1.002  1.00  0.00     0.012 C
ENDBRANCH  21  23
ENDBRANCH  17  20
ENDBRANCH   1  17
BRANCH   2  25
HETATM   25  O1  UNL     1      26.723 -13.415  -2.359  1.00  0.00    -0.359 OA
ATOM     26  H1  UNL     1      25.840 -13.466  -2.704  1.00  0.00     0.217 HD
ENDBRANCH   2  25
BRANCH  11  27
HETATM   27  O2  UNL     1      29.628 -17.156  -1.563  1.00  0.00    -0.359 OA
ATOM     28  H2  UNL     1      30.246 -17.804  -1.879  1.00  0.00     0.217 HD
ENDBRANCH  11  27
BRANCH  15  29
HETATM   29  O3  UNL     1      32.490 -18.021  -8.288  1.00  0.00    -0.285 OA
HETATM   30  C21 UNL     1      33.690 -17.627  -8.884  1.00  0.00     0.237 C
ENDBRANCH  15  29
TORSDOF 6
ENDMDL