MODEL 5
REMARK VINA RESULT: -6.545963224      4.882      7.835
REMARK  7 active torsions:
REMARK  status: ('A' for Active; 'I' for Inactive)
REMARK    1  A    between atoms: C4_5  and  C5_6
REMARK    2  A    between atoms: C5_6  and  C20_23
REMARK    3  A    between atoms: C6_7  and  C7_8
REMARK    4  A    between atoms: C7_8  and  C8_9
REMARK    5  A    between atoms: C16_17  and  O2_18
REMARK    6  A    between atoms: C20_23  and  O3_24
REMARK    7  A    between atoms: C21_26  and  O4_27
ROOT
HETATM    1  C8  UNL     1      27.176 -14.328   0.164  1.00  0.00     0.061 C
HETATM    2  C9  UNL     1      27.278 -15.709  -0.449  1.00  0.00     0.018 C
HETATM    3  C10 UNL     1      27.270 -15.488  -1.928  1.00  0.00     0.011 C
HETATM    4  C11 UNL     1      26.211 -14.379  -2.026  1.00  0.00    -0.030 C
HETATM    5  C12 UNL     1      24.892 -15.059  -1.647  1.00  0.00     0.016 C
HETATM    6  C13 UNL     1      26.601 -13.502  -0.919  1.00  0.00     0.010 C
HETATM    7  C14 UNL     1      27.661 -12.490  -1.332  1.00  0.00     0.009 C
HETATM    8  C15 UNL     1      26.969 -11.639  -2.377  1.00  0.00     0.033 C
HETATM    9  C16 UNL     1      26.574 -12.418  -3.589  1.00  0.00     0.126 C
HETATM   10  C17 UNL     1      26.168 -13.821  -3.373  1.00  0.00    -0.014 C
HETATM   11  C18 UNL     1      27.015 -14.708  -4.301  1.00  0.00     0.018 C
HETATM   12  C19 UNL     1      24.741 -13.990  -3.927  1.00  0.00     0.018 C
ENDROOT
BRANCH   1  13
HETATM   13  C7  UNL     1      27.546 -14.089   1.371  1.00  0.00    -0.150 C
BRANCH  13  14
HETATM   14  C6  UNL     1      27.935 -13.835   2.643  1.00  0.00     0.063 C
HETATM   15  C5  UNL     1      27.879 -12.633   3.256  1.00  0.00     0.009 C
BRANCH  15  16
HETATM   16  C4  UNL     1      28.344 -12.538   4.649  1.00  0.00     0.117 A
HETATM   17  O1  UNL     1      28.704 -11.411   5.254  1.00  0.00    -0.319 OA
HETATM   18  C3  UNL     1      29.064 -11.652   6.485  1.00  0.00     0.152 A
HETATM   19  C2  UNL     1      28.948 -12.983   6.727  1.00  0.00    -0.004 A
HETATM   20  C1  UNL     1      29.254 -13.698   7.997  1.00  0.00     0.053 C
HETATM   21  C21 UNL     1      28.480 -13.551   5.533  1.00  0.00     0.107 A
BRANCH  21  22
HETATM   22  O4  UNL     1      28.243 -14.892   5.409  1.00  0.00    -0.357 OA
ATOM     23  H4  UNL     1      28.895 -15.544   5.634  1.00  0.00     0.217 HD
ENDBRANCH  21  22
ENDBRANCH  15  16
BRANCH  15  24
HETATM   24  C20 UNL     1      27.400 -11.433   2.587  1.00  0.00     0.206 C
BRANCH  24  25
HETATM   25  O3  UNL     1      28.389 -10.430   2.550  1.00  0.00    -0.396 OA
ATOM     26  H3  UNL     1      28.044  -9.611   2.216  1.00  0.00     0.209 HD
ENDBRANCH  24  25
ENDBRANCH  15  24
ENDBRANCH  13  14
ENDBRANCH   1  13
BRANCH   9  27
HETATM   27  O2  UNL     1      25.561 -11.673  -4.234  1.00  0.00    -0.395 OA
ATOM     28  H2  UNL     1      25.975 -10.888  -4.573  1.00  0.00     0.210 HD
ENDBRANCH   9  27
TORSDOF 7
ENDMDL