MODEL 3
REMARK VINA RESULT: -6.562075971      1.495      1.872
REMARK  9 active torsions:
REMARK  status: ('A' for Active; 'I' for Inactive)
REMARK    1  A    between atoms: C2_2  and  N1_5
REMARK    2  A    between atoms: N1_5  and  C5_7
REMARK    3  A    between atoms: C5_7  and  C6_8
REMARK    4  A    between atoms: C5_7  and  N2_26
REMARK    5  A    between atoms: C7_9  and  C8_10
REMARK    6  A    between atoms: C8_10  and  C9_11
REMARK    7  A    between atoms: C14_16  and  C15_17
REMARK    8  A    between atoms: C20_22  and  O1_23
REMARK    9  A    between atoms: N2_26  and  O3_27
ROOT
HETATM    1  C9  UNL     1      27.825 -11.826   1.206  1.00  0.00     0.085 A
HETATM    2  C10 UNL     1      26.744 -11.071   1.945  1.00  0.00     0.051 C
HETATM    3  C11 UNL     1      28.209 -11.223  -0.070  1.00  0.00     0.014 A
HETATM    4  C12 UNL     1      27.867 -12.004  -1.069  1.00  0.00     0.035 A
HETATM    5  C13 UNL     1      27.219 -13.211  -0.543  1.00  0.00     0.066 A
HETATM    6  C14 UNL     1      26.746 -14.223  -1.295  1.00  0.00     0.017 C
HETATM    7  O2  UNL     1      27.211 -13.072   0.818  1.00  0.00    -0.337 OA
ENDROOT
BRANCH   1   8
HETATM    8  C8  UNL     1      28.980 -12.079   2.107  1.00  0.00     0.070 C
BRANCH   8   9
HETATM    9  C7  UNL     1      28.618 -12.696   3.388  1.00  0.00    -0.018 C
HETATM   10  C6  UNL     1      28.954 -12.395   4.599  1.00  0.00     0.062 C
BRANCH  10  11
HETATM   11  C5  UNL     1      28.459 -13.171   5.747  1.00  0.00     0.208 C
BRANCH  11  12
HETATM   12  N1  UNL     1      28.244 -12.454   6.970  1.00  0.00    -0.355 N
ATOM     13  H1  UNL     1      27.304 -12.106   7.155  1.00  0.00     0.163 HD
BRANCH  12  14
HETATM   14  C2  UNL     1      29.256 -12.189   7.950  1.00  0.00     0.021 C
HETATM   15  C1  UNL     1      29.708 -10.757   7.897  1.00  0.00     0.037 C
HETATM   16  C3  UNL     1      30.474 -13.086   7.750  1.00  0.00     0.037 C
HETATM   17  C4  UNL     1      28.688 -12.537   9.320  1.00  0.00     0.037 C
ENDBRANCH  12  14
ENDBRANCH  11  12
BRANCH  11  18
HETATM   18  N2  UNL     1      28.251 -14.346   5.648  1.00  0.00    -0.265 NA
BRANCH  18  19
HETATM   19  O3  UNL     1      27.869 -15.515   5.320  1.00  0.00    -0.217 OA
ATOM     20  H3  UNL     1      27.702 -16.446   5.243  1.00  0.00     0.261 HD
ENDBRANCH  18  19
ENDBRANCH  11  18
ENDBRANCH  10  11
ENDBRANCH   8   9
ENDBRANCH   1   8
BRANCH   6  21
HETATM   21  C15 UNL     1      26.097 -15.414  -0.701  1.00  0.00     0.040 C
HETATM   22  C16 UNL     1      26.902 -16.672  -0.844  1.00  0.00     0.011 C
HETATM   23  C17 UNL     1      26.229 -17.707   0.070  1.00  0.00     0.001 C
HETATM   24  C18 UNL     1      24.867 -18.015  -0.499  1.00  0.00     0.002 C
HETATM   25  C19 UNL     1      24.028 -16.783  -0.680  1.00  0.00     0.032 C
HETATM   26  C20 UNL     1      24.703 -15.606  -1.268  1.00  0.00     0.126 C
BRANCH  26  27
HETATM   27  O1  UNL     1      24.668 -15.515  -2.647  1.00  0.00    -0.395 OA
ATOM     28  H1  UNL     1      24.730 -14.620  -2.958  1.00  0.00     0.210 HD
ENDBRANCH  26  27
ENDBRANCH   6  21
TORSDOF 9
ENDMDL