MODEL 4
REMARK VINA RESULT: -7.660887074      1.466      2.949
REMARK  7 active torsions:
REMARK  status: ('A' for Active; 'I' for Inactive)
REMARK    1  A    between atoms: C4_4  and  C5_5
REMARK    2  A    between atoms: C7_7  and  O1_9
REMARK    3  A    between atoms: C9_11  and  C11_13
REMARK    4  A    between atoms: C17_20  and  C18_21
REMARK    5  A    between atoms: C19_22  and  C20_23
REMARK    6  A    between atoms: C20_23  and  O3_24
REMARK    7  A    between atoms: N1_26  and  O4_28
ROOT
HETATM    1  C1  UNL     1      25.978 -18.535   0.346  1.00  0.00     0.049 C
HETATM    2  C2  UNL     1      25.625 -17.348  -0.514  1.00  0.00    -0.051 A
HETATM    3  C3  UNL     1      26.595 -16.610  -1.143  1.00  0.00     0.018 A
HETATM    4  C4  UNL     1      26.335 -15.516  -1.941  1.00  0.00    -0.023 A
HETATM    5  C14 UNL     1      25.007 -15.152  -2.110  1.00  0.00    -0.052 A
HETATM    6  C15 UNL     1      24.726 -13.991  -2.957  1.00  0.00     0.049 C
HETATM    7  C16 UNL     1      24.024 -15.882  -1.487  1.00  0.00     0.019 A
HETATM    8  C17 UNL     1      24.309 -16.979  -0.687  1.00  0.00    -0.030 A
ENDROOT
BRANCH   4   9
HETATM    9  C5  UNL     1      27.440 -14.815  -2.561  1.00  0.00     0.159 C
HETATM   10  C6  UNL     1      27.493 -15.150  -4.035  1.00  0.00     0.077 C
HETATM   11  C7  UNL     1      28.902 -14.583  -4.339  1.00  0.00     0.088 C
HETATM   12  C8  UNL     1      29.355 -15.291  -5.592  1.00  0.00     0.049 C
HETATM   13  C9  UNL     1      29.620 -14.992  -3.111  1.00  0.00     0.091 C
HETATM   14  C10 UNL     1      30.133 -16.433  -3.242  1.00  0.00     0.049 C
HETATM   15  O2  UNL     1      28.702 -15.032  -2.067  1.00  0.00    -0.367 OA
BRANCH  11  16
HETATM   16  O1  UNL     1      28.785 -13.228  -4.481  1.00  0.00    -0.387 OA
ATOM     17  H1  UNL     1      29.276 -12.818  -3.778  1.00  0.00     0.210 HD
ENDBRANCH  11  16
BRANCH  13  18
HETATM   18  C11 UNL     1      30.789 -14.103  -2.842  1.00  0.00     0.015 C
HETATM   19  C12 UNL     1      32.113 -14.849  -3.056  1.00  0.00     0.012 C
HETATM   20  C13 UNL     1      30.867 -13.582  -1.424  1.00  0.00     0.012 C
ENDBRANCH  13  18
ENDBRANCH   4   9
BRANCH   8  21
HETATM   21  C18 UNL     1      23.266 -17.750  -0.026  1.00  0.00     0.016 C
HETATM   22  C19 UNL     1      22.129 -18.112  -0.568  1.00  0.00     0.058 C
BRANCH  22  23
HETATM   23  C20 UNL     1      21.129 -18.885   0.154  1.00  0.00     0.159 C
HETATM   24  N1  UNL     1      20.251 -19.613  -0.401  1.00  0.00    -0.248 N
ATOM     25  H1  UNL     1      19.600 -20.109   0.207  1.00  0.00     0.196 HD
BRANCH  23  26
HETATM   26  O3  UNL     1      21.132 -18.824   1.546  1.00  0.00    -0.345 OA
ATOM     27  H3  UNL     1      21.032 -19.635   2.030  1.00  0.00     0.219 HD
ENDBRANCH  23  26
BRANCH  24  28
HETATM   28  O4  UNL     1      20.107 -19.784  -1.754  1.00  0.00    -0.288 OA
ATOM     29  H4  UNL     1      19.589 -19.229  -2.324  1.00  0.00     0.244 HD
ENDBRANCH  24  28
ENDBRANCH  22  23
ENDBRANCH   8  21
TORSDOF 7
ENDMDL