MODEL 2
REMARK VINA RESULT: -7.127563311      1.107      1.313
REMARK  6 active torsions:
REMARK  status: ('A' for Active; 'I' for Inactive)
REMARK    1  A    between atoms: C2_2  and  O1_3
REMARK    2  A    between atoms: C2_2  and  C14_18
REMARK    3  A    between atoms: O1_3  and  C3_4
REMARK    4  A    between atoms: C11_13  and  O3_14
REMARK    5  A    between atoms: C14_18  and  O4_19
REMARK    6  A    between atoms: C15_21  and  C16_22
ROOT
HETATM    1  C3  UNL     1      27.687 -12.973  -5.089  1.00  0.00     0.265 C
HETATM    2  O2  UNL     1      27.907 -14.116  -5.836  1.00  0.00    -0.356 OA
HETATM    3  C4  UNL     1      28.662 -15.091  -5.310  1.00  0.00     0.125 C
HETATM    4  C5  UNL     1      29.812 -15.379  -6.286  1.00  0.00     0.037 C
HETATM    5  C6  UNL     1      30.685 -14.572  -5.422  1.00  0.00    -0.009 C
HETATM    6  C7  UNL     1      29.673 -14.815  -4.293  1.00  0.00     0.037 C
HETATM    7  C8  UNL     1      30.743 -13.113  -5.648  1.00  0.00     0.010 C
HETATM    8  C9  UNL     1      29.701 -12.511  -6.482  1.00  0.00    -0.003 C
HETATM    9  C10 UNL     1      30.240 -11.270  -7.161  1.00  0.00     0.037 C
HETATM   10  C11 UNL     1      28.983 -10.476  -7.539  1.00  0.00     0.119 C
HETATM   11  C12 UNL     1      27.820 -11.218  -6.871  1.00  0.00     0.041 C
HETATM   12  C13 UNL     1      28.525 -11.895  -5.717  1.00  0.00     0.047 C
ENDROOT
BRANCH   1  13
HETATM   13  O1  UNL     1      26.336 -12.661  -5.219  1.00  0.00    -0.349 OA
BRANCH  13  14
HETATM   14  C2  UNL     1      25.620 -12.828  -4.056  1.00  0.00     0.176 C
HETATM   15  C1  UNL     1      26.073 -11.863  -2.956  1.00  0.00     0.046 C
BRANCH  14  16
HETATM   16  C14 UNL     1      25.474 -14.189  -3.558  1.00  0.00     0.068 C
HETATM   17  C15 UNL     1      25.516 -14.585  -2.299  1.00  0.00     0.012 C
BRANCH  16  18
HETATM   18  O4  UNL     1      25.263 -15.185  -4.539  1.00  0.00    -0.363 OA
ATOM     19  H4  UNL     1      24.665 -15.883  -4.297  1.00  0.00     0.217 HD
ENDBRANCH  16  18
BRANCH  17  20
HETATM   20  C16 UNL     1      25.352 -16.011  -1.925  1.00  0.00     0.010 C
HETATM   21  C17 UNL     1      24.286 -16.220  -0.889  1.00  0.00     0.008 C
HETATM   22  C18 UNL     1      24.142 -17.731  -0.704  1.00  0.00     0.001 C
HETATM   23  C19 UNL     1      25.371 -18.199   0.049  1.00  0.00     0.000 C
HETATM   24  C20 UNL     1      26.497 -17.200  -0.041  1.00  0.00     0.001 C
HETATM   25  C21 UNL     1      26.632 -16.619  -1.432  1.00  0.00     0.008 C
ENDBRANCH  17  20
ENDBRANCH  14  16
ENDBRANCH  13  14
ENDBRANCH   1  13
BRANCH  10  26
HETATM   26  O3  UNL     1      28.867 -10.454  -8.908  1.00  0.00    -0.396 OA
ATOM     27  H3  UNL     1      28.392 -11.228  -9.189  1.00  0.00     0.210 HD
ENDBRANCH  10  26
TORSDOF 6
ENDMDL