MODEL 3
REMARK VINA RESULT: -6.693763315      3.240      5.461
REMARK  6 active torsions:
REMARK  status: ('A' for Active; 'I' for Inactive)
REMARK    1  A    between atoms: C2_2  and  C4_4
REMARK    2  A    between atoms: C4_4  and  C6_6
REMARK    3  A    between atoms: C6_6  and  O1_7
REMARK    4  A    between atoms: C6_6  and  O2_9
REMARK    5  A    between atoms: O2_9  and  C7_10
REMARK    6  A    between atoms: C11_14  and  O3_15
ROOT
HETATM    1  C7  UNL     1      27.367 -14.756  -1.330  1.00  0.00     0.170 C
HETATM    2  C8  UNL     1      27.488 -15.638  -2.526  1.00  0.00     0.043 C
HETATM    3  C9  UNL     1      28.932 -16.003  -2.598  1.00  0.00     0.001 C
HETATM    4  C10 UNL     1      29.688 -15.224  -3.651  1.00  0.00     0.042 C
HETATM    5  C11 UNL     1      30.278 -16.064  -4.704  1.00  0.00     0.147 C
HETATM    6  C12 UNL     1      31.722 -15.798  -4.986  1.00  0.00    -0.059 C
HETATM    7  C13 UNL     1      31.931 -14.940  -6.221  1.00  0.00     0.046 C
HETATM    8  C14 UNL     1      32.743 -16.216  -4.290  1.00  0.00    -0.021 C
HETATM    9  C15 UNL     1      32.775 -17.047  -3.060  1.00  0.00     0.032 C
HETATM   10  C16 UNL     1      32.978 -16.120  -1.898  1.00  0.00     0.037 C
HETATM   11  C17 UNL     1      32.611 -16.631  -0.575  1.00  0.00    -0.087 C
HETATM   12  C18 UNL     1      33.781 -16.711   0.406  1.00  0.00     0.043 C
HETATM   13  C19 UNL     1      31.459 -17.022  -0.119  1.00  0.00    -0.024 C
HETATM   14  C20 UNL     1      30.143 -17.088  -0.762  1.00  0.00     0.038 C
HETATM   15  C21 UNL     1      29.559 -15.800  -1.234  1.00  0.00     0.041 C
HETATM   16  C22 UNL     1      28.374 -15.365  -0.412  1.00  0.00     0.014 C
HETATM   17  N1  UNL     1      28.215 -15.478   0.847  1.00  0.00    -0.403 N
ATOM     18  H11 UNL     1      28.903 -15.894   1.475  1.00  0.00     0.155 HD
ATOM     19  H12 UNL     1      27.412 -15.184   1.403  1.00  0.00     0.155 HD
ENDROOT
BRANCH   1  20
HETATM   20  O2  UNL     1      26.102 -14.862  -0.805  1.00  0.00    -0.346 OA
BRANCH  20  21
HETATM   21  C6  UNL     1      25.294 -15.561  -1.682  1.00  0.00     0.292 C
BRANCH  21  22
HETATM   22  C4  UNL     1      24.299 -16.400  -0.945  1.00  0.00    -0.008 C
HETATM   23  C5  UNL     1      23.105 -15.863  -0.736  1.00  0.00     0.024 C
BRANCH  22  24
HETATM   24  C2  UNL     1      24.594 -17.734  -0.470  1.00  0.00    -0.061 C
HETATM   25  C1  UNL     1      23.665 -18.650  -0.415  1.00  0.00     0.019 C
HETATM   26  C3  UNL     1      25.981 -18.047  -0.044  1.00  0.00     0.048 C
ENDBRANCH  22  24
ENDBRANCH  21  22
BRANCH  21  27
HETATM   27  O1  UNL     1      24.619 -14.685  -2.533  1.00  0.00    -0.367 OA
ATOM     28  H1  UNL     1      23.698 -14.918  -2.560  1.00  0.00     0.213 HD
ENDBRANCH  21  27
ENDBRANCH  20  21
ENDBRANCH   1  20
BRANCH   5  29
HETATM   29  O3  UNL     1      30.079 -17.426  -4.442  1.00  0.00    -0.391 OA
ATOM     30  H3  UNL     1      30.160 -17.615  -3.515  1.00  0.00     0.210 HD
ENDBRANCH   5  29
TORSDOF 6
ENDMDL