MODEL 5
REMARK VINA RESULT: -6.861863164      1.879      2.613
REMARK  6 active torsions:
REMARK  status: ('A' for Active; 'I' for Inactive)
REMARK    1  A    between atoms: C7_7  and  O1_8
REMARK    2  A    between atoms: C12_14  and  C13_15
REMARK    3  A    between atoms: C14_16  and  C15_17
REMARK    4  A    between atoms: C16_18  and  C17_19
REMARK    5  A    between atoms: C18_20  and  C19_21
REMARK    6  A    between atoms: C21_26  and  O5_27
ROOT
HETATM    1  C1  UNL     1      29.346 -17.007  -1.339  1.00  0.00     0.015 C
HETATM    2  C2  UNL     1      28.275 -16.463  -0.771  1.00  0.00    -0.081 C
HETATM    3  C3  UNL     1      27.135 -17.309  -0.301  1.00  0.00     0.034 C
HETATM    4  C4  UNL     1      25.809 -16.740  -0.746  1.00  0.00     0.010 C
HETATM    5  C5  UNL     1      26.122 -15.628  -1.738  1.00  0.00    -0.003 C
HETATM    6  C6  UNL     1      24.904 -15.294  -2.534  1.00  0.00     0.037 C
HETATM    7  C7  UNL     1      24.782 -13.894  -2.978  1.00  0.00     0.118 C
HETATM    8  C8  UNL     1      26.039 -13.119  -3.097  1.00  0.00     0.032 C
HETATM    9  C9  UNL     1      27.125 -13.456  -2.164  1.00  0.00     0.013 C
HETATM   10  C10 UNL     1      26.813 -14.467  -1.118  1.00  0.00    -0.030 C
HETATM   11  C11 UNL     1      26.073 -13.870   0.051  1.00  0.00     0.016 C
HETATM   12  C12 UNL     1      28.145 -14.981  -0.567  1.00  0.00     0.044 C
ENDROOT
BRANCH  12  13
HETATM   13  C13 UNL     1      28.294 -14.738   0.862  1.00  0.00    -0.017 C
HETATM   14  C14 UNL     1      29.151 -13.822   1.273  1.00  0.00    -0.003 C
BRANCH  14  15
HETATM   15  C15 UNL     1      29.357 -13.521   2.684  1.00  0.00     0.001 C
HETATM   16  C16 UNL     1      28.387 -13.038   3.402  1.00  0.00     0.017 C
BRANCH  16  17
HETATM   17  C17 UNL     1      28.467 -12.696   4.821  1.00  0.00     0.041 A
HETATM   18  C18 UNL     1      28.474 -11.427   5.356  1.00  0.00     0.078 A
HETATM   19  C20 UNL     1      28.561 -11.590   6.729  1.00  0.00     0.164 A
HETATM   20  O4  UNL     1      28.604 -12.859   7.004  1.00  0.00    -0.299 OA
HETATM   21  C21 UNL     1      28.550 -13.569   5.886  1.00  0.00     0.194 A
BRANCH  18  22
HETATM   22  C19 UNL     1      28.407 -10.133   4.704  1.00  0.00     0.212 C
HETATM   23  O2  UNL     1      29.453  -9.384   4.717  1.00  0.00    -0.644 OA
HETATM   24  O3  UNL     1      27.270  -9.693   4.079  1.00  0.00    -0.644 OA
ENDBRANCH  18  22
BRANCH  21  25
HETATM   25  O5  UNL     1      28.576 -14.956   5.859  1.00  0.00    -0.340 OA
ATOM     26  H5  UNL     1      28.551 -15.559   6.593  1.00  0.00     0.220 HD
ENDBRANCH  21  25
ENDBRANCH  16  17
ENDBRANCH  14  15
ENDBRANCH  12  13
BRANCH   7  27
HETATM   27  O1  UNL     1      24.177 -13.899  -4.259  1.00  0.00    -0.396 OA
ATOM     28  H1  UNL     1      23.299 -13.551  -4.165  1.00  0.00     0.210 HD
ENDBRANCH   7  27
TORSDOF 6
ENDMDL