MODEL 2
REMARK VINA RESULT: -9.345142984      5.059      6.856
REMARK  7 active torsions:
REMARK  status: ('A' for Active; 'I' for Inactive)
REMARK    1  A    between atoms: C2_2  and  C3_3
REMARK    2  A    between atoms: C3_3  and  N1_4
REMARK    3  A    between atoms: N1_4  and  C4_6
REMARK    4  A    between atoms: N3_10  and  S1_12
REMARK    5  A    between atoms: S1_12  and  C6_15
REMARK    6  A    between atoms: C9_19  and  S2_20
REMARK    7  A    between atoms: C11_25  and  C12_26
ROOT
HETATM    1  S1  UNL     1      37.719 -23.549  15.689  1.00  0.00     0.279 S
HETATM    2  O1  UNL     1      38.064 -24.396  16.871  1.00  0.00    -0.200 OA
HETATM    3  O2  UNL     1      38.964 -22.625  15.539  1.00  0.00    -0.200 OA
ENDROOT
BRANCH   1   4
HETATM    4  N3  UNL     1      36.419 -22.505  15.921  1.00  0.00    -0.112 N
HETATM    5  C5  UNL     1      36.053 -22.103  17.102  1.00  0.00     0.693 A
HETATM    6  N2  UNL     1      36.652 -22.468  18.222  1.00  0.00    -0.175 N
HETATM    7  N4  UNL     1      34.983 -21.251  17.196  1.00  0.00    -0.200 N
HETATM    8  C4  UNL     1      36.285 -22.056  19.491  1.00  0.00     0.135 A
ATOM      9  H2  UNL     1      37.447 -23.102  18.145  1.00  0.00     0.186 HD
HETATM   10  C15 UNL     1      35.210 -21.203  19.577  1.00  0.00     0.071 A
HETATM   11  C14 UNL     1      34.588 -20.827  18.393  1.00  0.00     0.129 A
HETATM   12 BR1  UNL     1      34.524 -20.508  21.194  1.00  0.00    -0.046 Br
ATOM     13  H4  UNL     1      34.493 -20.946  16.356  1.00  0.00     0.183 HD
ATOM     14  H3  UNL     1      35.901 -22.176  15.106  1.00  0.00     0.197 HD
BRANCH   8  15
HETATM   15  N1  UNL     1      36.926 -22.468  20.464  1.00  0.00    -0.375 N
ATOM     16  H1  UNL     1      36.307 -23.073  21.006  1.00  0.00     0.161 HD
BRANCH  15  17
HETATM   17  C3  UNL     1      38.134 -22.437  21.104  1.00  0.00     0.121 C
BRANCH  17  18
HETATM   18  C2  UNL     1      38.204 -21.196  22.002  1.00  0.00     0.015 C
HETATM   19  C1  UNL     1      38.954 -21.558  23.293  1.00  0.00     0.006 C
ENDBRANCH  17  18
ENDBRANCH  15  17
ENDBRANCH   8  15
ENDBRANCH   1   4
BRANCH   1  20
HETATM   20  C6  UNL     1      37.642 -24.493  14.257  1.00  0.00     0.115 A
HETATM   21  C7  UNL     1      38.113 -25.802  14.303  1.00  0.00     0.059 A
HETATM   22 CL1  UNL     1      38.778 -26.415  15.805  1.00  0.00    -0.083 Cl
HETATM   23  C8  UNL     1      38.083 -26.648  13.204  1.00  0.00     0.051 A
HETATM   24  C9  UNL     1      37.573 -26.185  12.032  1.00  0.00     0.093 A
HETATM   25  C10 UNL     1      37.109 -24.910  11.958  1.00  0.00     0.042 A
HETATM   26  C11 UNL     1      37.144 -24.048  13.086  1.00  0.00     0.036 A
BRANCH  24  27
HETATM   27  S2  UNL     1      37.484 -27.175  10.576  1.00  0.00     0.333 S
HETATM   28  O3  UNL     1      36.886 -28.497  10.961  1.00  0.00    -0.189 OA
HETATM   29  O4  UNL     1      38.884 -27.349  10.067  1.00  0.00    -0.189 OA
HETATM   30  F1  UNL     1      36.534 -26.415   9.426  1.00  0.00    -0.100 F
ENDBRANCH  24  27
BRANCH  26  31
HETATM   31  C12 UNL     1      36.710 -22.688  12.903  1.00  0.00     0.157 C
HETATM   32  C13 UNL     1      37.662 -21.694  12.349  1.00  0.00     0.097 C
HETATM   33  O5  UNL     1      35.581 -22.294  13.182  1.00  0.00    -0.293 OA
ENDBRANCH  26  31
ENDBRANCH   1  20
TORSDOF 7
ENDMDL