MODEL 3
REMARK VINA RESULT: -9.739095044      1.215      1.490
REMARK  9 active torsions:
REMARK  status: ('A' for Active; 'I' for Inactive)
REMARK    1  A    between atoms: C3_3  and  C4_4
REMARK    2  A    between atoms: C6_7  and  C7_8
REMARK    3  A    between atoms: C9_11  and  C10_12
REMARK    4  A    between atoms: C10_12  and  N1_13
REMARK       I    between atoms: N1_13  and  C12_15
REMARK    5  A    between atoms: C12_15  and  C13_17
REMARK    6  A    between atoms: C17_27  and  C18_28
REMARK    7  A    between atoms: C18_28  and  C19_29
REMARK    8  A    between atoms: C19_29  and  O4_31
REMARK    9  A    between atoms: N4_37  and  O6_38
ROOT
HETATM    1  C1  UNL     1      38.959 -27.290  10.693  1.00  0.00     0.112 C
HETATM    2  C2  UNL     1      39.283 -26.643  11.975  1.00  0.00    -0.104 C
HETATM    3  C3  UNL     1      39.528 -26.116  13.031  1.00  0.00    -0.044 C
ENDROOT
BRANCH   3   4
HETATM    4  C4  UNL     1      39.800 -25.483  14.287  1.00  0.00     0.154 A
HETATM    5  C5  UNL     1      39.023 -24.409  14.678  1.00  0.00     0.161 A
HETATM    6  F1  UNL     1      38.058 -24.010  13.860  1.00  0.00    -0.202 F
HETATM    7  C6  UNL     1      39.265 -23.788  15.874  1.00  0.00    -0.001 A
HETATM    8  C22 UNL     1      40.301 -24.302  16.621  1.00  0.00     0.031 A
HETATM    9  C23 UNL     1      41.066 -25.382  16.204  1.00  0.00     0.125 A
HETATM   10  N4  UNL     1      40.807 -25.971  15.027  1.00  0.00    -0.225 N
BRANCH   7  11
HETATM   11  C7  UNL     1      38.504 -22.625  16.407  1.00  0.00     0.127 C
HETATM   12  C8  UNL     1      37.672 -21.918  15.460  1.00  0.00     0.162 C
HETATM   13  O1  UNL     1      37.973 -20.963  14.796  1.00  0.00    -0.295 OA
HETATM   14  C9  UNL     1      36.269 -22.467  15.317  1.00  0.00     0.168 C
HETATM   15  N3  UNL     1      35.677 -22.128  16.592  1.00  0.00    -0.376 N
HETATM   16  C17 UNL     1      36.391 -22.516  17.727  1.00  0.00     0.168 A
ATOM     17  H3  UNL     1      34.786 -21.634  16.658  1.00  0.00     0.157 HD
HETATM   18  O5  UNL     1      36.792 -23.857  17.762  1.00  0.00    -0.347 OA
HETATM   19  C21 UNL     1      37.818 -22.918  17.678  1.00  0.00     0.196 A
BRANCH  14  20
HETATM   20  C10 UNL     1      35.527 -21.768  14.232  1.00  0.00     0.158 C
BRANCH  20  21
HETATM   21  N1  UNL     1      35.555 -22.476  12.946  1.00  0.00    -0.349 N
HETATM   22  C11 UNL     1      36.200 -21.841  11.861  1.00  0.00     0.153 C
HETATM   23  C12 UNL     1      34.953 -23.736  12.922  1.00  0.00     0.270 C
HETATM   24  O2  UNL     1      34.433 -24.199  14.018  1.00  0.00    -0.266 OA
BRANCH  23  25
HETATM   25  C13 UNL     1      34.826 -24.634  11.789  1.00  0.00     0.103 A
HETATM   26  C14 UNL     1      35.793 -25.009  10.874  1.00  0.00     0.062 A
HETATM   27  C15 UNL     1      35.184 -25.878   9.959  1.00  0.00     0.074 A
HETATM   28 CL1  UNL     1      36.007 -26.621   8.609  1.00  0.00    -0.081 Cl
HETATM   29  C16 UNL     1      33.892 -25.995  10.346  1.00  0.00     0.126 A
HETATM   30 CL2  UNL     1      32.707 -26.997   9.499  1.00  0.00    -0.063 Cl
HETATM   31  N2  UNL     1      33.666 -25.261  11.433  1.00  0.00    -0.341 N
ATOM     32  H2  UNL     1      32.774 -25.180  11.921  1.00  0.00     0.167 HD
ENDBRANCH  23  25
ENDBRANCH  20  21
ENDBRANCH  14  20
BRANCH  16  33
HETATM   33  C18 UNL     1      35.999 -21.881  19.050  1.00  0.00     0.174 C
BRANCH  33  34
HETATM   34  C19 UNL     1      34.844 -20.971  18.952  1.00  0.00     0.263 C
HETATM   35  O3  UNL     1      34.753 -20.006  18.163  1.00  0.00    -0.265 OA
BRANCH  34  36
HETATM   36  O4  UNL     1      33.734 -21.160  19.788  1.00  0.00    -0.326 OA
HETATM   37  C20 UNL     1      33.857 -21.728  21.073  1.00  0.00     0.213 C
ENDBRANCH  34  36
ENDBRANCH  33  34
ENDBRANCH  16  33
ENDBRANCH   7  11
BRANCH  10  38
HETATM   38  O6  UNL     1      41.569 -27.040  14.624  1.00  0.00    -0.282 OA
ATOM     39  H6  UNL     1      41.300 -27.941  14.761  1.00  0.00     0.245 HD
ENDBRANCH  10  38
ENDBRANCH   3   4
TORSDOF 9
ENDMDL