MODEL 4
REMARK VINA RESULT: -9.089614512      2.126      2.684
REMARK  6 active torsions:
REMARK  status: ('A' for Active; 'I' for Inactive)
REMARK    1  A    between atoms: C2_2  and  N1_3
REMARK       I    between atoms: N1_3  and  C3_5
REMARK    2  A    between atoms: C3_5  and  C4_7
REMARK    3  A    between atoms: C4_7  and  N2_8
REMARK    4  A    between atoms: C7_12  and  N3_13
REMARK       I    between atoms: N3_13  and  C8_15
REMARK    5  A    between atoms: C8_15  and  C9_17
REMARK    6  A    between atoms: C9_17  and  C10_18
ROOT
HETATM    1  N3  UNL     1      37.992 -25.202  12.849  1.00  0.00    -0.353 N
ATOM      2  H3  UNL     1      38.000 -24.414  12.201  1.00  0.00     0.163 HD
HETATM    3  C8  UNL     1      38.536 -25.017  14.145  1.00  0.00     0.222 C
HETATM    4  O3  UNL     1      38.547 -25.961  14.973  1.00  0.00    -0.273 OA
ENDROOT
BRANCH   3   5
HETATM    5  C9  UNL     1      39.112 -23.716  14.575  1.00  0.00     0.148 C
BRANCH   5   6
HETATM    6  C10 UNL     1      38.737 -23.375  15.960  1.00  0.00     0.033 A
HETATM    7  C11 UNL     1      37.503 -22.814  16.228  1.00  0.00    -0.036 A
HETATM    8  C12 UNL     1      36.513 -22.538  15.173  1.00  0.00     0.050 C
HETATM    9  C13 UNL     1      37.206 -22.514  17.533  1.00  0.00     0.006 A
HETATM   10  C14 UNL     1      35.982 -21.954  17.827  1.00  0.00     0.035 A
HETATM   11  C18 UNL     1      38.106 -22.756  18.577  1.00  0.00     0.092 A
HETATM   12  C15 UNL     1      35.629 -21.629  19.143  1.00  0.00     0.033 A
HETATM   13 BR1  UNL     1      33.937 -20.866  19.478  1.00  0.00    -0.049 Br
HETATM   14  C16 UNL     1      36.547 -21.884  20.145  1.00  0.00     0.054 A
HETATM   15 CL1  UNL     1      36.136 -21.485  21.819  1.00  0.00    -0.083 Cl
HETATM   16  C17 UNL     1      37.781 -22.443  19.888  1.00  0.00     0.063 A
HETATM   17  O4  UNL     1      39.254 -23.288  18.251  1.00  0.00    -0.274 OA
HETATM   18  C19 UNL     1      39.581 -23.590  17.030  1.00  0.00     0.295 A
HETATM   19  O5  UNL     1      40.710 -24.102  16.780  1.00  0.00    -0.259 OA
ENDBRANCH   5   6
ENDBRANCH   3   5
BRANCH   1  20
HETATM   20  C7  UNL     1      37.427 -26.454  12.403  1.00  0.00     0.131 C
HETATM   21  C6  UNL     1      37.361 -26.526  10.892  1.00  0.00     0.131 C
HETATM   22  C5  UNL     1      36.165 -27.352  10.644  1.00  0.00     0.223 C
HETATM   23  N2  UNL     1      35.457 -27.513  11.889  1.00  0.00    -0.324 N
HETATM   24  O2  UNL     1      35.756 -27.864   9.584  1.00  0.00    -0.273 OA
HETATM   25  C20 UNL     1      35.974 -26.510  12.793  1.00  0.00     0.207 C
HETATM   26 CL2  UNL     1      35.250 -24.940  12.356  1.00  0.00    -0.100 Cl
BRANCH  23  27
HETATM   27  C4  UNL     1      34.435 -28.468  12.210  1.00  0.00     0.230 C
BRANCH  27  28
HETATM   28  C3  UNL     1      33.138 -28.135  11.590  1.00  0.00     0.235 C
HETATM   29  N1  UNL     1      32.036 -29.012  11.570  1.00  0.00    -0.360 N
ATOM     30  H1  UNL     1      32.140 -29.927  12.007  1.00  0.00     0.162 HD
HETATM   31  O1  UNL     1      32.978 -27.004  11.040  1.00  0.00    -0.272 OA
BRANCH  29  32
HETATM   32  C2  UNL     1      30.765 -28.685  10.964  1.00  0.00     0.118 C
HETATM   33  C1  UNL     1      29.634 -29.211  11.786  1.00  0.00     0.026 C
ENDBRANCH  29  32
ENDBRANCH  27  28
ENDBRANCH  23  27
ENDBRANCH   1  20
TORSDOF 6
ENDMDL