MODEL 1
REMARK VINA RESULT: -8.194675485      0.000      0.000
REMARK  9 active torsions:
REMARK  status: ('A' for Active; 'I' for Inactive)
REMARK    1  A    between atoms: O1_2  and  C2_3
REMARK    2  A    between atoms: C4_8  and  N2_9
REMARK    3  A    between atoms: N2_9  and  C5_10
REMARK    4  A    between atoms: C5_10  and  O2_11
REMARK    5  A    between atoms: C5_10  and  C6_13
REMARK    6  A    between atoms: C6_13  and  N3_14
REMARK    7  A    between atoms: C9_18  and  C10_19
REMARK    8  A    between atoms: C11_22  and  C12_23
REMARK    9  A    between atoms: C13_26  and  O4_27
ROOT
HETATM    1  C2  UNL     1      36.209 -21.481  20.442  1.00  0.00     0.141 A
HETATM    2  C3  UNL     1      37.413 -22.056  20.744  1.00  0.00     0.142 A
HETATM    3 CL1  UNL     1      37.968 -21.901  22.424  1.00  0.00    -0.061 Cl
HETATM    4  N1  UNL     1      38.147 -22.703  19.854  1.00  0.00    -0.318 N
ATOM      5  H1  UNL     1      39.035 -23.103  20.159  1.00  0.00     0.169 HD
HETATM    6  C4  UNL     1      37.774 -22.864  18.527  1.00  0.00     0.201 A
HETATM    7  C11 UNL     1      36.532 -22.281  18.193  1.00  0.00     0.123 A
HETATM    8  C13 UNL     1      35.775 -21.608  19.121  1.00  0.00     0.125 A
ENDROOT
BRANCH   6   9
HETATM    9  N2  UNL     1      38.468 -23.426  17.739  1.00  0.00    -0.364 NA
BRANCH   9  10
HETATM   10  C5  UNL     1      39.221 -24.055  16.872  1.00  0.00     0.221 C
BRANCH  10  11
HETATM   11  O2  UNL     1      40.530 -23.878  16.979  1.00  0.00    -0.338 OA
ATOM     12  H2  UNL     1      40.985 -24.417  17.616  1.00  0.00     0.220 HD
ENDBRANCH  10  11
BRANCH  10  13
HETATM   13  C6  UNL     1      38.834 -24.977  15.726  1.00  0.00     0.373 C
BRANCH  13  14
HETATM   14  N3  UNL     1      39.402 -24.556  14.483  1.00  0.00     0.113 N
HETATM   15  C7  UNL     1      38.713 -23.336  14.089  1.00  0.00     0.347 C
HETATM   16  S1  UNL     1      37.172 -24.064  13.372  1.00  0.00    -0.137 SA
HETATM   17  C8  UNL     1      37.756 -25.811  13.344  1.00  0.00     0.113 C
HETATM   18  C9  UNL     1      39.257 -25.482  13.425  1.00  0.00     0.258 C
BRANCH  18  19
HETATM   19  C10 UNL     1      40.119 -26.684  13.549  1.00  0.00     0.163 C
HETATM   20 BR1  UNL     1      41.678 -26.255  14.656  1.00  0.00    -0.077 Br
HETATM   21 BR2  UNL     1      39.108 -28.072  14.444  1.00  0.00    -0.077 Br
ENDBRANCH  18  19
ENDBRANCH  13  14
ENDBRANCH  10  13
ENDBRANCH   9  10
ENDBRANCH   6   9
BRANCH   7  22
HETATM   22  C12 UNL     1      35.949 -22.473  16.886  1.00  0.00     0.272 C
HETATM   23  N4  UNL     1      35.877 -21.416  15.945  1.00  0.00    -0.057 NA
HETATM   24  O3  UNL     1      35.495 -23.606  16.551  1.00  0.00    -0.271 OA
ENDBRANCH   7  22
BRANCH   8  25
HETATM   25  O4  UNL     1      34.560 -21.023  18.835  1.00  0.00    -0.352 OA
HETATM   26  C14 UNL     1      34.492 -19.605  18.768  1.00  0.00     0.210 C
ENDBRANCH   8  25
BRANCH   1  27
HETATM   27  O1  UNL     1      35.434 -20.804  21.366  1.00  0.00    -0.350 OA
HETATM   28  C1  UNL     1      34.393 -21.479  22.047  1.00  0.00     0.210 C
ENDBRANCH   1  27
TORSDOF 9
ENDMDL