MODEL 1
REMARK VINA RESULT: -9.794249763      0.000      0.000
REMARK  6 active torsions:
REMARK  status: ('A' for Active; 'I' for Inactive)
REMARK    1  A    between atoms: O1_2  and  C2_3
REMARK    2  A    between atoms: C2_3  and  C3_5
REMARK    3  A    between atoms: C3_5  and  O3_7
REMARK    4  A    between atoms: C3_5  and  C10_17
REMARK    5  A    between atoms: O3_7  and  C5_8
REMARK       I    between atoms: C10_17  and  N2_19
REMARK    6  A    between atoms: N2_19  and  C11_21
ROOT
HETATM    1  C10 UNL     1      35.684 -25.108  12.552  1.00  0.00     0.263 C
HETATM    2  O4  UNL     1      34.916 -25.760  13.269  1.00  0.00    -0.270 OA
HETATM    3  N2  UNL     1      37.006 -24.914  13.102  1.00  0.00    -0.345 N
ATOM      4  H2  UNL     1      37.692 -24.388  12.561  1.00  0.00     0.163 HD
ENDROOT
BRANCH   1   5
HETATM    5  C3  UNL     1      35.285 -24.582  11.255  1.00  0.00     0.232 C
HETATM    6  C4  UNL     1      33.704 -24.753  11.174  1.00  0.00     0.069 C
BRANCH   5   7
HETATM    7  C2  UNL     1      35.810 -25.372  10.088  1.00  0.00     0.303 C
HETATM    8  O2  UNL     1      36.648 -26.265  10.295  1.00  0.00    -0.261 OA
BRANCH   7   9
HETATM    9  O1  UNL     1      35.365 -25.102   8.835  1.00  0.00    -0.324 OA
HETATM   10  C1  UNL     1      35.714 -25.849   7.681  1.00  0.00     0.213 C
ENDBRANCH   7   9
ENDBRANCH   5   7
BRANCH   5  11
HETATM   11  O3  UNL     1      35.540 -23.262  10.975  1.00  0.00    -0.302 OA
BRANCH  11  12
HETATM   12  C5  UNL     1      36.184 -22.243  11.588  1.00  0.00     0.183 A
HETATM   13  N1  UNL     1      37.507 -22.049  11.256  1.00  0.00    -0.343 N
HETATM   14  C6  UNL     1      38.240 -21.087  11.797  1.00  0.00     0.114 A
ATOM     15  H1  UNL     1      37.938 -22.668  10.570  1.00  0.00     0.167 HD
HETATM   16  C7  UNL     1      37.635 -20.267  12.718  1.00  0.00     0.052 A
HETATM   17 CL1  UNL     1      38.575 -18.987  13.448  1.00  0.00    -0.083 Cl
HETATM   18  C8  UNL     1      36.335 -20.413  13.085  1.00  0.00     0.072 A
HETATM   19  C9  UNL     1      35.578 -21.425  12.513  1.00  0.00     0.168 A
HETATM   20  F1  UNL     1      34.279 -21.607  12.945  1.00  0.00    -0.202 F
ENDBRANCH  11  12
ENDBRANCH   5  11
ENDBRANCH   1   5
BRANCH   3  21
HETATM   21  C11 UNL     1      37.389 -25.439  14.395  1.00  0.00     0.174 C
HETATM   22  C12 UNL     1      37.607 -24.289  15.316  1.00  0.00     0.151 C
HETATM   23  O5  UNL     1      36.752 -23.993  16.123  1.00  0.00    -0.296 OA
HETATM   24  C13 UNL     1      38.855 -23.482  15.279  1.00  0.00     0.086 C
HETATM   25  C14 UNL     1      40.049 -24.388  15.145  1.00  0.00     0.009 C
HETATM   26  C15 UNL     1      40.364 -25.156  16.384  1.00  0.00     0.031 C
HETATM   27  C19 UNL     1      39.819 -25.318  13.988  1.00  0.00     0.104 C
HETATM   28  C16 UNL     1      40.252 -26.673  16.187  1.00  0.00     0.086 C
HETATM   29  C17 UNL     1      38.844 -26.915  15.678  1.00  0.00     0.049 C
HETATM   30  N3  UNL     1      41.213 -26.984  15.125  1.00  0.00    -0.356 N
HETATM   31  C18 UNL     1      38.652 -26.244  14.357  1.00  0.00     0.059 C
HETATM   32 BR1  UNL     1      38.602 -27.616  12.994  1.00  0.00    -0.082 Br
HETATM   33  C20 UNL     1      41.018 -26.228  13.934  1.00  0.00     0.224 C
ATOM     34  H3  UNL     1      41.954 -27.677  15.230  1.00  0.00     0.162 HD
HETATM   35  O6  UNL     1      41.752 -26.290  12.919  1.00  0.00    -0.273 OA
ENDBRANCH   3  21
TORSDOF 6
ENDMDL