MODEL 1
REMARK VINA RESULT: -9.520800032      0.000      0.000
REMARK  7 active torsions:
REMARK  status: ('A' for Active; 'I' for Inactive)
REMARK    1  A    between atoms: C2_3  and  C3_4
REMARK    2  A    between atoms: C5_6  and  C6_7
REMARK    3  A    between atoms: C7_10  and  N3_11
REMARK    4  A    between atoms: N3_11  and  C8_13
REMARK    5  A    between atoms: C8_13  and  C9_14
REMARK    6  A    between atoms: C9_14  and  C10_15
REMARK    7  A    between atoms: C10_15  and  N4_16
ROOT
HETATM    1  N1  UNL     1      35.986 -27.935  10.134  1.00  0.00    -0.197 NA
HETATM    2  C1  UNL     1      35.930 -26.827   9.849  1.00  0.00     0.063 C
HETATM    3  C2  UNL     1      35.871 -25.403   9.498  1.00  0.00     0.164 C
ENDROOT
BRANCH   3   4
HETATM    4  C3  UNL     1      35.415 -24.680  10.713  1.00  0.00    -0.022 A
HETATM    5  C4  UNL     1      36.240 -23.900  11.484  1.00  0.00     0.025 A
HETATM    6  C5  UNL     1      35.813 -23.214  12.631  1.00  0.00     0.015 A
HETATM    7  C15 UNL     1      34.515 -23.350  12.974  1.00  0.00     0.048 A
HETATM    8 CL1  UNL     1      33.838 -22.686  14.470  1.00  0.00    -0.083 Cl
HETATM    9  C16 UNL     1      33.653 -24.146  12.190  1.00  0.00     0.049 A
HETATM   10  C17 UNL     1      34.081 -24.813  11.065  1.00  0.00     0.043 A
HETATM   11 CL2  UNL     1      32.994 -25.796  10.108  1.00  0.00    -0.084 Cl
BRANCH   6  12
HETATM   12  C6  UNL     1      36.790 -22.496  13.421  1.00  0.00     0.084 A
HETATM   13  N2  UNL     1      37.627 -23.300  14.157  1.00  0.00    -0.189 N
HETATM   14  C7  UNL     1      38.631 -22.802  14.890  1.00  0.00     0.681 A
ATOM     15  H2  UNL     1      37.478 -24.309  14.145  1.00  0.00     0.184 HD
HETATM   16  N5  UNL     1      38.834 -21.487  14.913  1.00  0.00    -0.155 N
HETATM   17  C13 UNL     1      38.065 -20.640  14.222  1.00  0.00     0.279 A
ATOM     18  H5  UNL     1      39.600 -21.114  15.474  1.00  0.00     0.187 HD
HETATM   19  O4  UNL     1      38.218 -19.409  14.215  1.00  0.00    -0.266 OA
HETATM   20  C14 UNL     1      37.015 -21.165  13.454  1.00  0.00     0.107 A
HETATM   21 BR1  UNL     1      36.016 -19.984  12.325  1.00  0.00    -0.043 Br
BRANCH  14  22
HETATM   22  N3  UNL     1      39.404 -23.597  15.577  1.00  0.00    -0.226 N
ATOM     23  H3  UNL     1      40.405 -23.396  15.601  1.00  0.00     0.177 HD
BRANCH  22  24
HETATM   24  C8  UNL     1      38.925 -24.729  16.294  1.00  0.00     0.139 C
BRANCH  24  25
HETATM   25  C9  UNL     1      39.978 -25.850  16.281  1.00  0.00     0.038 C
BRANCH  25  26
HETATM   26  C10 UNL     1      39.538 -26.833  15.244  1.00  0.00     0.141 C
BRANCH  26  27
HETATM   27  N4  UNL     1      38.868 -26.304  14.117  1.00  0.00    -0.086 NA
HETATM   28  O1  UNL     1      37.931 -26.992  13.542  1.00  0.00    -0.288 OA
HETATM   29  C11 UNL     1      38.314 -27.736  12.477  1.00  0.00     0.211 C
HETATM   30  C12 UNL     1      39.186 -26.867  11.557  1.00  0.00     0.188 C
HETATM   31  S1  UNL     1      39.987 -25.925  12.873  1.00  0.00     0.235 S
HETATM   32  O2  UNL     1      41.354 -26.446  13.133  1.00  0.00    -0.209 OA
HETATM   33  O3  UNL     1      39.964 -24.463  12.536  1.00  0.00    -0.209 OA
ENDBRANCH  26  27
ENDBRANCH  25  26
ENDBRANCH  24  25
ENDBRANCH  22  24
ENDBRANCH  14  22
ENDBRANCH   6  12
ENDBRANCH   3   4
TORSDOF 7
ENDMDL