MODEL 4
REMARK VINA RESULT: -8.983380730      1.306      1.750
REMARK  7 active torsions:
REMARK  status: ('A' for Active; 'I' for Inactive)
REMARK    1  A    between atoms: C5_9  and  S1_10
REMARK    2  A    between atoms: S1_10  and  N3_13
REMARK    3  A    between atoms: N3_13  and  C6_15
REMARK    4  A    between atoms: C6_15  and  C7_16
REMARK    5  A    between atoms: C6_15  and  C9_20
REMARK    6  A    between atoms: C7_16  and  S2_17
REMARK       I    between atoms: C9_20  and  N4_22
REMARK    7  A    between atoms: N4_22  and  C10_24
ROOT
HETATM    1  C6  UNL     1      38.534 -23.328  14.221  1.00  0.00     0.197 C
ENDROOT
BRANCH   1   2
HETATM    2  N3  UNL     1      39.711 -23.993  13.779  1.00  0.00    -0.301 N
ATOM      3  H3  UNL     1      40.630 -23.595  13.968  1.00  0.00     0.173 HD
BRANCH   2   4
HETATM    4  S1  UNL     1      39.570 -25.443  12.939  1.00  0.00     0.264 S
HETATM    5  O1  UNL     1      38.259 -25.469  12.143  1.00  0.00    -0.200 OA
HETATM    6  O2  UNL     1      40.638 -25.544  11.853  1.00  0.00    -0.200 OA
BRANCH   4   7
HETATM    7  C5  UNL     1      39.664 -26.831  13.944  1.00  0.00     0.142 A
HETATM    8  C2  UNL     1      40.502 -27.121  14.989  1.00  0.00     0.048 A
HETATM    9  C1  UNL     1      41.601 -26.259  15.489  1.00  0.00     0.071 C
HETATM   10  N1  UNL     1      40.163 -28.352  15.481  1.00  0.00    -0.301 N
HETATM   11  N2  UNL     1      39.156 -28.822  14.779  1.00  0.00    -0.284 N
ATOM     12  H1  UNL     1      40.616 -28.826  16.262  1.00  0.00     0.187 HD
HETATM   13  C3  UNL     1      38.527 -30.118  15.022  1.00  0.00     0.179 C
HETATM   14  C4  UNL     1      38.816 -27.932  13.831  1.00  0.00     0.145 A
HETATM   15 CL1  UNL     1      37.534 -28.109  12.652  1.00  0.00    -0.061 Cl
ENDBRANCH   4   7
ENDBRANCH   2   4
ENDBRANCH   1   2
BRANCH   1  16
HETATM   16  C7  UNL     1      38.592 -21.834  14.195  1.00  0.00     0.143 C
BRANCH  16  17
HETATM   17  S2  UNL     1      38.287 -21.152  12.584  1.00  0.00     0.013 S
HETATM   18  C8  UNL     1      36.775 -20.149  12.581  1.00  0.00     0.127 C
HETATM   19  O3  UNL     1      38.160 -22.251  11.520  1.00  0.00    -0.258 OA
ENDBRANCH  16  17
ENDBRANCH   1  16
BRANCH   1  20
HETATM   20  C9  UNL     1      38.391 -23.664  15.715  1.00  0.00     0.247 C
HETATM   21  O4  UNL     1      39.457 -23.705  16.366  1.00  0.00    -0.271 OA
HETATM   22  N4  UNL     1      37.117 -23.899  16.240  1.00  0.00    -0.310 N
ATOM     23  H4  UNL     1      36.589 -24.716  15.934  1.00  0.00     0.170 HD
BRANCH  22  24
HETATM   24  C10 UNL     1      36.604 -23.098  17.104  1.00  0.00     0.125 A
HETATM   25  N5  UNL     1      37.052 -23.035  18.366  1.00  0.00    -0.349 N
HETATM   26  C11 UNL     1      36.517 -22.193  19.293  1.00  0.00     0.113 A
ATOM     27  H5  UNL     1      37.823 -23.643  18.643  1.00  0.00     0.166 HD
HETATM   28  C12 UNL     1      35.475 -21.363  18.950  1.00  0.00     0.050 A
HETATM   29 CL2  UNL     1      34.769 -20.270  20.119  1.00  0.00    -0.083 Cl
HETATM   30  C13 UNL     1      34.977 -21.389  17.659  1.00  0.00     0.048 A
HETATM   31  C14 UNL     1      35.543 -22.253  16.753  1.00  0.00     0.056 A
HETATM   32 BR1  UNL     1      34.896 -22.333  14.963  1.00  0.00    -0.047 Br
ENDBRANCH  22  24
ENDBRANCH   1  20
TORSDOF 7
ENDMDL