MODEL 1
REMARK VINA RESULT: -9.118029098      0.000      0.000
REMARK  7 active torsions:
REMARK  status: ('A' for Active; 'I' for Inactive)
REMARK    1  A    between atoms: O1_2  and  C2_3
REMARK    2  A    between atoms: C2_3  and  C3_5
REMARK    3  A    between atoms: C5_9  and  N2_10
REMARK       I    between atoms: N2_10  and  C6_12
REMARK    4  A    between atoms: C6_12  and  C7_14
REMARK    5  A    between atoms: C7_14  and  N3_15
REMARK    6  A    between atoms: C7_14  and  C13_25
REMARK       I    between atoms: N3_15  and  C8_17
REMARK    7  A    between atoms: C8_17  and  C9_19
ROOT
HETATM    1  N2  UNL     1      38.492 -26.262  12.789  1.00  0.00    -0.343 N
ATOM      2  H2  UNL     1      38.711 -25.383  12.319  1.00  0.00     0.163 HD
HETATM    3  C6  UNL     1      38.885 -26.468  14.126  1.00  0.00     0.243 C
HETATM    4  O4  UNL     1      38.585 -27.605  14.657  1.00  0.00    -0.271 OA
ENDROOT
BRANCH   3   5
HETATM    5  C7  UNL     1      39.605 -25.550  15.008  1.00  0.00     0.199 C
BRANCH   5   6
HETATM    6  N3  UNL     1      38.652 -24.807  15.803  1.00  0.00    -0.342 N
HETATM    7  C8  UNL     1      37.835 -23.755  15.310  1.00  0.00     0.254 C
HETATM    8  O5  UNL     1      37.865 -23.369  14.117  1.00  0.00    -0.268 OA
ATOM      9  H3  UNL     1      38.560 -25.057  16.788  1.00  0.00     0.163 HD
BRANCH   7  10
HETATM   10  C9  UNL     1      36.898 -23.064  16.211  1.00  0.00     0.055 A
HETATM   11  C10 UNL     1      35.683 -22.545  16.082  1.00  0.00     0.065 A
HETATM   12 BR1  UNL     1      34.372 -22.345  14.710  1.00  0.00    -0.047 Br
HETATM   13  C11 UNL     1      35.685 -22.140  17.480  1.00  0.00     0.135 A
HETATM   14  F1  UNL     1      34.803 -21.504  18.284  1.00  0.00    -0.205 F
HETATM   15  C12 UNL     1      36.889 -22.652  17.613  1.00  0.00     0.062 A
ENDBRANCH   7  10
ENDBRANCH   5   6
BRANCH   5  16
HETATM   16  C13 UNL     1      40.727 -26.106  15.805  1.00  0.00     0.059 C
HETATM   17  C14 UNL     1      41.201 -25.147  16.868  1.00  0.00     0.035 C
HETATM   18  C15 UNL     1      41.932 -26.245  14.835  1.00  0.00     0.035 C
HETATM   19 CL1  UNL     1      40.454 -27.693  16.495  1.00  0.00    -0.117 Cl
ENDBRANCH   5  16
ENDBRANCH   3   5
BRANCH   1  20
HETATM   20  C5  UNL     1      37.785 -27.289  12.095  1.00  0.00     0.210 C
HETATM   21  C4  UNL     1      37.883 -27.058  10.620  1.00  0.00     0.247 C
HETATM   22  N1  UNL     1      36.593 -26.493  10.562  1.00  0.00    -0.319 N
HETATM   23  O3  UNL     1      38.782 -27.289   9.789  1.00  0.00    -0.271 OA
HETATM   24  C3  UNL     1      35.451 -25.743  10.084  1.00  0.00     0.206 C
HETATM   25  C16 UNL     1      36.335 -27.134  11.833  1.00  0.00     0.183 C
HETATM   26  C17 UNL     1      35.002 -24.840  11.170  1.00  0.00     0.033 C
HETATM   27  S1  UNL     1      35.510 -25.745  12.693  1.00  0.00    -0.129 SA
HETATM   28  C18 UNL     1      33.495 -24.722  11.141  1.00  0.00     0.029 C
HETATM   29  C19 UNL     1      35.607 -23.471  11.161  1.00  0.00     0.029 C
BRANCH  24  30
HETATM   30  C2  UNL     1      34.400 -26.625   9.531  1.00  0.00     0.283 C
HETATM   31  O2  UNL     1      34.006 -26.394   8.342  1.00  0.00    -0.263 OA
BRANCH  30  32
HETATM   32  O1  UNL     1      33.824 -27.677  10.230  1.00  0.00    -0.325 OA
HETATM   33  C1  UNL     1      32.436 -27.829  10.275  1.00  0.00     0.213 C
ENDBRANCH  30  32
ENDBRANCH  24  30
ENDBRANCH   1  20
TORSDOF 7
ENDMDL