MODEL 1
REMARK VINA RESULT: -7.577250886      0.000      0.000
REMARK  10 active torsions:
REMARK  status: ('A' for Active; 'I' for Inactive)
REMARK    1  A    between atoms: C1_4  and  N2_5
REMARK    2  A    between atoms: C1_4  and  O1_14
REMARK    3  A    between atoms: N2_5  and  C2_7
REMARK    4  A    between atoms: C2_7  and  C3_8
REMARK    5  A    between atoms: O1_14  and  C9_15
REMARK    6  A    between atoms: C9_15  and  C10_16
REMARK    7  A    between atoms: C9_15  and  C14_24
REMARK    8  A    between atoms: C10_16  and  C11_17
REMARK    9  A    between atoms: C14_24  and  N5_25
REMARK   10  A    between atoms: N6_28  and  C17_29
ROOT
HETATM    1  C9  UNL     1       6.572   9.732  20.561  1.00  0.00     0.165 C
ENDROOT
BRANCH   1   2
HETATM    2  O1  UNL     1       6.455  10.954  21.148  1.00  0.00    -0.315 OA
BRANCH   2   3
HETATM    3  C1  UNL     1       5.327  11.722  21.359  1.00  0.00     0.213 C
HETATM    4  N1  UNL     1       4.506  11.735  20.390  1.00  0.00    -0.365 N
ATOM      5  H12 UNL     1       3.673  12.301  20.545  1.00  0.00     0.159 HD
ATOM      6  H11 UNL     1       4.656  11.222  19.521  1.00  0.00     0.159 HD
BRANCH   3   7
HETATM    7  N2  UNL     1       5.117  12.438  22.573  1.00  0.00    -0.352 N
ATOM      8  H2  UNL     1       5.797  13.132  22.881  1.00  0.00     0.163 HD
BRANCH   7   9
HETATM    9  C2  UNL     1       3.948  12.179  23.362  1.00  0.00     0.161 C
BRANCH   9  10
HETATM   10  C3  UNL     1       4.011  10.793  23.879  1.00  0.00    -0.041 A
HETATM   11  C4  UNL     1       3.010   9.913  23.557  1.00  0.00     0.009 A
HETATM   12  C5  UNL     1       3.072   8.630  24.038  1.00  0.00     0.001 A
HETATM   13  C6  UNL     1       4.105   8.168  24.841  1.00  0.00     0.000 A
HETATM   14  C7  UNL     1       5.080   9.084  25.132  1.00  0.00     0.001 A
HETATM   15  C8  UNL     1       5.050  10.380  24.667  1.00  0.00     0.009 A
ENDBRANCH   9  10
ENDBRANCH   7   9
ENDBRANCH   3   7
ENDBRANCH   2   3
ENDBRANCH   1   2
BRANCH   1  16
HETATM   16  C10 UNL     1       7.794   9.357  19.838  1.00  0.00     0.092 C
BRANCH  16  17
HETATM   17  C11 UNL     1       8.175  10.469  18.896  1.00  0.00     0.028 A
HETATM   18  C12 UNL     1       8.397  10.355  17.537  1.00  0.00     0.114 A
HETATM   19  N3  UNL     1       8.699  11.573  17.059  1.00  0.00    -0.360 N
HETATM   20  C13 UNL     1       8.675  12.442  18.056  1.00  0.00     0.180 A
ATOM     21  H3  UNL     1       8.912  11.792  16.086  1.00  0.00     0.166 HD
HETATM   22  N4  UNL     1       8.358  11.772  19.172  1.00  0.00    -0.354 N
ATOM     23  H4  UNL     1       8.267  12.191  20.098  1.00  0.00     0.166 HD
ENDBRANCH  16  17
ENDBRANCH   1  16
BRANCH   1  24
HETATM   24  C14 UNL     1       6.103   8.689  21.588  1.00  0.00     0.305 C
BRANCH  24  25
HETATM   25  N5  UNL     1       5.073   7.843  21.157  1.00  0.00     0.094 N
HETATM   26  C15 UNL     1       4.657   7.835  19.815  1.00  0.00     0.292 C
HETATM   27  C16 UNL     1       4.649   6.457  19.172  1.00  0.00     0.153 C
HETATM   28  N6  UNL     1       3.822   5.599  19.979  1.00  0.00    -0.378 N
HETATM   29  C23 UNL     1       4.032   5.649  21.433  1.00  0.00     0.153 C
HETATM   30  C24 UNL     1       5.257   6.512  21.674  1.00  0.00     0.292 C
BRANCH  28  31
HETATM   31  C17 UNL     1       2.855   4.738  19.415  1.00  0.00     0.030 A
HETATM   32  C18 UNL     1       2.755   4.394  18.091  1.00  0.00     0.029 A
HETATM   33  C19 UNL     1       1.758   3.533  17.628  1.00  0.00     0.002 A
HETATM   34  C20 UNL     1       0.838   2.997  18.487  1.00  0.00     0.000 A
HETATM   35  C21 UNL     1       0.927   3.334  19.820  1.00  0.00     0.002 A
HETATM   36  C22 UNL     1       1.907   4.180  20.271  1.00  0.00     0.029 A
ENDBRANCH  28  31
ENDBRANCH  24  25
ENDBRANCH   1  24
TORSDOF 10
ENDMDL