MODEL 4
REMARK VINA RESULT: -7.455447403      1.318      1.862
REMARK  10 active torsions:
REMARK  status: ('A' for Active; 'I' for Inactive)
REMARK    1  A    between atoms: O1_1  and  C1_3
REMARK    2  A    between atoms: C4_6  and  C5_7
REMARK    3  A    between atoms: C5_7  and  C6_8
REMARK    4  A    between atoms: C6_8  and  C7_9
REMARK    5  A    between atoms: C6_8  and  N3_27
REMARK    6  A    between atoms: C7_9  and  O2_10
REMARK    7  A    between atoms: C7_9  and  C8_12
REMARK    8  A    between atoms: C8_12  and  N1_13
REMARK    9  A    between atoms: N1_13  and  C9_15
REMARK   10  A    between atoms: C12_18  and  N2_19
ROOT
HETATM    1  C7  UNL     1       5.388   9.587  24.617  1.00  0.00     0.169 C
ENDROOT
BRANCH   1   2
HETATM    2  C6  UNL     1       4.464   8.412  24.396  1.00  0.00     0.257 C
BRANCH   2   3
HETATM    3  C5  UNL     1       5.184   7.192  23.995  1.00  0.00     0.077 C
BRANCH   3   4
HETATM    4  C4  UNL     1       4.698   6.411  22.870  1.00  0.00    -0.056 A
HETATM    5  C3  UNL     1       3.690   5.470  22.945  1.00  0.00     0.010 A
HETATM    6  C2  UNL     1       3.265   4.696  21.895  1.00  0.00     0.037 A
HETATM    7  C1  UNL     1       3.892   4.871  20.660  1.00  0.00     0.065 A
HETATM    8  C25 UNL     1       4.891   5.795  20.564  1.00  0.00     0.037 A
HETATM    9  C24 UNL     1       5.308   6.561  21.623  1.00  0.00     0.010 A
BRANCH   7  10
HETATM   10  O1  UNL     1       3.496   4.114  19.569  1.00  0.00    -0.361 OA
ATOM     11  H1  UNL     1       4.085   3.466  19.202  1.00  0.00     0.217 HD
ENDBRANCH   7  10
ENDBRANCH   3   4
ENDBRANCH   2   3
BRANCH   2  12
HETATM   12  N3  UNL     1       3.679   8.210  25.630  1.00  0.00     0.096 N
HETATM   13  C20 UNL     1       3.925   6.952  26.258  1.00  0.00     0.273 C
HETATM   14  C21 UNL     1       2.683   6.634  27.073  1.00  0.00     0.032 C
HETATM   15  C22 UNL     1       1.584   7.327  26.346  1.00  0.00     0.032 C
HETATM   16  C23 UNL     1       2.287   8.114  25.267  1.00  0.00     0.273 C
ENDBRANCH   2  12
ENDBRANCH   1   2
BRANCH   1  17
HETATM   17  O2  UNL     1       5.569   9.881  25.961  1.00  0.00    -0.392 OA
ATOM     18  H2  UNL     1       5.755  10.800  26.114  1.00  0.00     0.210 HD
ENDBRANCH   1  17
BRANCH   1  19
HETATM   19  C8  UNL     1       4.945  10.823  23.906  1.00  0.00     0.148 C
BRANCH  19  20
HETATM   20  N1  UNL     1       3.991  10.542  22.890  1.00  0.00    -0.415 N
ATOM     21  H1  UNL     1       3.156   9.990  23.080  1.00  0.00     0.153 HD
BRANCH  20  22
HETATM   22  C9  UNL     1       4.258  11.067  21.593  1.00  0.00     0.076 C
HETATM   23  C10 UNL     1       4.867  10.022  20.671  1.00  0.00     0.027 C
HETATM   24  C11 UNL     1       6.347   9.920  21.017  1.00  0.00     0.028 C
HETATM   25  C12 UNL     1       7.046  11.195  20.688  1.00  0.00     0.088 C
HETATM   26  C18 UNL     1       6.055  12.332  20.483  1.00  0.00     0.028 C
HETATM   27  C19 UNL     1       5.156  12.297  21.716  1.00  0.00     0.027 C
BRANCH  25  28
HETATM   28  N2  UNL     1       7.998  11.131  19.645  1.00  0.00    -0.369 N
HETATM   29  C13 UNL     1       8.239  12.287  18.880  1.00  0.00     0.063 C
HETATM   30  C14 UNL     1       9.117  11.974  17.704  1.00  0.00     0.045 C
HETATM   31  C15 UNL     1       8.386  10.927  16.875  1.00  0.00     0.010 C
HETATM   32  C16 UNL     1       8.163   9.663  17.677  1.00  0.00     0.045 C
HETATM   33  C17 UNL     1       8.374   9.872  19.151  1.00  0.00     0.063 C
ENDBRANCH  25  28
ENDBRANCH  20  22
ENDBRANCH  19  20
ENDBRANCH   1  19
TORSDOF 10
ENDMDL