MODEL 1
REMARK VINA RESULT: -7.679670229      0.000      0.000
REMARK  9 active torsions:
REMARK  status: ('A' for Active; 'I' for Inactive)
REMARK    1  A    between atoms: N1_8  and  C8_9
REMARK    2  A    between atoms: C8_9  and  C9_10
REMARK    3  A    between atoms: C9_10  and  C10_11
REMARK    4  A    between atoms: C10_11  and  C11_12
REMARK       I    between atoms: C11_12  and  N2_14
REMARK    5  A    between atoms: N2_14  and  C12_16
REMARK    6  A    between atoms: C12_16  and  C13_17
REMARK    7  A    between atoms: C12_16  and  C20_24
REMARK    8  A    between atoms: C13_17  and  C14_18
REMARK       I    between atoms: C20_24  and  N3_26
REMARK    9  A    between atoms: N3_26  and  C21_28
ROOT
HETATM    1  C21 UNL     1       4.116  11.805  24.485  1.00  0.00     0.115 C
HETATM    2  C22 UNL     1       3.136  10.657  24.723  1.00  0.00     0.055 C
HETATM    3  C23 UNL     1       3.325  12.963  23.929  1.00  0.00     0.055 C
HETATM    4  C24 UNL     1       4.676  12.251  25.783  1.00  0.00     0.090 C
HETATM    5  N4  UNL     1       5.121  12.594  26.794  1.00  0.00    -0.195 NA
ENDROOT
BRANCH   1   6
HETATM    6  N3  UNL     1       5.171  11.363  23.615  1.00  0.00    -0.338 N
HETATM    7  C20 UNL     1       4.876  10.714  22.406  1.00  0.00     0.241 C
HETATM    8  O2  UNL     1       3.624  10.541  22.155  1.00  0.00    -0.271 OA
ATOM      9  H3  UNL     1       6.144  11.522  23.878  1.00  0.00     0.164 HD
BRANCH   7  10
HETATM   10  C12 UNL     1       5.823  10.205  21.398  1.00  0.00     0.177 C
BRANCH  10  11
HETATM   11  N2  UNL     1       5.051   9.170  20.633  1.00  0.00    -0.348 N
HETATM   12  C11 UNL     1       5.303   7.792  20.855  1.00  0.00     0.218 C
HETATM   13  O1  UNL     1       6.168   7.473  21.700  1.00  0.00    -0.274 OA
ATOM     14  H2  UNL     1       4.346   9.457  19.954  1.00  0.00     0.163 HD
BRANCH  12  15
HETATM   15  C10 UNL     1       4.575   6.743  20.118  1.00  0.00     0.104 C
BRANCH  15  16
HETATM   16  C9  UNL     1       4.100   5.697  21.083  1.00  0.00     0.029 C
BRANCH  16  17
HETATM   17  C8  UNL     1       4.306   4.294  20.551  1.00  0.00     0.118 C
BRANCH  17  18
HETATM   18  N1  UNL     1       3.064   3.619  20.372  1.00  0.00    -0.405 N
HETATM   19  C2  UNL     1       2.104   4.330  19.597  1.00  0.00     0.075 C
HETATM   20  C1  UNL     1       0.693   4.012  20.027  1.00  0.00     0.032 C
HETATM   21  C3  UNL     1       2.220   4.036  18.113  1.00  0.00     0.024 C
HETATM   22  C4  UNL     1       1.911   2.559  17.970  1.00  0.00     0.004 C
HETATM   23  C5  UNL     1       2.988   1.810  18.701  1.00  0.00     0.024 C
HETATM   24  C6  UNL     1       3.141   2.221  20.139  1.00  0.00     0.075 C
HETATM   25  C7  UNL     1       4.413   1.581  20.647  1.00  0.00     0.032 C
ENDBRANCH  17  18
ENDBRANCH  16  17
ENDBRANCH  15  16
ENDBRANCH  12  15
ENDBRANCH  10  11
BRANCH  10  26
HETATM   26  C13 UNL     1       6.181  11.289  20.429  1.00  0.00     0.039 C
BRANCH  26  27
HETATM   27  C14 UNL     1       7.613  11.648  20.330  1.00  0.00    -0.012 C
HETATM   28  C15 UNL     1       7.859  12.689  19.233  1.00  0.00     0.005 C
HETATM   29  C16 UNL     1       8.764  12.153  18.158  1.00  0.00     0.000 C
HETATM   30  C17 UNL     1       8.180  10.846  17.604  1.00  0.00     0.000 C
HETATM   31  C18 UNL     1       8.169   9.819  18.698  1.00  0.00     0.000 C
HETATM   32  C19 UNL     1       8.488  10.419  20.049  1.00  0.00     0.005 C
ENDBRANCH  26  27
ENDBRANCH  10  26
ENDBRANCH   7  10
ENDBRANCH   1   6
TORSDOF 9
ENDMDL