MODEL 2
REMARK VINA RESULT: -7.273908957      1.975      3.153
REMARK  9 active torsions:
REMARK  status: ('A' for Active; 'I' for Inactive)
REMARK    1  A    between atoms: C2_2  and  C3_3
REMARK    2  A    between atoms: C3_3  and  C5_5
REMARK    3  A    between atoms: C5_5  and  N1_6
REMARK    4  A    between atoms: C5_5  and  C16_20
REMARK       I    between atoms: N1_6  and  C6_8
REMARK    5  A    between atoms: C6_8  and  C7_10
REMARK    6  A    between atoms: C7_10  and  C8_11
REMARK    7  A    between atoms: C7_10  and  C9_13
REMARK       I    between atoms: C16_20  and  N2_22
REMARK    8  A    between atoms: C21_27  and  C22_28
REMARK    9  A    between atoms: C22_28  and  N3_29
ROOT
HETATM    1  C5  UNL     1       4.474  10.000  24.480  1.00  0.00     0.180 C
ENDROOT
BRANCH   1   2
HETATM    2  C3  UNL     1       3.078   9.585  24.712  1.00  0.00     0.013 C
HETATM    3  C4  UNL     1       2.916   8.622  25.894  1.00  0.00     0.012 C
BRANCH   2   4
HETATM    4  C2  UNL     1       2.014  10.627  24.700  1.00  0.00     0.002 C
HETATM    5  C1  UNL     1       0.659   9.894  24.541  1.00  0.00     0.005 C
ENDBRANCH   2   4
ENDBRANCH   1   2
BRANCH   1   6
HETATM    6  N1  UNL     1       5.159   9.446  23.358  1.00  0.00    -0.347 N
HETATM    7  C6  UNL     1       4.901   9.401  22.017  1.00  0.00     0.223 C
HETATM    8  O1  UNL     1       3.942   9.879  21.437  1.00  0.00    -0.273 OA
ATOM      9  H1  UNL     1       6.032   8.982  23.612  1.00  0.00     0.163 HD
BRANCH   7  10
HETATM   10  C7  UNL     1       5.910   8.669  21.122  1.00  0.00     0.092 C
BRANCH  10  11
HETATM   11  C8  UNL     1       5.122   7.552  20.557  1.00  0.00     0.100 C
HETATM   12  S1  UNL     1       4.942   6.102  21.600  1.00  0.00    -0.097 SA
ENDBRANCH  10  11
BRANCH  10  13
HETATM   13  C9  UNL     1       6.577   9.650  20.264  1.00  0.00    -0.001 C
HETATM   14  C10 UNL     1       6.555  10.982  21.078  1.00  0.00     0.005 C
HETATM   15  C11 UNL     1       6.614  12.173  20.184  1.00  0.00     0.000 C
HETATM   16  C12 UNL     1       8.029  12.309  19.611  1.00  0.00     0.000 C
HETATM   17  C13 UNL     1       8.050  11.530  18.344  1.00  0.00     0.000 C
HETATM   18  C14 UNL     1       8.239  10.069  18.447  1.00  0.00     0.000 C
HETATM   19  C15 UNL     1       7.976   9.482  19.841  1.00  0.00     0.005 C
ENDBRANCH  10  13
ENDBRANCH   7  10
ENDBRANCH   1   6
BRANCH   1  20
HETATM   20  C16 UNL     1       5.321   9.891  25.688  1.00  0.00     0.243 C
HETATM   21  O2  UNL     1       6.097   8.887  25.748  1.00  0.00    -0.271 OA
HETATM   22  N2  UNL     1       5.364  10.784  26.777  1.00  0.00    -0.344 N
HETATM   23  C17 UNL     1       6.255  10.457  27.908  1.00  0.00     0.126 C
HETATM   24  C21 UNL     1       4.672  12.027  26.925  1.00  0.00     0.112 C
HETATM   25  C18 UNL     1       5.511  10.382  29.195  1.00  0.00     0.020 C
HETATM   26  C19 UNL     1       4.743  11.673  29.386  1.00  0.00     0.004 C
HETATM   27  C20 UNL     1       3.867  11.978  28.202  1.00  0.00     0.027 C
BRANCH  24  28
HETATM   28  C22 UNL     1       5.678  13.199  27.012  1.00  0.00     0.254 C
BRANCH  28  29
HETATM   29  N3  UNL     1       4.930  14.393  26.662  1.00  0.00    -0.077 N
ATOM     30  H33 UNL     1       4.305  14.263  25.866  1.00  0.00     0.274 HD
ATOM     31  H32 UNL     1       4.213  14.639  27.344  1.00  0.00     0.274 HD
ATOM     32  H31 UNL     1       5.625  15.126  26.518  1.00  0.00     0.274 HD
ENDBRANCH  28  29
ENDBRANCH  24  28
ENDBRANCH   1  20
TORSDOF 9
ENDMDL