MODEL 2
REMARK VINA RESULT: -7.678957435      0.112      1.204
REMARK  11 active torsions:
REMARK  status: ('A' for Active; 'I' for Inactive)
REMARK    1  A    between atoms: C2_2  and  C3_3
REMARK    2  A    between atoms: C3_3  and  C4_4
REMARK    3  A    between atoms: N1_9  and  C9_10
REMARK    4  A    between atoms: C9_10  and  C10_11
REMARK    5  A    between atoms: C13_14  and  O1_15
REMARK    6  A    between atoms: O1_15  and  C14_16
REMARK    7  A    between atoms: C14_16  and  C15_17
REMARK    8  A    between atoms: C23_25  and  C24_26
REMARK    9  A    between atoms: C24_26  and  O2_27
REMARK   10  A    between atoms: C25_29  and  O3_30
REMARK   11  A    between atoms: C26_32  and  O4_33
ROOT
HETATM    1  C1  UNL     1       4.498  10.991  29.335  1.00  0.00     0.018 C
HETATM    2  C2  UNL     1       5.083  10.349  28.041  1.00  0.00    -0.011 C
HETATM    3  C7  UNL     1       3.901   9.857  27.233  1.00  0.00     0.056 C
HETATM    4  C8  UNL     1       3.999  10.170  25.765  1.00  0.00     0.065 C
HETATM    5  N1  UNL     1       3.901  11.511  25.407  1.00  0.00    -0.360 N
HETATM    6  C23 UNL     1       3.817  12.516  26.379  1.00  0.00     0.143 C
HETATM    7  C25 UNL     1       5.004  12.666  27.270  1.00  0.00     0.172 C
HETATM    8  C26 UNL     1       5.864  11.407  27.351  1.00  0.00     0.157 C
ENDROOT
BRANCH   5   9
HETATM    9  C9  UNL     1       3.504  11.753  24.090  1.00  0.00     0.102 C
BRANCH   9  10
HETATM   10  C10 UNL     1       4.222  11.044  23.011  1.00  0.00    -0.021 A
HETATM   11  C11 UNL     1       5.420  11.578  22.553  1.00  0.00     0.015 A
HETATM   12  C12 UNL     1       6.157  11.016  21.563  1.00  0.00     0.037 A
HETATM   13  C13 UNL     1       5.706   9.850  20.969  1.00  0.00     0.069 A
HETATM   14  C21 UNL     1       4.517   9.319  21.421  1.00  0.00     0.037 A
HETATM   15  C22 UNL     1       3.778   9.892  22.420  1.00  0.00     0.015 A
BRANCH  13  16
HETATM   16  O1  UNL     1       6.485   9.307  19.964  1.00  0.00    -0.347 OA
BRANCH  16  17
HETATM   17  C14 UNL     1       7.864   9.540  19.976  1.00  0.00     0.214 C
BRANCH  17  18
HETATM   18  C15 UNL     1       8.323  10.276  18.763  1.00  0.00    -0.034 A
HETATM   19  C16 UNL     1       8.739  11.585  18.780  1.00  0.00     0.009 A
HETATM   20  C17 UNL     1       9.143  12.164  17.603  1.00  0.00     0.001 A
HETATM   21  C18 UNL     1       9.158  11.511  16.392  1.00  0.00     0.000 A
HETATM   22  C19 UNL     1       8.734  10.187  16.390  1.00  0.00     0.001 A
HETATM   23  C20 UNL     1       8.321   9.584  17.576  1.00  0.00     0.009 A
ENDBRANCH  17  18
ENDBRANCH  16  17
ENDBRANCH  13  16
ENDBRANCH   9  10
ENDBRANCH   5   9
BRANCH   6  24
HETATM   24  C24 UNL     1       3.554  13.868  25.745  1.00  0.00     0.192 C
BRANCH  24  25
HETATM   25  O2  UNL     1       3.097  14.755  26.747  1.00  0.00    -0.399 OA
ATOM     26  H2  UNL     1       2.302  15.176  26.440  1.00  0.00     0.209 HD
ENDBRANCH  24  25
ENDBRANCH   6  24
BRANCH   7  27
HETATM   27  O3  UNL     1       5.817  13.758  26.890  1.00  0.00    -0.391 OA
ATOM     28  H3  UNL     1       5.449  14.589  27.167  1.00  0.00     0.210 HD
ENDBRANCH   7  27
BRANCH   2  29
HETATM   29  C3  UNL     1       5.946   9.254  28.554  1.00  0.00     0.016 C
BRANCH  29  30
HETATM   30  C4  UNL     1       6.209   8.069  27.721  1.00  0.00    -0.014 A
HETATM   31  C5  UNL     1       7.180   7.935  26.638  1.00  0.00     0.005 A
HETATM   32  C6  UNL     1       7.520   7.337  27.971  1.00  0.00     0.005 A
ENDBRANCH  29  30
ENDBRANCH   2  29
BRANCH   8  33
HETATM   33  O4  UNL     1       6.947  11.757  28.150  1.00  0.00    -0.392 OA
ATOM     34  H4  UNL     1       7.660  12.041  27.591  1.00  0.00     0.210 HD
ENDBRANCH   8  33
TORSDOF 11
ENDMDL