MODEL 1
REMARK VINA RESULT: -7.960857126      0.000      0.000
REMARK  10 active torsions:
REMARK  status: ('A' for Active; 'I' for Inactive)
REMARK    1  A    between atoms: O1_1  and  C1_3
REMARK    2  A    between atoms: C1_3  and  C2_4
REMARK    3  A    between atoms: N1_5  and  C3_6
REMARK    4  A    between atoms: C3_6  and  C4_7
REMARK    5  A    between atoms: C14_17  and  O2_18
REMARK    6  A    between atoms: O2_18  and  C15_19
REMARK    7  A    between atoms: C15_19  and  C16_20
REMARK    8  A    between atoms: C16_20  and  O3_21
REMARK    9  A    between atoms: O3_21  and  C17_22
REMARK   10  A    between atoms: C25_30  and  O4_31
ROOT
HETATM    1  C2  UNL     1       5.768  10.599  20.978  1.00  0.00     0.052 C
HETATM    2  N1  UNL     1       6.572   9.585  20.517  1.00  0.00    -0.354 N
HETATM    3  C10 UNL     1       5.968   8.303  20.190  1.00  0.00     0.167 C
HETATM    4  C11 UNL     1       5.339   7.894  21.503  1.00  0.00    -0.030 A
HETATM    5  C12 UNL     1       5.337   6.698  22.154  1.00  0.00     0.012 A
HETATM    6  C13 UNL     1       4.767   6.608  23.440  1.00  0.00     0.038 A
HETATM    7  C14 UNL     1       4.222   7.746  24.021  1.00  0.00     0.075 A
HETATM    8  C23 UNL     1       4.219   8.981  23.365  1.00  0.00    -0.011 A
HETATM    9  C24 UNL     1       4.776   8.904  22.177  1.00  0.00    -0.001 A
HETATM   10  C25 UNL     1       4.487  10.231  21.643  1.00  0.00     0.130 C
HETATM   11  C26 UNL     1       4.060  10.452  23.041  1.00  0.00     0.091 C
ENDROOT
BRANCH   7  12
HETATM   12  O2  UNL     1       3.641   7.766  25.277  1.00  0.00    -0.348 OA
BRANCH  12  13
HETATM   13  C15 UNL     1       4.107   6.956  26.347  1.00  0.00     0.202 C
BRANCH  13  14
HETATM   14  C16 UNL     1       4.550   7.877  27.438  1.00  0.00     0.202 C
BRANCH  14  15
HETATM   15  O3  UNL     1       5.577   8.703  27.031  1.00  0.00    -0.349 OA
BRANCH  15  16
HETATM   16  C17 UNL     1       5.655  10.044  27.244  1.00  0.00     0.068 A
HETATM   17  C18 UNL     1       4.906  10.895  26.427  1.00  0.00     0.037 A
HETATM   18  C19 UNL     1       4.952  12.249  26.608  1.00  0.00     0.003 A
HETATM   19  C20 UNL     1       5.740  12.784  27.605  1.00  0.00     0.000 A
HETATM   20  C21 UNL     1       6.470  11.957  28.403  1.00  0.00     0.003 A
HETATM   21  C22 UNL     1       6.443  10.561  28.240  1.00  0.00     0.037 A
ENDBRANCH  15  16
ENDBRANCH  14  15
ENDBRANCH  13  14
ENDBRANCH  12  13
ENDBRANCH   7  12
BRANCH  10  22
HETATM   22  O4  UNL     1       3.413  10.246  20.712  1.00  0.00    -0.378 OA
ATOM     23  H4  UNL     1       3.510   9.550  20.073  1.00  0.00     0.211 HD
ENDBRANCH  10  22
BRANCH   1  24
HETATM   24  C1  UNL     1       6.341  11.750  21.763  1.00  0.00     0.220 C
BRANCH  24  25
HETATM   25  O1  UNL     1       5.787  12.971  21.411  1.00  0.00    -0.395 OA
ATOM     26  H1  UNL     1       5.157  13.289  22.047  1.00  0.00     0.209 HD
ENDBRANCH  24  25
ENDBRANCH   1  24
BRANCH   2  27
HETATM   27  C3  UNL     1       7.889   9.655  20.146  1.00  0.00     0.102 C
BRANCH  27  28
HETATM   28  C4  UNL     1       8.308  10.311  18.892  1.00  0.00    -0.021 A
HETATM   29  C5  UNL     1       8.654  11.622  18.844  1.00  0.00     0.013 A
HETATM   30  C6  UNL     1       9.063  12.165  17.638  1.00  0.00     0.001 A
HETATM   31  C7  UNL     1       9.134  11.424  16.475  1.00  0.00     0.000 A
HETATM   32  C8  UNL     1       8.772  10.095  16.574  1.00  0.00     0.001 A
HETATM   33  C9  UNL     1       8.364   9.540  17.755  1.00  0.00     0.013 A
ENDBRANCH  27  28
ENDBRANCH   2  27
TORSDOF 10
ENDMDL