MODEL 3
REMARK VINA RESULT: -6.988183348      2.583      8.801
REMARK  9 active torsions:
REMARK  status: ('A' for Active; 'I' for Inactive)
REMARK    1  A    between atoms: C2_2  and  C3_3
REMARK    2  A    between atoms: C3_3  and  C4_4
REMARK    3  A    between atoms: C4_4  and  C5_5
REMARK    4  A    between atoms: C14_19  and  C15_20
REMARK       I    between atoms: C15_20  and  N3_22
REMARK    5  A    between atoms: N3_22  and  C16_24
REMARK    6  A    between atoms: C16_24  and  C17_25
REMARK    7  A    between atoms: C17_25  and  C18_26
REMARK    8  A    between atoms: C18_26  and  N4_27
REMARK    9  A    between atoms: C24_33  and  N5_34
ROOT
HETATM    1  C4  UNL     1       4.248   9.132  24.014  1.00  0.00     0.108 C
HETATM    2  O1  UNL     1       5.032  10.210  23.586  1.00  0.00    -0.373 OA
HETATM    3  C10 UNL     1       4.972  10.508  22.262  1.00  0.00     0.174 C
HETATM    4  C11 UNL     1       5.555   9.423  21.364  1.00  0.00     0.069 C
HETATM    5  C12 UNL     1       4.909   8.147  21.758  1.00  0.00    -0.000 A
HETATM    6  C13 UNL     1       4.322   8.062  22.986  1.00  0.00     0.069 A
HETATM    7  N1  UNL     1       3.726   6.889  23.341  1.00  0.00    -0.301 N
ATOM      8  H1  UNL     1       3.284   6.816  24.258  1.00  0.00     0.186 HD
HETATM    9  N2  UNL     1       3.703   5.847  22.538  1.00  0.00    -0.293 N
ATOM     10  H2  UNL     1       3.246   4.988  22.843  1.00  0.00     0.187 HD
HETATM   11  C14 UNL     1       4.265   5.896  21.336  1.00  0.00     0.143 A
HETATM   12  C24 UNL     1       4.884   7.048  20.913  1.00  0.00     0.068 A
ENDROOT
BRANCH  11  13
HETATM   13  C15 UNL     1       4.218   4.738  20.467  1.00  0.00     0.271 C
HETATM   14  O2  UNL     1       5.257   4.018  20.309  1.00  0.00    -0.266 OA
HETATM   15  N3  UNL     1       3.021   4.410  19.795  1.00  0.00    -0.355 N
ATOM     16  H3  UNL     1       2.211   5.009  19.954  1.00  0.00     0.162 HD
BRANCH  15  17
HETATM   17  C16 UNL     1       2.859   3.301  18.909  1.00  0.00     0.125 C
BRANCH  17  18
HETATM   18  C17 UNL     1       2.513   2.062  19.695  1.00  0.00     0.050 C
BRANCH  18  19
HETATM   19  C18 UNL     1       3.379   0.936  19.165  1.00  0.00     0.274 C
BRANCH  19  20
HETATM   20  N4  UNL     1       4.561   0.725  19.953  1.00  0.00     0.088 N
HETATM   21  C19 UNL     1       4.332   0.757  21.358  1.00  0.00     0.272 C
HETATM   22  C20 UNL     1       4.535  -0.597  21.967  1.00  0.00     0.030 C
HETATM   23  C21 UNL     1       6.031  -0.895  21.872  1.00  0.00     0.003 C
HETATM   24  C22 UNL     1       6.347  -0.928  20.389  1.00  0.00     0.030 C
HETATM   25  C23 UNL     1       5.187  -0.492  19.544  1.00  0.00     0.272 C
ENDBRANCH  19  20
ENDBRANCH  18  19
ENDBRANCH  17  18
ENDBRANCH  15  17
ENDBRANCH  11  13
BRANCH  12  26
HETATM   26  N5  UNL     1       5.449   7.141  19.768  1.00  0.00    -0.397 N
ATOM     27  H52 UNL     1       5.136   7.802  19.057  1.00  0.00     0.156 HD
ATOM     28  H51 UNL     1       6.235   6.526  19.558  1.00  0.00     0.156 HD
ENDBRANCH  12  26
BRANCH   1  29
HETATM   29  C3  UNL     1       2.852   9.591  24.082  1.00  0.00     0.045 C
BRANCH  29  30
HETATM   30  C2  UNL     1       2.619  11.025  24.453  1.00  0.00    -0.001 C
HETATM   31  C1  UNL     1       1.647  11.099  25.659  1.00  0.00     0.005 C
ENDBRANCH  29  30
ENDBRANCH   1  29
BRANCH   1  32
HETATM   32  C5  UNL     1       4.882   8.603  25.270  1.00  0.00     0.026 C
HETATM   33  C6  UNL     1       5.818   9.653  25.844  1.00  0.00     0.008 C
HETATM   34  C7  UNL     1       5.184  10.216  27.088  1.00  0.00     0.001 C
HETATM   35  C8  UNL     1       4.395   9.033  27.631  1.00  0.00     0.001 C
HETATM   36  C9  UNL     1       3.925   8.301  26.378  1.00  0.00     0.008 C
ENDBRANCH   1  32
TORSDOF 9
ENDMDL