MODEL 1
REMARK VINA RESULT: -7.093979993      0.000      0.000
REMARK  10 active torsions:
REMARK  status: ('A' for Active; 'I' for Inactive)
REMARK    1  A    between atoms: C6_6  and  C7_7
REMARK    2  A    between atoms: C7_7  and  O1_8
REMARK    3  A    between atoms: C16_19  and  C17_20
REMARK    4  A    between atoms: C17_20  and  N1_21
REMARK    5  A    between atoms: N1_21  and  C18_22
REMARK       I    between atoms: N1_21  and  C21_27
REMARK    6  A    between atoms: C18_22  and  C19_23
REMARK    7  A    between atoms: C19_23  and  C20_24
REMARK    8  A    between atoms: C20_24  and  O3_25
REMARK    9  A    between atoms: C21_27  and  C22_29
REMARK   10  A    between atoms: C22_29  and  C23_30
ROOT
HETATM    1  C1  UNL     1       4.446  11.913  21.681  1.00  0.00     0.011 C
HETATM    2  C2  UNL     1       5.021  10.652  21.050  1.00  0.00     0.000 C
HETATM    3  C3  UNL     1       6.454  10.925  20.770  1.00  0.00     0.023 C
HETATM    4  C4  UNL     1       6.515  11.923  19.640  1.00  0.00     0.012 C
HETATM    5  C5  UNL     1       7.867  11.931  18.966  1.00  0.00     0.036 C
HETATM    6  C6  UNL     1       8.173  10.547  18.500  1.00  0.00    -0.058 C
HETATM    7  C8  UNL     1       7.899   9.549  19.275  1.00  0.00     0.010 C
HETATM    8  C9  UNL     1       7.285   9.719  20.626  1.00  0.00     0.150 C
HETATM    9  O2  UNL     1       6.808   8.508  20.996  1.00  0.00    -0.370 OA
HETATM   10  C10 UNL     1       5.491   8.319  21.284  1.00  0.00     0.070 C
HETATM   11  C11 UNL     1       4.794   8.358  19.912  1.00  0.00     0.039 C
HETATM   12  C12 UNL     1       4.857   7.051  19.165  1.00  0.00     0.003 C
HETATM   13  C13 UNL     1       4.033   6.073  20.000  1.00  0.00     0.000 C
HETATM   14  C14 UNL     1       4.922   5.819  21.182  1.00  0.00     0.003 C
HETATM   15  C15 UNL     1       5.299   7.020  21.970  1.00  0.00     0.039 C
HETATM   16  C16 UNL     1       4.863   9.459  22.023  1.00  0.00     0.063 C
ENDROOT
BRANCH  16  17
HETATM   17  C17 UNL     1       5.259   9.877  23.361  1.00  0.00     0.075 C
BRANCH  17  18
HETATM   18  N1  UNL     1       4.534   9.606  24.546  1.00  0.00    -0.331 N
HETATM   19  C21 UNL     1       4.939   8.615  25.485  1.00  0.00     0.224 C
HETATM   20  O4  UNL     1       6.020   8.010  25.260  1.00  0.00    -0.273 OA
BRANCH  18  21
HETATM   21  C18 UNL     1       3.316  10.305  24.836  1.00  0.00     0.133 C
BRANCH  21  22
HETATM   22  C19 UNL     1       2.064   9.914  24.189  1.00  0.00     0.046 C
BRANCH  22  23
HETATM   23  C20 UNL     1       0.899   9.494  25.025  1.00  0.00     0.165 C
BRANCH  23  24
HETATM   24  O3  UNL     1      -0.327   9.957  24.630  1.00  0.00    -0.401 OA
ATOM     25  H3  UNL     1      -1.069   9.676  25.152  1.00  0.00     0.209 HD
ENDBRANCH  23  24
ENDBRANCH  22  23
ENDBRANCH  21  22
ENDBRANCH  18  21
BRANCH  19  26
HETATM   26  C22 UNL     1       4.189   8.243  26.703  1.00  0.00     0.114 C
BRANCH  26  27
HETATM   27  C23 UNL     1       3.976   6.722  26.689  1.00  0.00     0.095 C
HETATM   28  S1  UNL     1       2.952   6.207  25.307  1.00  0.00    -0.097 SA
ENDBRANCH  26  27
ENDBRANCH  19  26
ENDBRANCH  17  18
ENDBRANCH  16  17
BRANCH   6  29
HETATM   29  C7  UNL     1       8.798  10.380  17.128  1.00  0.00     0.198 C
BRANCH  29  30
HETATM   30  O1  UNL     1       8.213  11.216  16.212  1.00  0.00    -0.397 OA
ATOM     31  H1  UNL     1       8.533  11.042  15.334  1.00  0.00     0.209 HD
ENDBRANCH  29  30
ENDBRANCH   6  29
TORSDOF 10
ENDMDL