MODEL 5
REMARK VINA RESULT: -7.279733989      1.367      1.932
REMARK  8 active torsions:
REMARK  status: ('A' for Active; 'I' for Inactive)
REMARK    1  A    between atoms: O1_2  and  C2_3
REMARK    2  A    between atoms: C7_8  and  O2_9
REMARK    3  A    between atoms: O2_9  and  C8_10
REMARK    4  A    between atoms: C8_10  and  C9_11
REMARK    5  A    between atoms: C9_11  and  N1_12
REMARK    6  A    between atoms: C16_19  and  N2_20
REMARK    7  A    between atoms: N2_20  and  C17_22
REMARK    8  A    between atoms: C17_22  and  C18_23
ROOT
HETATM    1  C2  UNL     1       5.168  10.395  22.915  1.00  0.00     0.102 A
HETATM    2  C3  UNL     1       5.028   9.079  23.362  1.00  0.00     0.047 A
HETATM    3  C4  UNL     1       4.810   8.040  22.485  1.00  0.00    -0.047 A
HETATM    4  C5  UNL     1       4.736   8.345  21.143  1.00  0.00    -0.047 A
HETATM    5  C6  UNL     1       4.874   9.644  20.703  1.00  0.00     0.047 A
HETATM    6  C7  UNL     1       5.093  10.698  21.570  1.00  0.00     0.102 A
HETATM    7  C15 UNL     1       4.500   7.083  20.393  1.00  0.00     0.064 C
HETATM    8  C16 UNL     1       5.089   6.066  21.321  1.00  0.00     0.085 C
HETATM    9  C25 UNL     1       4.625   6.555  22.663  1.00  0.00     0.064 C
ENDROOT
BRANCH   8  10
HETATM   10  N2  UNL     1       4.815   4.713  21.030  1.00  0.00    -0.415 N
ATOM     11  H2  UNL     1       5.177   3.949  21.600  1.00  0.00     0.153 HD
BRANCH  10  12
HETATM   12  C17 UNL     1       3.990   4.482  19.871  1.00  0.00     0.139 C
BRANCH  12  13
HETATM   13  C18 UNL     1       2.977   3.402  20.196  1.00  0.00     0.098 C
HETATM   14  C19 UNL     1       2.142   3.833  21.354  1.00  0.00     0.059 C
HETATM   15  C20 UNL     1       1.654   2.733  22.225  1.00  0.00     0.190 C
HETATM   16  C21 UNL     1       2.485   2.673  23.476  1.00  0.00     0.033 C
HETATM   17  N3  UNL     1       1.661   1.498  21.485  1.00  0.00    -0.050 N
HETATM   18  C22 UNL     1       3.198   1.353  23.648  1.00  0.00     0.006 C
HETATM   19  C23 UNL     1       3.864   0.899  22.372  1.00  0.00     0.054 C
HETATM   20  C24 UNL     1       3.026   1.183  21.153  1.00  0.00     0.280 C
HETATM   21  N4  UNL     1       3.677   2.175  20.359  1.00  0.00    -0.390 N
ATOM     22  H4  UNL     1       4.590   2.013  19.934  1.00  0.00     0.155 HD
ATOM     23  H32 UNL     1       1.191   0.740  21.979  1.00  0.00     0.280 HD
ATOM     24  H31 UNL     1       1.053   1.526  20.666  1.00  0.00     0.280 HD
ENDBRANCH  12  13
ENDBRANCH  10  12
ENDBRANCH   8  10
BRANCH   6  25
HETATM   25  O2  UNL     1       5.237  12.017  21.161  1.00  0.00    -0.347 OA
BRANCH  25  26
HETATM   26  C8  UNL     1       6.495  12.613  20.926  1.00  0.00     0.206 C
BRANCH  26  27
HETATM   27  C9  UNL     1       6.945  12.229  19.553  1.00  0.00     0.299 C
BRANCH  27  28
HETATM   28  N1  UNL     1       8.330  11.837  19.482  1.00  0.00     0.090 N
HETATM   29  C10 UNL     1       8.810  12.024  18.126  1.00  0.00     0.272 C
HETATM   30  C11 UNL     1       8.279  10.965  17.191  1.00  0.00     0.030 C
HETATM   31  C12 UNL     1       8.511   9.560  17.711  1.00  0.00     0.003 C
HETATM   32  C13 UNL     1       7.855   9.497  19.095  1.00  0.00     0.030 C
HETATM   33  C14 UNL     1       8.579  10.492  19.953  1.00  0.00     0.272 C
ENDBRANCH  27  28
ENDBRANCH  26  27
ENDBRANCH  25  26
ENDBRANCH   6  25
BRANCH   1  34
HETATM   34  O1  UNL     1       5.387  11.445  23.798  1.00  0.00    -0.353 OA
HETATM   35  C1  UNL     1       4.308  11.843  24.621  1.00  0.00     0.210 C
ENDBRANCH   1  34
TORSDOF 8
ENDMDL