MODEL 1
REMARK VINA RESULT: -7.415916256      0.000      0.000
REMARK  6 active torsions:
REMARK  status: ('A' for Active; 'I' for Inactive)
REMARK    1  A    between atoms: C3_3  and  N1_4
REMARK    2  A    between atoms: N1_4  and  C4_6
REMARK    3  A    between atoms: C4_6  and  C5_7
REMARK    4  A    between atoms: C5_7  and  N2_8
REMARK    5  A    between atoms: C11_16  and  C12_17
REMARK    6  A    between atoms: C15_23  and  N6_24
ROOT
HETATM    1  C12 UNL     1      -7.724   7.955   2.815  1.00  0.00    -0.020 A
HETATM    2  C13 UNL     1      -8.476   7.918   3.993  1.00  0.00     0.031 A
HETATM    3  C14 UNL     1      -9.674   7.284   4.093  1.00  0.00     0.119 A
HETATM    4  N4  UNL     1     -10.206   6.640   3.023  1.00  0.00    -0.236 N
HETATM    5  N5  UNL     1     -11.311   5.960   2.816  1.00  0.00    -0.124 N
ATOM      6  H5  UNL     1     -12.030   5.788   3.518  1.00  0.00     0.206 HD
HETATM    7  C15 UNL     1     -11.357   5.525   1.553  1.00  0.00     0.697 A
HETATM    8  N7  UNL     1     -10.231   5.960   0.966  1.00  0.00    -0.173 N
ATOM      9  H7  UNL     1      -9.963   5.793  -0.004  1.00  0.00     0.186 HD
HETATM   10  C22 UNL     1      -9.516   6.652   1.875  1.00  0.00     0.143 A
HETATM   11  C23 UNL     1      -8.278   7.297   1.739  1.00  0.00     0.063 A
ENDROOT
BRANCH   1  12
HETATM   12  C11 UNL     1      -6.461   8.648   2.773  1.00  0.00    -0.010 A
HETATM   13  C1  UNL     1      -5.806   8.893   1.594  1.00  0.00     0.017 A
HETATM   14  C2  UNL     1      -4.581   9.562   1.571  1.00  0.00     0.049 A
HETATM   15  C3  UNL     1      -4.012   9.989   2.777  1.00  0.00     0.100 A
HETATM   16  N3  UNL     1      -4.673   9.737   3.920  1.00  0.00    -0.352 N
HETATM   17  C10 UNL     1      -5.872   9.082   3.925  1.00  0.00     0.102 A
ATOM     18  H3  UNL     1      -4.270  10.043   4.805  1.00  0.00     0.166 HD
BRANCH  15  19
HETATM   19  N1  UNL     1      -2.887  10.599   2.738  1.00  0.00    -0.375 N
ATOM     20  H1  UNL     1      -2.856  11.511   2.282  1.00  0.00     0.161 HD
BRANCH  19  21
HETATM   21  C4  UNL     1      -1.663  10.086   3.297  1.00  0.00     0.151 C
BRANCH  21  22
HETATM   22  C5  UNL     1      -1.135   8.979   2.417  1.00  0.00     0.292 C
BRANCH  22  23
HETATM   23  N2  UNL     1      -1.132   7.702   3.061  1.00  0.00     0.090 N
HETATM   24  C6  UNL     1      -1.522   7.738   4.435  1.00  0.00     0.272 C
HETATM   25  C7  UNL     1      -2.724   6.861   4.608  1.00  0.00     0.032 C
HETATM   26  C8  UNL     1      -3.123   6.461   3.207  1.00  0.00     0.032 C
HETATM   27  C9  UNL     1      -1.883   6.702   2.376  1.00  0.00     0.272 C
ENDBRANCH  22  23
ENDBRANCH  21  22
ENDBRANCH  19  21
ENDBRANCH  15  19
ENDBRANCH   1  12
BRANCH   7  28
HETATM   28  N6  UNL     1     -12.407   4.744   0.931  1.00  0.00    -0.216 N
HETATM   29  C16 UNL     1     -12.371   3.358   1.269  1.00  0.00     0.141 C
HETATM   30  C17 UNL     1     -13.212   3.016   2.474  1.00  0.00     0.020 C
HETATM   31  C18 UNL     1     -14.590   3.559   2.415  1.00  0.00     0.002 C
HETATM   32  C19 UNL     1     -15.059   3.926   1.025  1.00  0.00     0.002 C
HETATM   33  C20 UNL     1     -14.701   5.350   0.669  1.00  0.00     0.020 C
HETATM   34  C21 UNL     1     -13.317   5.450   0.085  1.00  0.00     0.141 C
ENDBRANCH   7  28
TORSDOF 6
ENDMDL