MODEL 5
REMARK VINA RESULT: -7.687098509      2.265      2.893
REMARK  5 active torsions:
REMARK  status: ('A' for Active; 'I' for Inactive)
REMARK    1  A    between atoms: C3_3  and  N1_4
REMARK    2  A    between atoms: N2_7  and  C6_8
REMARK    3  A    between atoms: N3_11  and  C9_12
REMARK    4  A    between atoms: C9_12  and  C10_13
REMARK    5  A    between atoms: C10_13  and  C11_14
ROOT
HETATM    1  N1  UNL     1      -8.921   8.067  -0.295  1.00  0.00    -0.376 N
HETATM    2  C4  UNL     1      -9.533   6.750  -0.262  1.00  0.00     0.153 C
HETATM    3  C5  UNL     1     -11.006   6.910   0.041  1.00  0.00     0.292 C
HETATM    4  N2  UNL     1     -11.669   7.704  -0.977  1.00  0.00     0.096 N
HETATM    5  C16 UNL     1     -11.052   8.962  -1.206  1.00  0.00     0.292 C
HETATM    6  C17 UNL     1      -9.567   9.017  -1.184  1.00  0.00     0.153 C
ENDROOT
BRANCH   4   7
HETATM    7  C6  UNL     1     -13.044   7.894  -0.509  1.00  0.00     0.226 C
HETATM    8  C7  UNL     1     -14.038   7.256  -1.447  1.00  0.00     0.066 C
HETATM    9  C8  UNL     1     -14.028   5.781  -1.233  1.00  0.00     0.274 C
HETATM   10  N3  UNL     1     -14.736   5.512   0.008  1.00  0.00     0.088 N
HETATM   11  C14 UNL     1     -14.533   6.525   0.994  1.00  0.00     0.274 C
HETATM   12  C15 UNL     1     -13.247   7.290   0.852  1.00  0.00     0.066 C
BRANCH  10  13
HETATM   13  C9  UNL     1     -14.408   4.180   0.407  1.00  0.00     0.278 C
BRANCH  13  14
HETATM   14  C10 UNL     1     -15.430   3.497   1.254  1.00  0.00     0.088 C
BRANCH  14  15
HETATM   15  C11 UNL     1     -14.841   2.864   2.459  1.00  0.00     0.027 A
HETATM   16  C12 UNL     1     -13.516   3.046   2.825  1.00  0.00     0.114 A
HETATM   17  N4  UNL     1     -13.283   2.352   3.949  1.00  0.00    -0.360 N
HETATM   18  C13 UNL     1     -14.422   1.738   4.300  1.00  0.00     0.180 A
ATOM     19  H4  UNL     1     -12.395   2.299   4.449  1.00  0.00     0.166 HD
HETATM   20  N5  UNL     1     -15.366   2.059   3.382  1.00  0.00    -0.355 N
ATOM     21  H5  UNL     1     -16.332   1.733   3.395  1.00  0.00     0.166 HD
ENDBRANCH  14  15
ENDBRANCH  13  14
ENDBRANCH  10  13
ENDBRANCH   4   7
BRANCH   1  22
HETATM   22  C3  UNL     1      -7.787   8.393   0.511  1.00  0.00     0.058 A
HETATM   23  C2  UNL     1      -7.770   8.009   1.809  1.00  0.00     0.032 A
HETATM   24  C1  UNL     1      -6.755   8.277   2.722  1.00  0.00     0.004 A
HETATM   25  C21 UNL     1      -5.692   9.000   2.218  1.00  0.00     0.021 A
HETATM   26  C20 UNL     1      -5.681   9.413   0.878  1.00  0.00     0.035 A
HETATM   27  C18 UNL     1      -6.699   9.131   0.004  1.00  0.00     0.076 A
HETATM   28  S1  UNL     1      -4.599  10.287  -0.124  1.00  0.00    -0.083 SA
HETATM   29  N6  UNL     1      -6.569   9.565  -1.222  1.00  0.00    -0.357 N
HETATM   30  C19 UNL     1      -5.495  10.242  -1.575  1.00  0.00     0.139 A
ATOM     31  H6  UNL     1      -7.302   9.379  -1.907  1.00  0.00     0.166 HD
ENDBRANCH   1  22
TORSDOF 5
ENDMDL