MODEL 3
REMARK VINA RESULT: -7.108599005      1.574      3.169
REMARK  5 active torsions:
REMARK  status: ('A' for Active; 'I' for Inactive)
REMARK    1  A    between atoms: C2_2  and  C3_3
REMARK    2  A    between atoms: C3_3  and  N1_4
REMARK    3  A    between atoms: N2_11  and  S1_12
REMARK    4  A    between atoms: S1_12  and  C10_15
REMARK    5  A    between atoms: C14_21  and  C15_22
ROOT
HETATM    1  S1  UNL     1     -12.739   7.375  -4.081  1.00  0.00     0.266 S
HETATM    2  O1  UNL     1     -13.998   6.679  -4.637  1.00  0.00    -0.200 OA
HETATM    3  O2  UNL     1     -12.666   8.646  -4.932  1.00  0.00    -0.200 OA
ENDROOT
BRANCH   1   4
HETATM    4  N2  UNL     1     -13.048   7.812  -2.525  1.00  0.00    -0.285 N
HETATM    5  C9  UNL     1     -12.549   8.951  -1.915  1.00  0.00     0.076 C
HETATM    6  C8  UNL     1     -12.285   8.714  -0.444  1.00  0.00     0.046 C
HETATM    7  C7  UNL     1     -13.386   7.950   0.253  1.00  0.00     0.016 C
HETATM    8  C6  UNL     1     -13.825   6.753  -0.570  1.00  0.00    -0.020 C
HETATM    9  C5  UNL     1     -12.608   5.891  -0.806  1.00  0.00     0.031 C
HETATM   10  C18 UNL     1     -14.232   7.312  -1.911  1.00  0.00     0.150 C
HETATM   11  C19 UNL     1     -14.948   6.041   0.080  1.00  0.00     0.031 C
HETATM   12  C4  UNL     1     -12.279   5.064   0.427  1.00  0.00     0.122 C
HETATM   13  N1  UNL     1     -13.441   4.313   0.708  1.00  0.00    -0.393 N
HETATM   14  C20 UNL     1     -14.559   5.066   1.166  1.00  0.00     0.122 C
BRANCH  13  15
HETATM   15  C3  UNL     1     -13.315   3.002   1.197  1.00  0.00     0.057 C
BRANCH  15  16
HETATM   16  C2  UNL     1     -14.384   2.738   2.227  1.00  0.00     0.040 C
HETATM   17  C1  UNL     1     -13.793   2.362   3.571  1.00  0.00     0.010 C
ENDBRANCH  15  16
ENDBRANCH  13  15
ENDBRANCH   1   4
BRANCH   1  18
HETATM   18  C10 UNL     1     -11.415   6.338  -4.452  1.00  0.00     0.109 A
HETATM   19  C11 UNL     1     -11.481   5.422  -5.517  1.00  0.00     0.114 A
HETATM   20  N3  UNL     1     -10.313   4.778  -5.557  1.00  0.00    -0.367 N
HETATM   21  C12 UNL     1      -9.487   5.185  -4.619  1.00  0.00     0.019 A
ATOM     22  H3  UNL     1     -10.086   4.053  -6.237  1.00  0.00     0.165 HD
HETATM   23  C13 UNL     1      -8.100   4.759  -4.286  1.00  0.00     0.069 C
HETATM   24  C14 UNL     1     -10.180   6.180  -3.908  1.00  0.00     0.039 A
BRANCH  24  25
HETATM   25  C15 UNL     1      -9.635   6.902  -2.769  1.00  0.00     0.070 A
HETATM   26  C16 UNL     1      -9.200   8.220  -2.821  1.00  0.00     0.173 A
HETATM   27  O3  UNL     1      -8.772   8.544  -1.626  1.00  0.00    -0.316 OA
HETATM   28  C17 UNL     1      -8.894   7.535  -0.799  1.00  0.00     0.233 A
HETATM   29  N4  UNL     1      -9.431   6.516  -1.510  1.00  0.00    -0.345 N
ATOM     30  H4  UNL     1      -9.647   5.592  -1.137  1.00  0.00     0.167 HD
ENDBRANCH  24  25
ENDBRANCH   1  18
TORSDOF 5
ENDMDL