MODEL 4
REMARK VINA RESULT: -7.828642800      4.085      9.255
REMARK  6 active torsions:
REMARK  status: ('A' for Active; 'I' for Inactive)
REMARK    1  A    between atoms: S1_3  and  C2_4
REMARK    2  A    between atoms: C2_4  and  C3_5
REMARK    3  A    between atoms: C3_5  and  N2_6
REMARK    4  A    between atoms: C7_10  and  C8_11
REMARK    5  A    between atoms: C11_14  and  N3_15
REMARK    6  A    between atoms: N3_15  and  C12_17
ROOT
HETATM    1  N1  UNL     1      -4.455   9.520   0.358  1.00  0.00    -0.184 NA
HETATM    2  C1  UNL     1      -3.669   9.148   1.089  1.00  0.00     0.133 C
HETATM    3  S1  UNL     1      -2.437   8.561   2.195  1.00  0.00    -0.049 SA
ENDROOT
BRANCH   3   4
HETATM    4  C2  UNL     1      -3.243   7.731   3.595  1.00  0.00     0.110 C
BRANCH   4   5
HETATM    5  C3  UNL     1      -3.602   8.792   4.608  1.00  0.00     0.139 C
BRANCH   5   6
HETATM    6  N2  UNL     1      -5.039   9.064   4.606  1.00  0.00    -0.365 N
HETATM    7  C4  UNL     1      -5.561  10.007   5.432  1.00  0.00     0.090 A
HETATM    8  C5  UNL     1      -6.911  10.296   5.461  1.00  0.00     0.018 A
HETATM    9  C6  UNL     1      -7.762   9.607   4.625  1.00  0.00     0.015 A
HETATM   10  C7  UNL     1      -7.256   8.644   3.777  1.00  0.00    -0.010 A
HETATM   11  C21 UNL     1      -5.895   8.410   3.804  1.00  0.00     0.102 A
BRANCH  10  12
HETATM   12  C8  UNL     1      -8.130   7.884   2.868  1.00  0.00    -0.025 A
HETATM   13  C9  UNL     1      -7.858   7.762   1.521  1.00  0.00     0.014 A
HETATM   14  C10 UNL     1      -8.686   7.045   0.669  1.00  0.00     0.030 A
HETATM   15  C11 UNL     1      -9.799   6.445   1.187  1.00  0.00     0.033 A
HETATM   16  C19 UNL     1     -10.113   6.537   2.526  1.00  0.00     0.030 A
HETATM   17  C20 UNL     1      -9.274   7.254   3.340  1.00  0.00     0.014 A
BRANCH  15  18
HETATM   18  N3  UNL     1     -10.682   5.690   0.329  1.00  0.00    -0.340 N
ATOM     19  H3  UNL     1     -10.356   4.867  -0.177  1.00  0.00     0.167 HD
BRANCH  18  20
HETATM   20  C12 UNL     1     -11.917   6.105   0.229  1.00  0.00     0.145 A
HETATM   21  N4  UNL     1     -12.213   7.282  -0.353  1.00  0.00    -0.336 N
HETATM   22  C13 UNL     1     -13.494   7.658  -0.430  1.00  0.00     0.184 A
ATOM     23  H4  UNL     1     -11.474   7.876  -0.727  1.00  0.00     0.168 HD
HETATM   24  N5  UNL     1     -14.474   6.873   0.064  1.00  0.00    -0.331 N
HETATM   25  C14 UNL     1     -14.189   5.697   0.645  1.00  0.00     0.181 A
ATOM     26  H5  UNL     1     -15.445   7.178  -0.004  1.00  0.00     0.168 HD
HETATM   27  C15 UNL     1     -12.885   5.271   0.747  1.00  0.00     0.164 A
HETATM   28  O2  UNL     1     -15.299   4.994   1.109  1.00  0.00    -0.333 OA
HETATM   29  O1  UNL     1     -12.382   4.105   1.304  1.00  0.00    -0.344 OA
HETATM   30  C16 UNL     1     -13.052   2.845   1.367  1.00  0.00     0.178 C
HETATM   31  C17 UNL     1     -14.352   3.024   2.124  1.00  0.00     0.053 C
HETATM   32  C18 UNL     1     -15.437   3.583   1.243  1.00  0.00     0.179 C
ENDBRANCH  18  20
ENDBRANCH  15  18
ENDBRANCH  10  12
ENDBRANCH   5   6
ENDBRANCH   4   5
ENDBRANCH   3   4
TORSDOF 6
ENDMDL