MODEL 4
REMARK VINA RESULT: -7.221729769      3.248      7.886
REMARK  6 active torsions:
REMARK  status: ('A' for Active; 'I' for Inactive)
REMARK    1  A    between atoms: N2_5  and  C4_6
REMARK    2  A    between atoms: C4_6  and  C5_7
REMARK    3  A    between atoms: C5_7  and  N3_8
REMARK    4  A    between atoms: C6_10  and  N4_11
REMARK    5  A    between atoms: C6_10  and  C13_25
REMARK    6  A    between atoms: C8_18  and  C9_19
ROOT
HETATM    1  N3  UNL     1     -12.938   5.487   0.307  1.00  0.00    -0.374 N
ATOM      2  H3  UNL     1     -13.379   5.355  -0.603  1.00  0.00     0.161 HD
HETATM    3  C6  UNL     1     -11.846   5.929   0.037  1.00  0.00     0.113 C
ENDROOT
BRANCH   3   4
HETATM    4  N4  UNL     1     -11.456   6.142  -1.344  1.00  0.00    -0.321 N
HETATM    5  C7  UNL     1     -12.301   6.190  -2.308  1.00  0.00     0.167 A
HETATM    6  N5  UNL     1     -13.624   6.079  -2.381  1.00  0.00    -0.279 N
HETATM    7  S2  UNL     1     -11.919   6.450  -3.990  1.00  0.00    -0.032 SA
HETATM    8  N6  UNL     1     -14.195   6.179  -3.515  1.00  0.00    -0.291 N
ATOM      9  H5  UNL     1     -14.176   5.916  -1.538  1.00  0.00     0.189 HD
HETATM   10  C8  UNL     1     -13.506   6.387  -4.598  1.00  0.00     0.109 A
ATOM     11  H6  UNL     1     -15.210   6.094  -3.575  1.00  0.00     0.187 HD
ATOM     12  H4  UNL     1     -10.466   6.259  -1.558  1.00  0.00     0.169 HD
BRANCH  10  13
HETATM   13  C9  UNL     1     -13.966   6.528  -6.001  1.00  0.00     0.040 A
HETATM   14  C10 UNL     1     -13.393   6.015  -7.109  1.00  0.00     0.022 A
HETATM   15  C11 UNL     1     -13.977   6.271  -8.289  1.00  0.00     0.008 A
HETATM   16  C12 UNL     1     -15.115   7.036  -8.270  1.00  0.00     0.050 A
HETATM   17  S1  UNL     1     -15.317   7.364  -6.604  1.00  0.00    -0.099 SA
ENDBRANCH  10  13
ENDBRANCH   3   4
BRANCH   3  18
HETATM   18  C13 UNL     1     -10.827   6.313   1.016  1.00  0.00     0.008 A
HETATM   19  C14 UNL     1      -9.531   6.655   0.608  1.00  0.00     0.015 A
HETATM   20  C15 UNL     1      -8.570   7.028   1.517  1.00  0.00     0.001 A
HETATM   21  C16 UNL     1      -8.861   7.074   2.856  1.00  0.00     0.000 A
HETATM   22  C17 UNL     1     -10.116   6.745   3.277  1.00  0.00     0.001 A
HETATM   23  C18 UNL     1     -11.088   6.366   2.347  1.00  0.00     0.015 A
ENDBRANCH   3  18
BRANCH   1  24
HETATM   24  C5  UNL     1     -13.896   5.069   1.198  1.00  0.00     0.151 C
BRANCH  24  25
HETATM   25  C4  UNL     1     -13.931   3.550   1.380  1.00  0.00     0.294 C
BRANCH  25  26
HETATM   26  N2  UNL     1     -13.855   3.134   2.733  1.00  0.00     0.119 N
HETATM   27  C3  UNL     1     -14.705   2.041   3.104  1.00  0.00     0.304 C
HETATM   28  C2  UNL     1     -14.068   1.498   4.371  1.00  0.00     0.304 C
HETATM   29  N1  UNL     1     -12.821   2.210   4.546  1.00  0.00     0.114 N
HETATM   30  C1  UNL     1     -12.889   3.145   5.645  1.00  0.00     0.312 C
HETATM   31  C19 UNL     1     -12.559   2.899   3.273  1.00  0.00     0.542 C
ENDBRANCH  25  26
ENDBRANCH  24  25
ENDBRANCH   1  24
TORSDOF 6
ENDMDL