MODEL 1
REMARK VINA RESULT: -7.138163139      0.000      0.000
REMARK  6 active torsions:
REMARK  status: ('A' for Active; 'I' for Inactive)
REMARK    1  A    between atoms: C2_2  and  O1_4
REMARK    2  A    between atoms: O1_4  and  C4_5
REMARK    3  A    between atoms: C4_5  and  C5_6
REMARK    4  A    between atoms: C5_6  and  O2_7
REMARK    5  A    between atoms: C5_6  and  C6_9
REMARK    6  A    between atoms: C6_9  and  N1_10
ROOT
HETATM    1  N1  UNL     1     -14.009   6.573   0.313  1.00  0.00     0.091 N
HETATM    2  C7  UNL     1     -14.290   6.236  -1.034  1.00  0.00     0.275 C
HETATM    3  C8  UNL     1     -13.308   6.609  -2.075  1.00  0.00     0.073 C
HETATM    4  C9  UNL     1     -12.070   7.305  -1.644  1.00  0.00     0.121 C
HETATM    5  C10 UNL     1     -12.211   7.978  -0.288  1.00  0.00     0.073 C
HETATM    6  C11 UNL     1     -12.649   6.839   0.650  1.00  0.00     0.275 C
HETATM    7  C12 UNL     1     -11.690   8.347  -2.660  1.00  0.00     0.213 C
HETATM    8  O3  UNL     1     -10.447   8.185  -3.221  1.00  0.00    -0.349 OA
HETATM    9  C13 UNL     1     -10.191   6.885  -3.575  1.00  0.00     0.204 C
HETATM   10  O4  UNL     1     -10.691   5.939  -2.660  1.00  0.00    -0.199 OA
HETATM   11  O5  UNL     1     -10.955   6.446  -1.495  1.00  0.00    -0.224 OA
HETATM   12  C14 UNL     1     -10.742   6.473  -4.916  1.00  0.00     0.052 C
HETATM   13  C15 UNL     1     -10.026   7.059  -6.088  1.00  0.00     0.014 C
HETATM   14  C16 UNL     1      -8.545   6.719  -6.044  1.00  0.00    -0.013 C
HETATM   15  C17 UNL     1      -8.361   5.223  -6.074  1.00  0.00     0.009 C
HETATM   16  C18 UNL     1      -9.097   4.595  -4.913  1.00  0.00    -0.013 C
HETATM   17  C19 UNL     1     -10.551   4.952  -4.997  1.00  0.00     0.014 C
HETATM   18  C20 UNL     1      -8.471   5.152  -3.635  1.00  0.00     0.014 C
HETATM   19  C21 UNL     1      -8.692   6.635  -3.620  1.00  0.00     0.052 C
HETATM   20  C22 UNL     1      -8.012   7.322  -4.768  1.00  0.00     0.014 C
ENDROOT
BRANCH   1  21
HETATM   21  C6  UNL     1     -14.665   5.631   1.199  1.00  0.00     0.306 C
BRANCH  21  22
HETATM   22  C5  UNL     1     -14.438   4.256   0.633  1.00  0.00     0.170 C
BRANCH  22  23
HETATM   23  C4  UNL     1     -13.403   3.456   1.386  1.00  0.00     0.201 C
BRANCH  23  24
HETATM   24  O1  UNL     1     -13.954   2.375   2.029  1.00  0.00    -0.384 OA
BRANCH  24  25
HETATM   25  C2  UNL     1     -13.991   2.694   3.399  1.00  0.00     0.113 C
HETATM   26  C1  UNL     1     -14.664   1.541   4.106  1.00  0.00     0.039 C
HETATM   27  C3  UNL     1     -12.544   2.745   3.856  1.00  0.00     0.039 C
ENDBRANCH  24  25
ENDBRANCH  23  24
ENDBRANCH  22  23
BRANCH  22  28
HETATM   28  O2  UNL     1     -15.642   3.548   0.506  1.00  0.00    -0.392 OA
ATOM     29  H2  UNL     1     -16.214   3.949  -0.138  1.00  0.00     0.210 HD
ENDBRANCH  22  28
ENDBRANCH  21  22
ENDBRANCH   1  21
TORSDOF 6
ENDMDL