MODEL 3
REMARK VINA RESULT: -8.072238065      0.954      1.201
REMARK  5 active torsions:
REMARK  status: ('A' for Active; 'I' for Inactive)
REMARK    1  A    between atoms: C1_2  and  C2_3
REMARK       I    between atoms: C1_2  and  N4_25
REMARK    2  A    between atoms: C2_3  and  S1_4
REMARK    3  A    between atoms: S1_4  and  C3_5
REMARK    4  A    between atoms: N2_12  and  C7_13
REMARK    5  A    between atoms: C7_13  and  C8_14
ROOT
HETATM    1  C3  UNL     1     -11.633   5.484   1.316  1.00  0.00     0.150 A
HETATM    2  N1  UNL     1     -11.577   4.525   2.257  1.00  0.00    -0.338 N
ATOM      3  H1  UNL     1     -10.741   4.456   2.837  1.00  0.00     0.168 HD
HETATM    4  C4  UNL     1     -12.565   3.666   2.459  1.00  0.00     0.043 A
HETATM    5  C5  UNL     1     -13.673   3.789   1.664  1.00  0.00     0.120 A
HETATM    6  C6  UNL     1     -13.703   4.789   0.700  1.00  0.00     0.278 A
HETATM    7  O2  UNL     1     -14.741   4.847   0.019  1.00  0.00    -0.265 OA
HETATM    8  N2  UNL     1     -12.706   5.664   0.482  1.00  0.00    -0.292 N
HETATM    9  N3  UNL     1     -14.749   2.890   1.854  1.00  0.00    -0.384 N
ATOM     10  H3  UNL     1     -15.453   2.825   1.118  1.00  0.00     0.159 HD
HETATM   11  C14 UNL     1     -14.916   2.056   3.027  1.00  0.00     0.120 C
HETATM   12  C15 UNL     1     -13.929   2.504   4.101  1.00  0.00     0.026 C
HETATM   13  C16 UNL     1     -12.543   2.595   3.483  1.00  0.00     0.061 C
ENDROOT
BRANCH   1  14
HETATM   14  S1  UNL     1     -10.274   6.658   1.226  1.00  0.00    -0.084 SA
BRANCH  14  15
HETATM   15  C2  UNL     1      -9.421   6.781   2.797  1.00  0.00     0.185 C
BRANCH  15  16
HETATM   16  C1  UNL     1      -8.082   7.438   2.637  1.00  0.00     0.229 C
HETATM   17  O1  UNL     1      -7.306   7.099   1.699  1.00  0.00    -0.273 OA
HETATM   18  N4  UNL     1      -7.667   8.452   3.537  1.00  0.00    -0.351 N
HETATM   19  C17 UNL     1      -6.415   9.174   3.513  1.00  0.00     0.126 C
HETATM   20  C20 UNL     1      -8.429   8.945   4.647  1.00  0.00     0.126 C
HETATM   21  C18 UNL     1      -6.124   9.272   5.014  1.00  0.00     0.021 C
HETATM   22  C19 UNL     1      -7.464   9.639   5.573  1.00  0.00     0.021 C
ENDBRANCH  15  16
ENDBRANCH  14  15
ENDBRANCH   1  14
BRANCH   8  23
HETATM   23  C7  UNL     1     -12.670   6.683  -0.507  1.00  0.00     0.139 C
BRANCH  23  24
HETATM   24  C8  UNL     1     -12.062   6.435  -1.835  1.00  0.00     0.004 C
HETATM   25  C9  UNL     1     -11.023   7.391  -2.313  1.00  0.00     0.006 C
HETATM   26  C10 UNL     1     -10.040   6.589  -3.222  1.00  0.00     0.000 C
HETATM   27  C11 UNL     1     -10.893   5.677  -4.047  1.00  0.00     0.000 C
HETATM   28  C12 UNL     1     -12.259   6.262  -4.280  1.00  0.00     0.000 C
HETATM   29  C13 UNL     1     -13.063   6.270  -2.966  1.00  0.00     0.006 C
ENDBRANCH  23  24
ENDBRANCH   8  23
TORSDOF 5
ENDMDL