MODEL 3
REMARK VINA RESULT: -7.869306375      6.221      9.257
REMARK  6 active torsions:
REMARK  status: ('A' for Active; 'I' for Inactive)
REMARK    1  A    between atoms: C2_3  and  C3_4
REMARK    2  A    between atoms: C3_4  and  C4_5
REMARK    3  A    between atoms: C4_5  and  N2_6
REMARK    4  A    between atoms: C9_15  and  C10_16
REMARK    5  A    between atoms: N3_19  and  C13_20
REMARK    6  A    between atoms: C13_20  and  C14_21
ROOT
HETATM    1  N1  UNL     1     -11.746   1.121   5.958  1.00  0.00    -0.194 NA
HETATM    2  C1  UNL     1     -12.524   1.688   5.308  1.00  0.00     0.100 C
HETATM    3  C2  UNL     1     -13.514   2.399   4.513  1.00  0.00     0.178 C
HETATM    4  C5  UNL     1     -14.623   1.488   4.113  1.00  0.00     0.230 C
HETATM    5  O1  UNL     1     -15.547   2.132   3.246  1.00  0.00    -0.344 OA
HETATM    6  C6  UNL     1     -14.980   2.974   2.266  1.00  0.00     0.102 A
HETATM    7  C7  UNL     1     -15.768   3.471   1.235  1.00  0.00     0.040 A
HETATM    8  C8  UNL     1     -15.237   4.307   0.248  1.00  0.00     0.010 A
HETATM    9  C9  UNL     1     -13.905   4.652   0.286  1.00  0.00    -0.051 A
HETATM   10  C22 UNL     1     -13.132   4.157   1.307  1.00  0.00     0.047 A
HETATM   11  C23 UNL     1     -13.656   3.320   2.299  1.00  0.00     0.105 A
HETATM   12  O3  UNL     1     -12.844   2.844   3.308  1.00  0.00    -0.320 OA
ENDROOT
BRANCH   3  13
HETATM   13  C3  UNL     1     -13.897   3.642   5.230  1.00  0.00     0.083 C
BRANCH  13  14
HETATM   14  C4  UNL     1     -14.343   3.501   6.639  1.00  0.00     0.233 C
BRANCH  14  15
HETATM   15  N2  UNL     1     -15.766   3.543   6.774  1.00  0.00    -0.079 N
ATOM     16  H23 UNL     1     -16.055   4.323   7.365  1.00  0.00     0.274 HD
ATOM     17  H22 UNL     1     -16.209   3.825   5.900  1.00  0.00     0.274 HD
ATOM     18  H21 UNL     1     -16.156   2.663   7.114  1.00  0.00     0.274 HD
ENDBRANCH  14  15
ENDBRANCH  13  14
ENDBRANCH   3  13
BRANCH   9  19
HETATM   19  C10 UNL     1     -13.274   5.529  -0.731  1.00  0.00     0.025 C
HETATM   20  C11 UNL     1     -12.242   6.465  -0.171  1.00  0.00     0.029 C
HETATM   21  C12 UNL     1     -11.554   7.095  -1.390  1.00  0.00     0.122 C
HETATM   22  N3  UNL     1     -12.481   7.726  -2.247  1.00  0.00    -0.393 N
HETATM   23  C20 UNL     1     -13.845   7.673  -1.905  1.00  0.00     0.058 C
HETATM   24  C21 UNL     1     -14.344   6.366  -1.383  1.00  0.00     0.054 C
BRANCH  22  25
HETATM   25  C13 UNL     1     -12.230   7.694  -3.643  1.00  0.00     0.127 C
BRANCH  25  26
HETATM   26  C14 UNL     1     -12.470   6.363  -4.283  1.00  0.00     0.016 C
HETATM   27  C15 UNL     1     -13.404   6.608  -5.461  1.00  0.00     0.009 C
HETATM   28  C16 UNL     1     -13.794   5.542  -6.354  1.00  0.00     0.028 C
HETATM   29  C17 UNL     1     -12.980   5.108  -7.532  1.00  0.00     0.186 C
HETATM   30  O2  UNL     1     -11.619   4.756  -7.214  1.00  0.00    -0.315 OA
HETATM   31  C18 UNL     1     -11.344   5.231  -6.040  1.00  0.00    -0.027 C
HETATM   32  C19 UNL     1     -11.111   5.756  -4.761  1.00  0.00     0.118 C
ENDBRANCH  25  26
ENDBRANCH  22  25
ENDBRANCH   9  19
TORSDOF 6
ENDMDL