MODEL 4
REMARK VINA RESULT: -7.458997018      2.655      3.377
REMARK  6 active torsions:
REMARK  status: ('A' for Active; 'I' for Inactive)
REMARK    1  A    between atoms: C2_3  and  C3_4
REMARK    2  A    between atoms: C3_4  and  C4_5
REMARK    3  A    between atoms: C4_5  and  N2_6
REMARK    4  A    between atoms: C7_9  and  C8_10
REMARK    5  A    between atoms: C13_18  and  N4_19
REMARK       I    between atoms: N4_19  and  C14_21
REMARK    6  A    between atoms: C14_21  and  C15_23
ROOT
HETATM    1  N1  UNL     1     -12.225   2.716   5.321  1.00  0.00    -0.197 NA
HETATM    2  C1  UNL     1     -13.223   2.250   4.921  1.00  0.00     0.059 C
HETATM    3  C2  UNL     1     -14.466   1.649   4.437  1.00  0.00     0.129 C
ENDROOT
BRANCH   3   4
HETATM    4  C3  UNL     1     -14.914   2.311   3.144  1.00  0.00     0.058 C
BRANCH   4   5
HETATM    5  C4  UNL     1     -13.785   2.396   2.149  1.00  0.00     0.064 C
BRANCH   5   6
HETATM    6  N2  UNL     1     -13.816   3.501   1.293  1.00  0.00    -0.374 N
HETATM    7  C5  UNL     1     -15.031   3.995   0.800  1.00  0.00     0.064 C
HETATM    8  C6  UNL     1     -15.170   5.472   0.690  1.00  0.00     0.057 C
HETATM    9  C7  UNL     1     -14.013   6.296   1.090  1.00  0.00     0.060 C
HETATM   10  C19 UNL     1     -12.797   5.604   1.589  1.00  0.00     0.033 C
HETATM   11  C20 UNL     1     -12.628   4.217   1.031  1.00  0.00     0.128 C
BRANCH   9  12
HETATM   12  C8  UNL     1     -13.564   7.200  -0.043  1.00  0.00     0.087 A
HETATM   13  N3  UNL     1     -14.481   7.534  -0.951  1.00  0.00    -0.344 N
HETATM   14  C9  UNL     1     -14.179   8.350  -2.016  1.00  0.00     0.054 A
ATOM     15  H3  UNL     1     -15.431   7.176  -0.854  1.00  0.00     0.167 HD
HETATM   16  C10 UNL     1     -14.998   8.771  -3.007  1.00  0.00     0.038 A
HETATM   17  C12 UNL     1     -12.882   8.774  -2.050  1.00  0.00     0.075 A
HETATM   18  C11 UNL     1     -14.449   9.587  -3.958  1.00  0.00     0.053 A
HETATM   19  S1  UNL     1     -12.831   9.745  -3.456  1.00  0.00    -0.096 SA
HETATM   20  C13 UNL     1     -11.932   8.412  -1.085  1.00  0.00     0.128 A
HETATM   21  N5  UNL     1     -12.286   7.610  -0.065  1.00  0.00    -0.330 N
ATOM     22  H5  UNL     1     -11.619   7.328   0.653  1.00  0.00     0.168 HD
BRANCH  20  23
HETATM   23  N4  UNL     1     -10.767   8.861  -1.213  1.00  0.00    -0.310 N
HETATM   24  C14 UNL     1      -9.606   8.319  -1.736  1.00  0.00     0.252 C
HETATM   25  O1  UNL     1      -9.401   8.333  -2.975  1.00  0.00    -0.270 OA
ATOM     26  H4  UNL     1     -10.654   9.812  -0.862  1.00  0.00     0.170 HD
BRANCH  24  27
HETATM   27  C15 UNL     1      -8.539   7.699  -0.902  1.00  0.00     0.213 C
HETATM   28  C16 UNL     1      -7.667   8.771  -0.284  1.00  0.00     0.044 C
HETATM   29  C17 UNL     1      -7.637   8.396   1.179  1.00  0.00     0.029 C
HETATM   30  C18 UNL     1      -8.164   6.994   1.175  1.00  0.00     0.168 C
HETATM   31  O2  UNL     1      -9.112   7.008   0.159  1.00  0.00    -0.376 OA
ENDBRANCH  24  27
ENDBRANCH  20  23
ENDBRANCH   9  12
ENDBRANCH   5   6
ENDBRANCH   4   5
ENDBRANCH   3   4
TORSDOF 6
ENDMDL