MODEL 3
REMARK VINA RESULT: -8.072848085      1.737      2.633
REMARK  5 active torsions:
REMARK  status: ('A' for Active; 'I' for Inactive)
REMARK    1  A    between atoms: C2_2  and  C3_3
REMARK    2  A    between atoms: C4_5  and  N1_6
REMARK    3  A    between atoms: N2_9  and  C7_10
REMARK    4  A    between atoms: C7_10  and  C8_11
REMARK    5  A    between atoms: C14_23  and  C15_24
ROOT
HETATM    1  C3  UNL     1     -10.418   6.338  -0.428  1.00  0.00     0.022 A
HETATM    2  S1  UNL     1      -8.969   7.239  -0.054  1.00  0.00    -0.056 SA
HETATM    3  C4  UNL     1      -8.986   7.092   1.650  1.00  0.00     0.147 A
HETATM    4  N4  UNL     1     -10.062   6.384   1.828  1.00  0.00    -0.335 N
ATOM      5  H4  UNL     1     -10.342   6.129   2.776  1.00  0.00     0.168 HD
HETATM    6  C14 UNL     1     -10.797   5.992   0.813  1.00  0.00     0.058 A
ENDROOT
BRANCH   3   7
HETATM    7  N1  UNL     1      -8.047   7.623   2.582  1.00  0.00    -0.358 N
HETATM    8  C5  UNL     1      -6.652   7.382   2.380  1.00  0.00     0.155 C
HETATM    9  C6  UNL     1      -5.957   8.720   2.677  1.00  0.00     0.292 C
HETATM   10  N2  UNL     1      -6.114   9.045   4.052  1.00  0.00     0.094 N
HETATM   11  C12 UNL     1      -7.360   8.734   4.655  1.00  0.00     0.292 C
HETATM   12  C13 UNL     1      -8.480   8.390   3.708  1.00  0.00     0.155 C
BRANCH  10  13
HETATM   13  C7  UNL     1      -4.979   8.673   4.826  1.00  0.00     0.306 C
BRANCH  13  14
HETATM   14  C8  UNL     1      -3.890   8.034   4.000  1.00  0.00     0.175 C
HETATM   15  C9  UNL     1      -2.571   8.664   4.367  1.00  0.00     0.265 C
HETATM   16  N3  UNL     1      -1.748   7.691   5.056  1.00  0.00    -0.071 N
HETATM   17  C10 UNL     1      -1.485   6.535   4.230  1.00  0.00     0.258 C
ATOM     18  H32 UNL     1      -0.883   8.110   5.397  1.00  0.00     0.277 HD
ATOM     19  H31 UNL     1      -2.158   7.425   5.951  1.00  0.00     0.277 HD
HETATM   20  C11 UNL     1      -2.769   6.090   3.579  1.00  0.00     0.196 C
HETATM   21  O1  UNL     1      -3.830   6.652   4.252  1.00  0.00    -0.381 OA
ENDBRANCH  13  14
ENDBRANCH  10  13
ENDBRANCH   3   7
BRANCH   1  22
HETATM   22  C2  UNL     1     -10.915   6.215  -1.800  1.00  0.00    -0.008 A
HETATM   23  C1  UNL     1      -9.751   6.053  -2.842  1.00  0.00     0.021 C
HETATM   24  C21 UNL     1     -11.714   7.526  -2.170  1.00  0.00     0.015 A
HETATM   25  C22 UNL     1     -12.211   6.113  -2.376  1.00  0.00     0.015 A
ENDBRANCH   1  22
BRANCH   6  26
HETATM   26  C15 UNL     1     -12.012   5.187   1.127  1.00  0.00    -0.008 A
HETATM   27  C16 UNL     1     -11.906   3.885   1.514  1.00  0.00     0.014 A
HETATM   28  C17 UNL     1     -13.046   3.159   1.799  1.00  0.00     0.001 A
HETATM   29  C18 UNL     1     -14.298   3.721   1.701  1.00  0.00     0.000 A
HETATM   30  C19 UNL     1     -14.366   5.051   1.302  1.00  0.00     0.001 A
HETATM   31  C20 UNL     1     -13.240   5.773   1.020  1.00  0.00     0.014 A
ENDBRANCH   6  26
TORSDOF 5
ENDMDL