MODEL 2
REMARK VINA RESULT: -5.865124080      2.785      5.553
REMARK  5 active torsions:
REMARK  status: ('A' for Active; 'I' for Inactive)
REMARK    1  A    between atoms: C4_4  and  C5_5
REMARK    2  A    between atoms: C5_5  and  N1_6
REMARK    3  A    between atoms: C10_11  and  C11_12
REMARK    4  A    between atoms: C11_12  and  O1_13
REMARK    5  A    between atoms: C11_12  and  O2_15
ROOT
HETATM    1  N1  UNL     1      13.306  38.274  76.127  1.00  0.00     0.098 N
HETATM    2  C6  UNL     1      12.291  38.090  77.155  1.00  0.00     0.224 C
HETATM    3  C7  UNL     1      12.846  36.935  77.941  1.00  0.00     0.038 C
HETATM    4  C8  UNL     1      14.347  37.258  77.881  1.00  0.00     0.038 C
HETATM    5  C9  UNL     1      14.454  38.472  77.041  1.00  0.00     0.232 C
HETATM    6  C10 UNL     1      13.970  39.721  77.702  1.00  0.00     0.076 C
HETATM    7  C12 UNL     1      12.516  39.324  78.007  1.00  0.00     0.047 C
ENDROOT
BRANCH   1   8
HETATM    8  C5  UNL     1      13.450  37.151  75.270  1.00  0.00     0.278 C
BRANCH   8   9
HETATM    9  C4  UNL     1      13.076  37.542  73.861  1.00  0.00     0.018 A
HETATM   10  C2  UNL     1      13.596  36.721  72.729  1.00  0.00    -0.012 A
HETATM   11  C1  UNL     1      14.048  37.524  71.529  1.00  0.00     0.010 C
HETATM   12  C3  UNL     1      12.176  36.635  73.099  1.00  0.00     0.011 A
ENDBRANCH   8   9
ENDBRANCH   1   8
BRANCH   6  13
HETATM   13  C11 UNL     1      14.711  40.213  78.882  1.00  0.00     0.260 C
BRANCH  13  14
HETATM   14  O1  UNL     1      16.079  40.297  78.473  1.00  0.00    -0.371 OA
ATOM     15  H1  UNL     1      16.425  41.075  78.893  1.00  0.00     0.212 HD
ENDBRANCH  13  14
BRANCH  13  16
HETATM   16  O2  UNL     1      14.416  41.487  79.308  1.00  0.00    -0.371 OA
ATOM     17  H2  UNL     1      13.523  41.784  79.179  1.00  0.00     0.212 HD
ENDBRANCH  13  16
ENDBRANCH   6  13
TORSDOF 5
ENDMDL