MODEL 5
REMARK VINA RESULT: -6.786414964      1.610      2.535
REMARK  4 active torsions:
REMARK  status: ('A' for Active; 'I' for Inactive)
REMARK    1  A    between atoms: O1_1  and  C1_3
REMARK    2  A    between atoms: N1_6  and  C4_7
REMARK    3  A    between atoms: C4_7  and  C5_8
REMARK    4  A    between atoms: C5_8  and  C6_9
ROOT
HETATM    1  C1  UNL     1      14.197  42.360  81.253  1.00  0.00     0.124 C
HETATM    2  C2  UNL     1      14.954  41.810  80.071  1.00  0.00     0.051 C
HETATM    3  C3  UNL     1      14.075  41.281  78.987  1.00  0.00     0.124 C
HETATM    4  N1  UNL     1      12.934  40.569  79.443  1.00  0.00    -0.393 N
HETATM    5  C12 UNL     1      12.254  41.096  80.559  1.00  0.00     0.060 C
HETATM    6  C13 UNL     1      13.213  41.312  81.724  1.00  0.00     0.076 C
ENDROOT
BRANCH   4   7
HETATM    7  C4  UNL     1      12.244  39.812  78.491  1.00  0.00     0.126 C
BRANCH   7   8
HETATM    8  C5  UNL     1      13.147  38.672  78.011  1.00  0.00     0.058 C
BRANCH   8   9
HETATM    9  C6  UNL     1      12.686  38.187  76.676  1.00  0.00    -0.057 A
HETATM   10  C7  UNL     1      13.529  38.021  75.606  1.00  0.00     0.007 A
HETATM   11  C8  UNL     1      13.082  37.585  74.365  1.00  0.00     0.001 A
HETATM   12  C9  UNL     1      11.739  37.295  74.160  1.00  0.00     0.000 A
HETATM   13  C10 UNL     1      10.891  37.460  75.231  1.00  0.00     0.001 A
HETATM   14  C11 UNL     1      11.338  37.893  76.460  1.00  0.00     0.007 A
ENDBRANCH   8   9
ENDBRANCH   7   8
ENDBRANCH   4   7
BRANCH   1  15
HETATM   15  O1  UNL     1      15.128  42.611  82.282  1.00  0.00    -0.395 OA
ATOM     16  H1  UNL     1      15.444  41.773  82.598  1.00  0.00     0.210 HD
ENDBRANCH   1  15
TORSDOF 4
ENDMDL