MODEL 2
REMARK VINA RESULT: -5.131652261      2.268      3.294
REMARK  5 active torsions:
REMARK  status: ('A' for Active; 'I' for Inactive)
REMARK    1  A    between atoms: C2_2  and  C3_3
REMARK    2  A    between atoms: C8_8  and  C9_9
REMARK    3  A    between atoms: C9_9  and  O1_11
REMARK    4  A    between atoms: C12_14  and  C13_15
REMARK    5  A    between atoms: C13_15  and  N1_16
ROOT
HETATM    1  C3  UNL     1      11.551  36.440  76.104  1.00  0.00     0.023 C
HETATM    2  C4  UNL     1      11.103  35.865  74.750  1.00  0.00     0.005 C
HETATM    3  C5  UNL     1      11.948  34.627  74.413  1.00  0.00     0.011 C
HETATM    4  C6  UNL     1      13.005  35.630  73.931  1.00  0.00    -0.003 C
HETATM    5  C7  UNL     1      13.750  36.158  75.150  1.00  0.00     0.018 C
HETATM    6  C8  UNL     1      12.754  37.188  75.721  1.00  0.00    -0.006 C
HETATM    7  C11 UNL     1      12.334  37.861  74.429  1.00  0.00     0.024 C
HETATM    8  C12 UNL     1      11.893  36.592  73.704  1.00  0.00    -0.008 C
ENDROOT
BRANCH   8   9
HETATM    9  C13 UNL     1      11.317  36.743  72.370  1.00  0.00     0.240 C
BRANCH   9  10
HETATM   10  N1  UNL     1      11.272  38.098  71.945  1.00  0.00    -0.079 N
ATOM     11  H13 UNL     1      12.178  38.399  71.583  1.00  0.00     0.274 HD
ATOM     12  H12 UNL     1      10.714  38.198  71.097  1.00  0.00     0.274 HD
ATOM     13  H11 UNL     1      10.943  38.728  72.676  1.00  0.00     0.274 HD
ENDBRANCH   9  10
ENDBRANCH   8   9
BRANCH   1  14
HETATM   14  C2  UNL     1      10.426  37.215  76.618  1.00  0.00    -0.031 C
HETATM   15  C1  UNL     1       9.193  37.037  76.196  1.00  0.00     0.007 C
ENDBRANCH   1  14
BRANCH   6  16
HETATM   16  C9  UNL     1      13.445  38.017  76.681  1.00  0.00     0.123 C
HETATM   17  C10 UNL     1      14.151  37.387  77.814  1.00  0.00     0.040 C
BRANCH  16  18
HETATM   18  O1  UNL     1      14.347  38.855  75.989  1.00  0.00    -0.395 OA
ATOM     19  H1  UNL     1      14.596  38.430  75.176  1.00  0.00     0.210 HD
ENDBRANCH  16  18
ENDBRANCH   6  16
TORSDOF 5
ENDMDL