MODEL 2
REMARK VINA RESULT: -5.806759576      1.336      2.564
REMARK  5 active torsions:
REMARK  status: ('A' for Active; 'I' for Inactive)
REMARK    1  A    between atoms: N1_1  and  C1_5
REMARK    2  A    between atoms: C1_5  and  C2_6
REMARK    3  A    between atoms: C2_6  and  C3_7
REMARK    4  A    between atoms: C3_7  and  N2_8
REMARK    5  A    between atoms: C11_16  and  O1_17
ROOT
HETATM    1  N2  UNL     1      13.000  39.171  78.198  1.00  0.00    -0.358 N
HETATM    2  C4  UNL     1      11.701  38.628  78.119  1.00  0.00     0.087 C
HETATM    3  C5  UNL     1      11.276  38.603  76.664  1.00  0.00     0.030 C
HETATM    4  C6  UNL     1      12.269  37.798  75.833  1.00  0.00    -0.008 C
HETATM    5  C7  UNL     1      12.337  36.387  76.357  1.00  0.00     0.009 C
HETATM    6  C8  UNL     1      12.783  36.452  77.799  1.00  0.00    -0.008 C
HETATM    7  C9  UNL     1      11.730  37.187  78.577  1.00  0.00     0.030 C
HETATM    8  C10 UNL     1      14.140  37.108  77.898  1.00  0.00     0.065 C
HETATM    9  C11 UNL     1      13.990  38.533  77.407  1.00  0.00     0.134 C
HETATM   10  C12 UNL     1      13.622  38.449  75.932  1.00  0.00     0.065 C
ENDROOT
BRANCH   1  11
HETATM   11  C3  UNL     1      13.144  40.560  78.379  1.00  0.00     0.063 C
BRANCH  11  12
HETATM   12  C2  UNL     1      13.172  41.048  79.783  1.00  0.00     0.071 C
BRANCH  12  13
HETATM   13  C1  UNL     1      14.434  41.825  80.120  1.00  0.00     0.234 C
BRANCH  13  14
HETATM   14  N1  UNL     1      15.598  41.106  79.729  1.00  0.00    -0.079 N
ATOM     15  H13 UNL     1      16.243  40.982  80.511  1.00  0.00     0.274 HD
ATOM     16  H12 UNL     1      15.389  40.125  79.544  1.00  0.00     0.274 HD
ATOM     17  H11 UNL     1      16.054  41.550  78.933  1.00  0.00     0.274 HD
ENDBRANCH  13  14
ENDBRANCH  12  13
ENDBRANCH  11  12
ENDBRANCH   1  11
BRANCH   9  18
HETATM   18  O1  UNL     1      15.184  39.234  77.485  1.00  0.00    -0.371 OA
ATOM     19  H1  UNL     1      15.380  39.637  76.647  1.00  0.00     0.212 HD
ENDBRANCH   9  18
TORSDOF 5
ENDMDL