MODEL 1
REMARK VINA RESULT: -6.520993454      0.000      0.000
REMARK  4 active torsions:
REMARK  status: ('A' for Active; 'I' for Inactive)
REMARK    1  A    between atoms: O1_1  and  C1_3
REMARK    2  A    between atoms: C1_3  and  C2_4
REMARK    3  A    between atoms: C2_4  and  N1_5
REMARK    4  A    between atoms: N1_5  and  C3_8
ROOT
HETATM    1  C3  UNL     1      11.375  38.547  77.747  1.00  0.00     0.194 C
HETATM    2  C4  UNL     1      11.909  37.151  77.586  1.00  0.00     0.038 C
HETATM    3  C5  UNL     1      13.168  36.917  76.914  1.00  0.00    -0.012 C
HETATM    4  C6  UNL     1      13.833  38.014  76.150  1.00  0.00     0.009 C
HETATM    5  C7  UNL     1      14.841  38.191  77.225  1.00  0.00    -0.013 C
HETATM    6  C8  UNL     1      14.412  36.865  77.783  1.00  0.00     0.009 C
HETATM    7  C9  UNL     1      14.667  39.370  78.133  1.00  0.00     0.014 C
HETATM    8  C10 UNL     1      13.347  40.023  78.000  1.00  0.00     0.018 A
HETATM    9  C11 UNL     1      12.948  41.113  78.843  1.00  0.00    -0.025 A
HETATM   10  C12 UNL     1      12.027  40.415  79.425  1.00  0.00    -0.023 A
HETATM   11  C13 UNL     1      12.309  39.247  78.685  1.00  0.00     0.046 A
ENDROOT
BRANCH   1  12
HETATM   12  N1  UNL     1      10.071  38.460  78.344  1.00  0.00    -0.068 N
ATOM     13  H12 UNL     1       9.601  39.365  78.300  1.00  0.00     0.277 HD
ATOM     14  H11 UNL     1      10.152  38.352  79.354  1.00  0.00     0.277 HD
BRANCH  12  15
HETATM   15  C2  UNL     1       9.232  37.440  77.802  1.00  0.00     0.258 C
BRANCH  15  16
HETATM   16  C1  UNL     1       7.975  37.244  78.646  1.00  0.00     0.191 C
BRANCH  16  17
HETATM   17  O1  UNL     1       8.337  37.592  79.958  1.00  0.00    -0.399 OA
ATOM     18  H1  UNL     1       7.535  37.876  80.380  1.00  0.00     0.209 HD
ENDBRANCH  16  17
ENDBRANCH  15  16
ENDBRANCH  12  15
ENDBRANCH   1  12
TORSDOF 4
ENDMDL