MODEL 1
REMARK VINA RESULT: -6.344106475      0.000      0.000
REMARK  5 active torsions:
REMARK  status: ('A' for Active; 'I' for Inactive)
REMARK    1  A    between atoms: N1_1  and  C1_5
REMARK    2  A    between atoms: C1_5  and  C2_6
REMARK    3  A    between atoms: N2_9  and  C5_10
REMARK    4  A    between atoms: C5_10  and  C6_11
REMARK    5  A    between atoms: C12_17  and  N3_18
ROOT
HETATM    1  C2  UNL     1      13.520  41.458  79.933  1.00  0.00     0.073 C
HETATM    2  C3  UNL     1      14.977  41.193  79.586  1.00  0.00     0.040 C
HETATM    3  C4  UNL     1      14.823  40.652  78.159  1.00  0.00     0.276 C
HETATM    4  N2  UNL     1      13.578  39.935  78.152  1.00  0.00     0.123 N
HETATM    5  C12 UNL     1      12.844  40.247  79.338  1.00  0.00     0.423 C
ENDROOT
BRANCH   4   6
HETATM    6  C5  UNL     1      13.659  38.532  77.998  1.00  0.00     0.309 C
BRANCH   6   7
HETATM    7  C6  UNL     1      13.025  37.937  76.808  1.00  0.00    -0.056 C
HETATM    8  C7  UNL     1      13.567  38.073  75.619  1.00  0.00    -0.022 C
HETATM    9  C8  UNL     1      12.844  37.425  74.456  1.00  0.00     0.027 C
HETATM   10  C9  UNL     1      11.380  37.777  74.643  1.00  0.00     0.004 C
HETATM   11  C10 UNL     1      10.918  36.987  75.845  1.00  0.00     0.005 C
HETATM   12  C11 UNL     1      11.756  37.188  77.051  1.00  0.00     0.035 C
ENDBRANCH   6   7
ENDBRANCH   4   6
BRANCH   5  13
HETATM   13  N3  UNL     1      11.460  40.516  78.992  1.00  0.00    -0.047 N
ATOM     14  H33 UNL     1      10.832  39.838  79.421  1.00  0.00     0.276 HD
ATOM     15  H32 UNL     1      11.121  41.361  79.452  1.00  0.00     0.276 HD
ATOM     16  H31 UNL     1      11.323  40.563  77.983  1.00  0.00     0.276 HD
ENDBRANCH   5  13
BRANCH   1  17
HETATM   17  C1  UNL     1      13.323  41.437  81.439  1.00  0.00     0.238 C
BRANCH  17  18
HETATM   18  N1  UNL     1      14.627  41.352  82.052  1.00  0.00    -0.079 N
ATOM     19  H13 UNL     1      15.230  40.661  81.606  1.00  0.00     0.274 HD
ATOM     20  H12 UNL     1      15.205  42.172  81.870  1.00  0.00     0.274 HD
ATOM     21  H11 UNL     1      14.491  41.176  83.048  1.00  0.00     0.274 HD
ENDBRANCH  17  18
ENDBRANCH   1  17
TORSDOF 5
ENDMDL