MODEL 3
REMARK VINA RESULT: -5.703497631      0.384      1.925
REMARK  4 active torsions:
REMARK  status: ('A' for Active; 'I' for Inactive)
REMARK    1  A    between atoms: N1_2  and  C2_3
REMARK    2  A    between atoms: N1_2  and  C4_9
REMARK    3  A    between atoms: C2_3  and  C3_4
REMARK    4  A    between atoms: C3_4  and  N2_5
ROOT
HETATM    1  C4  UNL     1      13.320  39.385  77.809  1.00  0.00     0.160 C
HETATM    2  C5  UNL     1      11.962  38.764  77.796  1.00  0.00     0.046 C
HETATM    3  C6  UNL     1      12.040  37.365  77.176  1.00  0.00    -0.011 C
HETATM    4  C7  UNL     1      12.551  37.446  75.737  1.00  0.00     0.009 C
HETATM    5  C8  UNL     1      13.925  38.091  75.798  1.00  0.00    -0.011 C
HETATM    6  C9  UNL     1      14.811  37.199  76.599  1.00  0.00     0.009 C
HETATM    7  C10 UNL     1      14.314  37.070  78.018  1.00  0.00    -0.011 C
HETATM    8  C11 UNL     1      12.913  36.501  78.021  1.00  0.00     0.009 C
HETATM    9  C12 UNL     1      14.247  38.437  78.595  1.00  0.00     0.046 C
HETATM   10  C13 UNL     1      13.745  39.483  76.381  1.00  0.00     0.046 C
ENDROOT
BRANCH   1  11
HETATM   11  N1  UNL     1      13.388  40.597  78.577  1.00  0.00     0.095 N
HETATM   12  C1  UNL     1      12.250  40.589  79.540  1.00  0.00     0.310 C
BRANCH  11  13
HETATM   13  C2  UNL     1      14.569  40.947  79.243  1.00  0.00     0.300 C
BRANCH  13  14
HETATM   14  C3  UNL     1      14.516  42.162  80.086  1.00  0.00     0.259 C
BRANCH  14  15
HETATM   15  N2  UNL     1      15.263  41.915  81.364  1.00  0.00    -0.078 N
ATOM     16  H23 UNL     1      14.757  41.289  81.992  1.00  0.00     0.274 HD
ATOM     17  H22 UNL     1      16.092  41.338  81.222  1.00  0.00     0.274 HD
ATOM     18  H21 UNL     1      15.485  42.808  81.805  1.00  0.00     0.274 HD
ENDBRANCH  14  15
ENDBRANCH  13  14
ENDBRANCH  11  13
ENDBRANCH   1  11
TORSDOF 4
ENDMDL