MODEL 4
REMARK VINA RESULT: -5.988907990      0.957      1.734
REMARK  6 active torsions:
REMARK  status: ('A' for Active; 'I' for Inactive)
REMARK    1  A    between atoms: N1_1  and  S1_4
REMARK    2  A    between atoms: S1_4  and  C1_6
REMARK    3  A    between atoms: S1_4  and  N2_14
REMARK    4  A    between atoms: C1_6  and  C2_7
REMARK    5  A    between atoms: C2_7  and  C3_8
REMARK    6  A    between atoms: N2_14  and  O2_16
ROOT
HETATM    1  S1  UNL     1      14.097  41.502  80.804  1.00  0.00     0.122 S
HETATM    2  O1  UNL     1      14.021  43.007  80.870  1.00  0.00    -0.227 OA
ENDROOT
BRANCH   1   3
HETATM    3  N1  UNL     1      15.362  41.052  79.734  1.00  0.00    -0.344 N
ATOM      4  H12 UNL     1      15.467  41.400  78.781  1.00  0.00     0.167 HD
ATOM      5  H11 UNL     1      15.977  40.389  80.206  1.00  0.00     0.167 HD
ENDBRANCH   1   3
BRANCH   1   6
HETATM    6  C1  UNL     1      12.528  40.890  80.290  1.00  0.00     0.141 C
BRANCH   6   7
HETATM    7  C2  UNL     1      12.527  40.590  78.806  1.00  0.00     0.020 C
BRANCH   7   8
HETATM    8  C3  UNL     1      12.371  39.102  78.563  1.00  0.00    -0.014 C
HETATM    9  C4  UNL     1      13.430  38.712  77.557  1.00  0.00     0.005 C
HETATM   10  C5  UNL     1      13.248  37.257  77.274  1.00  0.00     0.000 C
HETATM   11  C6  UNL     1      11.894  36.914  76.731  1.00  0.00     0.000 C
HETATM   12  C7  UNL     1      10.749  37.561  77.407  1.00  0.00     0.000 C
HETATM   13  C8  UNL     1      10.994  38.849  78.078  1.00  0.00     0.005 C
ENDBRANCH   7   8
ENDBRANCH   6   7
ENDBRANCH   1   6
BRANCH   1  14
HETATM   14  N2  UNL     1      14.435  40.977  82.244  1.00  0.00    -0.211 N
ATOM     15  H2  UNL     1      13.838  40.302  82.721  1.00  0.00     0.205 HD
BRANCH  14  16
HETATM   16  O2  UNL     1      15.583  41.475  82.835  1.00  0.00    -0.281 OA
ATOM     17  H2  UNL     1      15.993  42.220  82.410  1.00  0.00     0.245 HD
ENDBRANCH  14  16
ENDBRANCH   1  14
TORSDOF 6
ENDMDL