MODEL 1
REMARK VINA RESULT: -7.721080980      0.000      0.000
REMARK  1 active torsions:
REMARK  status: ('A' for Active; 'I' for Inactive)
REMARK    1  A    between atoms: C2_2  and  C4_4
ROOT
HETATM    1  C4  UNL     1     -21.053 -41.978  24.307  1.00  0.00     0.013 C
HETATM    2  C5  UNL     1     -20.695 -40.709  25.068  1.00  0.00     0.027 C
HETATM    3  C6  UNL     1     -19.449 -41.246  25.801  1.00  0.00     0.123 C
HETATM    4  N1  UNL     1     -18.881 -42.106  24.890  1.00  0.00    -0.387 N
HETATM    5  C7  UNL     1     -17.881 -43.000  25.184  1.00  0.00     0.074 C
HETATM    6  C8  UNL     1     -16.672 -42.828  24.360  1.00  0.00     0.063 A
HETATM    7  C9  UNL     1     -16.762 -43.508  22.978  1.00  0.00     0.064 A
HETATM    8  C10 UNL     1     -16.717 -42.057  23.147  1.00  0.00     0.113 A
HETATM    9  C11 UNL     1     -17.769 -41.094  22.898  1.00  0.00     0.044 C
HETATM   10  C12 UNL     1     -19.163 -41.614  22.636  1.00  0.00     0.029 C
HETATM   11  C13 UNL     1     -19.742 -42.382  23.770  1.00  0.00     0.088 C
HETATM   12  O1  UNL     1     -15.414 -41.501  23.045  1.00  0.00    -0.228 OA
HETATM   13  O2  UNL     1     -14.929 -41.421  24.240  1.00  0.00    -0.228 OA
HETATM   14  C14 UNL     1     -15.313 -42.595  24.912  1.00  0.00     0.112 C
HETATM   15  C15 UNL     1     -15.101 -42.488  26.356  1.00  0.00     0.042 C
HETATM   16  C16 UNL     1     -14.526 -43.888  26.362  1.00  0.00     0.006 C
HETATM   17  C17 UNL     1     -14.334 -43.725  24.847  1.00  0.00     0.042 C
ENDROOT
BRANCH   1  18
HETATM   18  C2  UNL     1     -22.243 -41.925  23.492  1.00  0.00    -0.017 C
HETATM   19  C1  UNL     1     -22.684 -40.477  23.317  1.00  0.00     0.010 C
HETATM   20  C3  UNL     1     -23.434 -42.730  23.840  1.00  0.00     0.010 C
ENDBRANCH   1  18
TORSDOF 1
ENDMDL