MODEL 2
REMARK VINA RESULT: -7.629249393      1.693      2.469
REMARK  0 active torsions:
REMARK  status: ('A' for Active; 'I' for Inactive)
ROOT
HETATM    1  O1  UNL     1     -24.656 -38.890  23.284  1.00  0.00    -0.262 OA
HETATM    2  C1  UNL     1     -23.791 -39.759  23.076  1.00  0.00     0.296 A
HETATM    3  O2  UNL     1     -23.690 -41.052  22.377  1.00  0.00    -0.296 OA
HETATM    4  C2  UNL     1     -22.590 -40.482  23.061  1.00  0.00     0.166 A
HETATM    5  C3  UNL     1     -22.099 -41.133  24.336  1.00  0.00     0.060 C
HETATM    6  C4  UNL     1     -20.758 -41.726  23.996  1.00  0.00    -0.032 C
HETATM    7  C5  UNL     1     -20.874 -43.231  24.142  1.00  0.00     0.010 C
HETATM    8  C6  UNL     1     -19.868 -43.652  25.171  1.00  0.00     0.006 C
HETATM    9  C7  UNL     1     -18.845 -42.550  25.238  1.00  0.00    -0.010 C
HETATM   10  C8  UNL     1     -18.281 -42.345  26.607  1.00  0.00     0.005 C
HETATM   11  C9  UNL     1     -19.327 -41.609  27.376  1.00  0.00     0.001 C
HETATM   12  C10 UNL     1     -20.347 -41.129  26.354  1.00  0.00     0.006 C
HETATM   13  C11 UNL     1     -19.714 -41.317  25.007  1.00  0.00    -0.002 C
HETATM   14  C12 UNL     1     -20.427 -41.300  22.598  1.00  0.00     0.023 C
HETATM   15  C13 UNL     1     -21.401 -40.214  22.210  1.00  0.00     0.006 C
HETATM   16  C14 UNL     1     -20.761 -38.873  22.475  1.00  0.00     0.039 C
HETATM   17  C15 UNL     1     -19.770 -38.623  21.352  1.00  0.00     0.168 C
HETATM   18  O3  UNL     1     -20.528 -38.219  20.244  1.00  0.00    -0.391 OA
HETATM   19  C16 UNL     1     -21.727 -38.884  20.157  1.00  0.00     0.168 C
HETATM   20  C17 UNL     1     -21.704 -40.273  20.723  1.00  0.00     0.039 C
ENDROOT
TORSDOF 0
ENDMDL