MODEL 5
REMARK VINA RESULT: -6.879426446      1.658      2.879
REMARK  0 active torsions:
REMARK  status: ('A' for Active; 'I' for Inactive)
ROOT
HETATM    1  C1  UNL     1     -21.589 -41.884  20.591  1.00  0.00     0.314 C
HETATM    2  N1  UNL     1     -21.080 -40.632  20.993  1.00  0.00     0.118 N
HETATM    3  C2  UNL     1     -21.556 -40.131  22.250  1.00  0.00     0.361 C
HETATM    4  C3  UNL     1     -20.775 -38.810  22.333  1.00  0.00     0.066 C
HETATM    5  C4  UNL     1     -19.442 -39.274  21.733  1.00  0.00     0.041 C
HETATM    6  C5  UNL     1     -19.626 -40.642  21.251  1.00  0.00     0.237 C
HETATM    7  C6  UNL     1     -19.380 -41.766  22.143  1.00  0.00     0.109 C
HETATM    8  C7  UNL     1     -20.154 -41.588  23.416  1.00  0.00     0.272 C
HETATM    9  O1  UNL     1     -21.269 -40.853  23.349  1.00  0.00    -0.326 OA
HETATM   10  O2  UNL     1     -18.990 -40.977  23.942  1.00  0.00    -0.349 OA
HETATM   11  C8  UNL     1     -18.275 -41.815  23.107  1.00  0.00     0.074 C
HETATM   12  C9  UNL     1     -18.193 -43.197  23.760  1.00  0.00     0.039 C
HETATM   13  C10 UNL     1     -16.811 -43.760  23.738  1.00  0.00     0.012 C
HETATM   14  C11 UNL     1     -15.795 -42.867  24.383  1.00  0.00    -0.040 C
HETATM   15  C12 UNL     1     -15.947 -42.832  25.887  1.00  0.00     0.009 C
HETATM   16  C13 UNL     1     -14.568 -42.311  26.304  1.00  0.00     0.001 C
HETATM   17  C14 UNL     1     -13.664 -43.214  25.483  1.00  0.00     0.001 C
HETATM   18  C15 UNL     1     -14.416 -43.435  24.200  1.00  0.00     0.009 C
HETATM   19  C16 UNL     1     -15.951 -41.478  23.850  1.00  0.00     0.012 C
HETATM   20  C17 UNL     1     -16.916 -41.428  22.689  1.00  0.00     0.039 C
ENDROOT
TORSDOF 0
ENDMDL