MODEL 2
REMARK VINA RESULT: -7.143389715     11.850     14.293
REMARK  0 active torsions:
REMARK  status: ('A' for Active; 'I' for Inactive)
ROOT
HETATM    1  C1  UNL     1     -21.618 -45.521  25.825  1.00  0.00     0.002 C
HETATM    2  C2  UNL     1     -22.659 -44.818  25.029  1.00  0.00     0.001 C
HETATM    3  C3  UNL     1     -22.302 -43.529  24.403  1.00  0.00     0.008 C
HETATM    4  C4  UNL     1     -22.270 -42.316  25.242  1.00  0.00     0.026 C
HETATM    5  C5  UNL     1     -23.020 -42.465  26.566  1.00  0.00     0.164 C
HETATM    6  O1  UNL     1     -22.268 -42.910  27.591  1.00  0.00    -0.377 OA
HETATM    7  C6  UNL     1     -21.095 -43.564  27.347  1.00  0.00     0.127 C
HETATM    8  C7  UNL     1     -21.395 -45.032  27.203  1.00  0.00     0.032 C
HETATM    9  C8  UNL     1     -20.251 -43.090  26.262  1.00  0.00     0.023 C
HETATM   10  C9  UNL     1     -18.914 -42.507  26.582  1.00  0.00     0.008 C
HETATM   11  C10 UNL     1     -18.592 -41.836  25.256  1.00  0.00     0.001 C
HETATM   12  C11 UNL     1     -19.939 -41.542  24.579  1.00  0.00     0.010 C
HETATM   13  C12 UNL     1     -20.907 -41.844  25.645  1.00  0.00    -0.028 C
HETATM   14  C13 UNL     1     -20.994 -40.722  26.631  1.00  0.00     0.013 C
HETATM   15  C14 UNL     1     -22.354 -40.068  26.679  1.00  0.00     0.045 C
HETATM   16  C15 UNL     1     -23.461 -41.032  26.930  1.00  0.00     0.124 C
HETATM   17  C16 UNL     1     -24.629 -40.725  25.982  1.00  0.00     0.073 C
HETATM   18  C17 UNL     1     -25.634 -40.147  26.949  1.00  0.00     0.213 C
HETATM   19  O2  UNL     1     -24.997 -40.110  28.161  1.00  0.00    -0.240 OA
HETATM   20  O3  UNL     1     -24.032 -40.969  28.167  1.00  0.00    -0.227 OA
ENDROOT
TORSDOF 0
ENDMDL