MODEL 2
REMARK VINA RESULT: -6.895318883      2.466      4.392
REMARK  0 active torsions:
REMARK  status: ('A' for Active; 'I' for Inactive)
ROOT
HETATM    1  C1  UNL     1     -23.950 -44.022  22.298  1.00  0.00     0.148 C
HETATM    2  N1  UNL     1     -23.295 -43.647  23.500  1.00  0.00    -0.398 N
HETATM    3  C2  UNL     1     -24.017 -43.750  24.687  1.00  0.00     0.057 C
HETATM    4  C3  UNL     1     -24.485 -42.504  25.336  1.00  0.00     0.044 C
HETATM    5  C4  UNL     1     -23.615 -42.246  26.553  1.00  0.00     0.005 C
HETATM    6  C5  UNL     1     -23.596 -40.836  26.995  1.00  0.00     0.001 C
HETATM    7  C6  UNL     1     -22.450 -40.009  26.536  1.00  0.00     0.007 C
HETATM    8  C7  UNL     1     -21.136 -40.718  26.471  1.00  0.00     0.081 C
HETATM    9  C8  UNL     1     -20.743 -40.891  25.068  1.00  0.00     0.154 C
HETATM   10  O1  UNL     1     -21.015 -39.911  24.361  1.00  0.00    -0.295 OA
HETATM   11  C9  UNL     1     -20.094 -42.037  24.435  1.00  0.00     0.090 C
HETATM   12  C10 UNL     1     -19.363 -42.860  25.514  1.00  0.00     0.039 C
HETATM   13  C11 UNL     1     -18.141 -42.172  26.013  1.00  0.00     0.003 C
HETATM   14  C12 UNL     1     -16.889 -42.771  25.354  1.00  0.00     0.002 C
HETATM   15  C13 UNL     1     -16.761 -42.118  24.011  1.00  0.00     0.019 C
HETATM   16  C14 UNL     1     -18.033 -42.411  23.201  1.00  0.00     0.117 C
HETATM   17  N2  UNL     1     -19.077 -41.518  23.552  1.00  0.00    -0.402 N
HETATM   18  C15 UNL     1     -19.502 -40.729  22.468  1.00  0.00     0.144 C
HETATM   19  C16 UNL     1     -20.964 -42.999  23.705  1.00  0.00     0.058 C
HETATM   20  C17 UNL     1     -22.353 -42.565  23.381  1.00  0.00     0.124 C
ENDROOT
TORSDOF 0
ENDMDL