MODEL 3
REMARK VINA RESULT: -6.630292680      3.120      6.547
REMARK  0 active torsions:
REMARK  status: ('A' for Active; 'I' for Inactive)
ROOT
HETATM    1  O1  UNL     1     -23.435 -41.985  22.792  1.00  0.00    -0.272 OA
HETATM    2  C1  UNL     1     -22.583 -42.031  23.686  1.00  0.00     0.234 C
HETATM    3  C2  UNL     1     -21.346 -42.809  23.316  1.00  0.00     0.177 C
HETATM    4  S1  UNL     1     -20.669 -43.408  24.903  1.00  0.00    -0.149 SA
HETATM    5  C3  UNL     1     -19.785 -42.098  25.786  1.00  0.00     0.015 C
HETATM    6  C4  UNL     1     -19.447 -42.669  27.158  1.00  0.00     0.021 C
HETATM    7  C5  UNL     1     -18.321 -41.931  27.822  1.00  0.00     0.002 C
HETATM    8  C6  UNL     1     -17.066 -42.781  27.676  1.00  0.00     0.000 C
HETATM    9  C7  UNL     1     -16.123 -42.186  26.685  1.00  0.00     0.000 C
HETATM   10  C8  UNL     1     -16.240 -42.774  25.307  1.00  0.00     0.000 C
HETATM   11  C9  UNL     1     -17.675 -43.023  24.896  1.00  0.00     0.002 C
HETATM   12  C10 UNL     1     -18.521 -41.790  25.004  1.00  0.00     0.021 C
HETATM   13  C11 UNL     1     -20.606 -40.864  26.011  1.00  0.00     0.097 C
HETATM   14  C12 UNL     1     -22.070 -41.113  26.022  1.00  0.00     0.083 C
HETATM   15  N1  UNL     1     -22.590 -41.099  27.205  1.00  0.00    -0.379 N
ATOM     16  H1  UNL     1     -22.032 -40.932  28.042  1.00  0.00     0.160 HD
HETATM   17  C13 UNL     1     -24.020 -41.337  27.267  1.00  0.00     0.122 C
HETATM   18  C14 UNL     1     -24.673 -40.390  26.287  1.00  0.00     0.040 C
HETATM   19  C15 UNL     1     -24.304 -40.875  24.890  1.00  0.00     0.135 C
HETATM   20  N2  UNL     1     -22.910 -41.352  24.896  1.00  0.00    -0.307 N
ENDROOT
TORSDOF 0
ENDMDL