MODEL 2
REMARK VINA RESULT: -7.771010730      5.421      9.740
REMARK  2 active torsions:
REMARK  status: ('A' for Active; 'I' for Inactive)
REMARK    1  A    between atoms: C1_2  and  O2_3
REMARK       I    between atoms: C1_2  and  N1_15
REMARK    2  A    between atoms: O2_3  and  C2_4
ROOT
HETATM    1  C2  UNL     1     -19.705 -42.219  24.594  1.00  0.00     0.077 C
HETATM    2  C3  UNL     1     -20.775 -43.233  24.377  1.00  0.00     0.039 C
HETATM    3  C4  UNL     1     -21.048 -44.072  25.601  1.00  0.00     0.007 C
HETATM    4  C5  UNL     1     -22.454 -43.846  26.084  1.00  0.00     0.027 C
HETATM    5  C6  UNL     1     -22.698 -42.555  26.727  1.00  0.00    -0.028 C
HETATM    6  C7  UNL     1     -22.231 -41.325  26.641  1.00  0.00     0.001 C
HETATM    7  C8  UNL     1     -21.210 -40.614  25.837  1.00  0.00     0.146 C
HETATM    8  C9  UNL     1     -19.948 -41.395  25.870  1.00  0.00     0.074 C
HETATM    9  O3  UNL     1     -21.679 -40.405  24.543  1.00  0.00    -0.382 OA
HETATM   10  C10 UNL     1     -20.657 -40.102  23.681  1.00  0.00     0.171 C
HETATM   11  C11 UNL     1     -19.665 -41.209  23.472  1.00  0.00     0.065 C
ENDROOT
BRANCH   1  12
HETATM   12  O2  UNL     1     -18.503 -42.846  24.843  1.00  0.00    -0.292 OA
BRANCH  12  13
HETATM   13  C1  UNL     1     -17.264 -42.670  24.326  1.00  0.00     0.363 C
HETATM   14  O1  UNL     1     -17.218 -42.497  23.063  1.00  0.00    -0.238 OA
HETATM   15  N1  UNL     1     -16.080 -42.670  25.109  1.00  0.00    -0.328 N
HETATM   16  C12 UNL     1     -16.161 -42.867  26.531  1.00  0.00     0.128 C
HETATM   17  C16 UNL     1     -14.813 -42.475  24.472  1.00  0.00     0.128 C
HETATM   18  C13 UNL     1     -14.992 -43.570  27.125  1.00  0.00     0.020 C
HETATM   19  C14 UNL     1     -14.185 -44.293  26.065  1.00  0.00     0.003 C
HETATM   20  C15 UNL     1     -13.685 -43.237  25.100  1.00  0.00     0.020 C
ENDBRANCH  12  13
ENDBRANCH   1  12
TORSDOF 2
ENDMDL