MODEL 1
REMARK VINA RESULT: -7.947561162      0.000      0.000
REMARK  1 active torsions:
REMARK  status: ('A' for Active; 'I' for Inactive)
REMARK    1  A    between atoms: C2_2  and  C4_4
ROOT
HETATM    1  C4  UNL     1     -20.542 -42.201  25.435  1.00  0.00     0.018 C
HETATM    2  C5  UNL     1     -20.101 -43.641  25.373  1.00  0.00     0.010 C
HETATM    3  C6  UNL     1     -18.954 -43.538  24.357  1.00  0.00     0.011 C
HETATM    4  C7  UNL     1     -18.474 -42.112  24.420  1.00  0.00    -0.034 C
HETATM    5  C8  UNL     1     -18.790 -41.298  23.213  1.00  0.00     0.016 C
HETATM    6  C9  UNL     1     -17.077 -41.958  24.873  1.00  0.00     0.023 C
HETATM    7  C10 UNL     1     -16.059 -42.764  24.155  1.00  0.00     0.016 C
HETATM    8  C11 UNL     1     -14.749 -42.594  24.929  1.00  0.00     0.103 C
HETATM    9  C12 UNL     1     -14.935 -42.798  26.402  1.00  0.00     0.282 C
HETATM   10  O1  UNL     1     -15.212 -44.137  26.620  1.00  0.00    -0.331 OA
HETATM   11  C13 UNL     1     -14.208 -44.668  27.392  1.00  0.00     0.200 C
HETATM   12  C14 UNL     1     -13.053 -43.712  27.110  1.00  0.00     0.200 C
HETATM   13  O2  UNL     1     -13.760 -42.489  27.041  1.00  0.00    -0.331 OA
HETATM   14  O3  UNL     1     -16.012 -42.070  26.920  1.00  0.00    -0.327 OA
HETATM   15  C15 UNL     1     -17.150 -42.516  26.303  1.00  0.00     0.132 C
HETATM   16  C16 UNL     1     -18.421 -41.916  26.784  1.00  0.00     0.038 C
HETATM   17  C17 UNL     1     -19.248 -41.488  25.600  1.00  0.00     0.004 C
ENDROOT
BRANCH   1  18
HETATM   18  C2  UNL     1     -21.610 -41.893  26.359  1.00  0.00    -0.089 C
HETATM   19  C1  UNL     1     -22.303 -42.836  26.940  1.00  0.00     0.014 C
HETATM   20  C3  UNL     1     -21.926 -40.470  26.649  1.00  0.00     0.043 C
ENDBRANCH   1  18
TORSDOF 1
ENDMDL