MODEL 4
REMARK VINA RESULT: -6.527890217      1.411      1.984
REMARK  0 active torsions:
REMARK  status: ('A' for Active; 'I' for Inactive)
ROOT
HETATM    1  C1  UNL     1     -20.971 -44.868  25.306  1.00  0.00     0.013 C
HETATM    2  C2  UNL     1     -21.361 -43.442  25.632  1.00  0.00     0.025 C
HETATM    3  C3  UNL     1     -20.648 -42.444  24.813  1.00  0.00     0.034 C
HETATM    4  C4  UNL     1     -19.246 -42.072  25.130  1.00  0.00     0.228 C
HETATM    5  C5  UNL     1     -18.387 -42.578  24.067  1.00  0.00     0.040 C
HETATM    6  C6  UNL     1     -18.280 -41.499  23.008  1.00  0.00     0.029 C
HETATM    7  C7  UNL     1     -19.457 -41.151  22.230  1.00  0.00    -0.031 C
HETATM    8  C8  UNL     1     -20.707 -40.648  22.752  1.00  0.00    -0.030 C
HETATM    9  C9  UNL     1     -20.924 -40.142  24.112  1.00  0.00     0.036 C
HETATM   10  C10 UNL     1     -21.373 -41.165  25.157  1.00  0.00    -0.027 C
HETATM   11  C11 UNL     1     -21.006 -40.803  26.547  1.00  0.00     0.040 C
HETATM   12  C12 UNL     1     -19.821 -41.333  27.218  1.00  0.00     0.273 C
HETATM   13  N1  UNL     1     -19.063 -42.385  26.504  1.00  0.00     0.089 N
HETATM   14  C13 UNL     1     -17.692 -42.328  26.952  1.00  0.00     0.310 C
HETATM   15  C14 UNL     1     -22.799 -41.602  24.992  1.00  0.00     0.050 C
HETATM   16  C15 UNL     1     -22.800 -43.132  25.165  1.00  0.00     0.141 C
HETATM   17  C16 UNL     1     -23.058 -43.793  23.898  1.00  0.00     0.085 C
HETATM   18  N2  UNL     1     -23.280 -44.311  22.875  1.00  0.00    -0.195 NA
HETATM   19  C17 UNL     1     -23.773 -43.563  26.135  1.00  0.00     0.085 C
HETATM   20  N3  UNL     1     -24.557 -43.900  26.901  1.00  0.00    -0.195 NA
ENDROOT
TORSDOF 0
ENDMDL