MODEL 5
REMARK VINA RESULT: -7.181395625      1.567      3.028
REMARK  0 active torsions:
REMARK  status: ('A' for Active; 'I' for Inactive)
ROOT
HETATM    1  C1  UNL     1     -14.183 -42.985  25.013  1.00  0.00     0.010 C
HETATM    2  C2  UNL     1     -15.677 -43.241  24.759  1.00  0.00    -0.019 C
HETATM    3  C3  UNL     1     -16.070 -42.483  23.562  1.00  0.00     0.007 C
HETATM    4  C4  UNL     1     -17.448 -41.967  23.485  1.00  0.00     0.042 C
HETATM    5  C5  UNL     1     -18.339 -42.319  24.633  1.00  0.00     0.099 C
HETATM    6  C6  UNL     1     -17.594 -42.087  25.909  1.00  0.00     0.042 C
HETATM    7  C7  UNL     1     -16.398 -42.981  26.018  1.00  0.00     0.007 C
HETATM    8  C8  UNL     1     -19.526 -41.347  24.591  1.00  0.00     0.085 C
HETATM    9  C9  UNL     1     -20.676 -42.320  24.437  1.00  0.00     0.138 C
HETATM   10  O1  UNL     1     -20.147 -43.465  25.029  1.00  0.00    -0.226 OA
HETATM   11  O2  UNL     1     -18.938 -43.545  24.540  1.00  0.00    -0.229 OA
HETATM   12  C10 UNL     1     -20.964 -42.623  22.977  1.00  0.00     0.029 C
HETATM   13  C11 UNL     1     -22.247 -43.465  22.970  1.00  0.00     0.038 C
HETATM   14  C12 UNL     1     -23.371 -42.509  23.331  1.00  0.00     0.274 C
HETATM   15  N1  UNL     1     -22.867 -41.353  24.046  1.00  0.00     0.101 N
HETATM   16  C13 UNL     1     -22.193 -40.509  23.083  1.00  0.00     0.274 C
HETATM   17  C14 UNL     1     -21.302 -41.351  22.224  1.00  0.00     0.038 C
HETATM   18  C15 UNL     1     -21.939 -41.845  25.065  1.00  0.00     0.194 A
HETATM   19  C16 UNL     1     -22.605 -42.761  26.064  1.00  0.00     0.048 A
HETATM   20  C17 UNL     1     -22.048 -41.394  26.451  1.00  0.00     0.048 A
ENDROOT
TORSDOF 0
ENDMDL