MODEL 5
REMARK VINA RESULT: -10.519642270      1.132      1.351
REMARK  5 active torsions:
REMARK  status: ('A' for Active; 'I' for Inactive)
REMARK       I    between atoms: C1_2  and  N1_3
REMARK       I    between atoms: C1_2  and  N3_21
REMARK    1  A    between atoms: N1_3  and  C2_5
REMARK    2  A    between atoms: C5_9  and  C6_10
REMARK    3  A    between atoms: C7_13  and  C8_14
REMARK    4  A    between atoms: C15_24  and  O2_25
REMARK    5  A    between atoms: O2_25  and  C16_26
REMARK       I    between atoms: C16_26  and  N4_28
ROOT
HETATM    1  O1  UNL     1     -13.941 -45.027  25.133  1.00  0.00    -0.247 OA
HETATM    2  C1  UNL     1     -14.510 -44.544  26.131  1.00  0.00     0.322 C
HETATM    3  N1  UNL     1     -15.464 -43.538  26.033  1.00  0.00    -0.307 N
ATOM      4  H1  UNL     1     -15.865 -43.217  26.915  1.00  0.00     0.170 HD
HETATM    5  N3  UNL     1     -14.119 -45.094  27.395  1.00  0.00    -0.334 N
HETATM    6  C13 UNL     1     -14.663 -44.679  28.659  1.00  0.00     0.130 C
HETATM    7  C14 UNL     1     -13.484 -44.032  29.406  1.00  0.00     0.052 C
HETATM    8  C15 UNL     1     -12.503 -45.188  29.632  1.00  0.00     0.137 C
HETATM    9  C19 UNL     1     -11.937 -45.669  28.351  1.00  0.00     0.052 C
HETATM   10  C20 UNL     1     -13.105 -46.136  27.467  1.00  0.00     0.130 C
ENDROOT
BRANCH   3  11
HETATM   11  C2  UNL     1     -15.965 -42.882  24.837  1.00  0.00     0.056 A
HETATM   12  C3  UNL     1     -15.108 -42.374  23.911  1.00  0.00     0.038 A
HETATM   13  C4  UNL     1     -15.648 -41.768  22.804  1.00  0.00     0.053 A
HETATM   14  S1  UNL     1     -17.313 -41.912  23.063  1.00  0.00    -0.097 SA
HETATM   15  C5  UNL     1     -17.294 -42.730  24.555  1.00  0.00     0.065 A
BRANCH  15  16
HETATM   16  C6  UNL     1     -18.496 -43.147  25.314  1.00  0.00     0.094 A
HETATM   17  N2  UNL     1     -19.391 -44.020  24.858  1.00  0.00    -0.348 N
HETATM   18  C7  UNL     1     -20.409 -44.327  25.586  1.00  0.00     0.057 A
ATOM     19  H2  UNL     1     -19.271 -44.445  23.939  1.00  0.00     0.166 HD
HETATM   20  C12 UNL     1     -20.520 -43.727  26.816  1.00  0.00     0.082 A
HETATM   21  S3  UNL     1     -19.128 -42.749  26.835  1.00  0.00    -0.081 SA
BRANCH  18  22
HETATM   22  C8  UNL     1     -21.450 -45.303  25.128  1.00  0.00     0.032 A
HETATM   23  C9  UNL     1     -21.515 -46.634  25.367  1.00  0.00     0.021 A
HETATM   24  C10 UNL     1     -22.553 -47.307  24.847  1.00  0.00     0.008 A
HETATM   25  C11 UNL     1     -23.463 -46.593  24.115  1.00  0.00     0.050 A
HETATM   26  S2  UNL     1     -22.840 -45.005  24.177  1.00  0.00    -0.100 SA
ENDBRANCH  18  22
ENDBRANCH  15  16
ENDBRANCH   3  11
BRANCH   8  27
HETATM   27  O2  UNL     1     -11.616 -44.805  30.610  1.00  0.00    -0.298 OA
BRANCH  27  28
HETATM   28  C16 UNL     1     -10.257 -44.628  30.484  1.00  0.00     0.378 C
HETATM   29  O3  UNL     1      -9.753 -44.864  29.380  1.00  0.00    -0.237 OA
HETATM   30  N4  UNL     1      -9.522 -44.193  31.611  1.00  0.00    -0.202 N
HETATM   31  C17 UNL     1      -9.995 -43.887  32.946  1.00  0.00     0.169 C
HETATM   32  S4  UNL     1      -7.804 -43.899  31.697  1.00  0.00     0.325 S
HETATM   33  C18 UNL     1      -9.095 -42.798  33.488  1.00  0.00     0.154 C
HETATM   34  N5  UNL     1      -7.725 -43.230  33.312  1.00  0.00    -0.301 N
ATOM     35  H5  UNL     1      -6.934 -43.163  33.951  1.00  0.00     0.173 HD
HETATM   36  O4  UNL     1      -7.027 -45.163  31.718  1.00  0.00    -0.182 OA
HETATM   37  O5  UNL     1      -7.361 -42.923  30.674  1.00  0.00    -0.182 OA
ENDBRANCH  27  28
ENDBRANCH   8  27
TORSDOF 5
ENDMDL