MODEL 4
REMARK VINA RESULT: -11.070389725      0.752      1.189
REMARK  5 active torsions:
REMARK  status: ('A' for Active; 'I' for Inactive)
REMARK    1  A    between atoms: C5_12  and  C6_13
REMARK    2  A    between atoms: N4_15  and  C8_16
REMARK    3  A    between atoms: N7_27  and  C15_28
REMARK       I    between atoms: N8_31  and  C18_32
REMARK    4  A    between atoms: C18_32  and  O2_34
REMARK    5  A    between atoms: O2_34  and  C19_35
ROOT
HETATM    1  N1  UNL     1     -16.039 -41.125  21.727  1.00  0.00    -0.385 N
ATOM      2  H11 UNL     1     -15.581 -41.802  22.337  1.00  0.00     0.157 HD
ATOM      3  H12 UNL     1     -15.523 -40.589  21.029  1.00  0.00     0.157 HD
HETATM    4  C1  UNL     1     -17.295 -40.964  21.863  1.00  0.00     0.116 A
HETATM    5  N2  UNL     1     -17.906 -40.063  21.051  1.00  0.00    -0.338 N
ATOM      6  H2  UNL     1     -17.364 -39.541  20.362  1.00  0.00     0.168 HD
HETATM    7  C2  UNL     1     -19.209 -39.866  21.160  1.00  0.00     0.183 A
HETATM    8  N3  UNL     1     -19.906 -40.557  22.065  1.00  0.00    -0.337 N
ATOM      9  H3  UNL     1     -20.909 -40.388  22.129  1.00  0.00     0.168 HD
HETATM   10  C3  UNL     1     -19.360 -41.463  22.899  1.00  0.00     0.140 A
HETATM   11  C4  UNL     1     -17.986 -41.681  22.794  1.00  0.00     0.083 A
HETATM   12  C5  UNL     1     -17.639 -42.618  23.708  1.00  0.00     0.094 A
HETATM   13  N6  UNL     1     -18.807 -42.952  24.351  1.00  0.00    -0.293 N
ATOM     14  H6  UNL     1     -18.882 -43.638  25.102  1.00  0.00     0.187 HD
HETATM   15  N7  UNL     1     -19.814 -42.264  23.863  1.00  0.00    -0.270 N
ENDROOT
BRANCH  15  16
HETATM   16  C15 UNL     1     -21.180 -42.379  24.319  1.00  0.00     0.113 C
HETATM   17  C16 UNL     1     -21.415 -41.638  25.597  1.00  0.00     0.047 C
HETATM   18  C17 UNL     1     -22.038 -42.551  26.633  1.00  0.00     0.130 C
HETATM   19  N8  UNL     1     -23.145 -43.306  26.087  1.00  0.00    -0.328 N
HETATM   20  C18 UNL     1     -24.406 -43.403  26.721  1.00  0.00     0.363 C
HETATM   21  C27 UNL     1     -22.933 -43.987  24.837  1.00  0.00     0.130 C
HETATM   22  O1  UNL     1     -25.308 -44.080  26.174  1.00  0.00    -0.238 OA
HETATM   23  C28 UNL     1     -21.475 -43.878  24.455  1.00  0.00     0.047 C
BRANCH  20  24
HETATM   24  O2  UNL     1     -24.708 -42.788  27.924  1.00  0.00    -0.297 OA
BRANCH  24  25
HETATM   25  C19 UNL     1     -24.666 -41.412  28.161  1.00  0.00     0.162 C
HETATM   26  C20 UNL     1     -25.296 -40.739  26.935  1.00  0.00     0.036 C
HETATM   27  C21 UNL     1     -24.957 -39.273  27.037  1.00  0.00     0.038 C
HETATM   28  C22 UNL     1     -24.602 -38.886  28.454  1.00  0.00     0.223 C
HETATM   29  C23 UNL     1     -25.010 -37.415  28.607  1.00  0.00     0.037 C
HETATM   30  N9  UNL     1     -25.426 -39.532  29.436  1.00  0.00     0.095 N
HETATM   31  C24 UNL     1     -26.501 -37.523  28.846  1.00  0.00     0.032 C
HETATM   32  C25 UNL     1     -26.713 -38.911  29.413  1.00  0.00     0.273 C
HETATM   33  C26 UNL     1     -25.443 -40.959  29.353  1.00  0.00     0.305 C
ENDBRANCH  24  25
ENDBRANCH  20  24
ENDBRANCH  15  16
BRANCH  12  34
HETATM   34  C6  UNL     1     -16.379 -43.228  24.052  1.00  0.00     0.078 A
HETATM   35  C7  UNL     1     -15.815 -43.278  25.334  1.00  0.00     0.130 A
HETATM   36  N4  UNL     1     -14.655 -43.912  25.284  1.00  0.00    -0.316 N
HETATM   37  C14 UNL     1     -14.440 -44.280  24.013  1.00  0.00     0.188 A
HETATM   38  N5  UNL     1     -15.478 -43.862  23.302  1.00  0.00    -0.349 N
ATOM     39  H5  UNL     1     -15.576 -44.008  22.297  1.00  0.00     0.167 HD
BRANCH  36  40
HETATM   40  C8  UNL     1     -13.750 -44.181  26.387  1.00  0.00     0.039 A
HETATM   41  C9  UNL     1     -13.138 -43.175  27.097  1.00  0.00     0.030 A
HETATM   42  C10 UNL     1     -12.275 -43.443  28.149  1.00  0.00     0.002 A
HETATM   43  C11 UNL     1     -12.000 -44.740  28.521  1.00  0.00     0.000 A
HETATM   44  C12 UNL     1     -12.612 -45.750  27.812  1.00  0.00     0.002 A
HETATM   45  C13 UNL     1     -13.481 -45.480  26.752  1.00  0.00     0.030 A
ENDBRANCH  36  40
ENDBRANCH  12  34
TORSDOF 5
ENDMDL