MODEL 5
REMARK VINA RESULT: -10.955438498      2.438      2.671
REMARK  5 active torsions:
REMARK  status: ('A' for Active; 'I' for Inactive)
REMARK    1  A    between atoms: C5_11  and  C6_12
REMARK    2  A    between atoms: C6_12  and  C7_14
REMARK    3  A    between atoms: C8_15  and  C9_16
REMARK    4  A    between atoms: N5_27  and  C18_28
REMARK    5  A    between atoms: C18_28  and  C20_30
REMARK       I    between atoms: C20_30  and  N6_32
REMARK       I    between atoms: N7_34  and  C21_36
REMARK       I    between atoms: C21_36  and  N9_40
REMARK       I    between atoms: N10_42  and  C22_44
ROOT
HETATM    1  C1  UNL     1     -21.521 -41.626  21.300  1.00  0.00     0.020 C
HETATM    2  C2  UNL     1     -20.825 -41.861  22.628  1.00  0.00     0.079 C
HETATM    3  C3  UNL     1     -19.871 -40.711  22.826  1.00  0.00     0.074 C
HETATM    4  C4  UNL     1     -18.444 -41.069  22.568  1.00  0.00     0.057 A
HETATM    5  N1  UNL     1     -17.776 -40.337  21.641  1.00  0.00    -0.288 N
ATOM      6  H1  UNL     1     -18.269 -39.580  21.167  1.00  0.00     0.188 HD
HETATM    7  N2  UNL     1     -16.520 -40.565  21.328  1.00  0.00    -0.242 N
ATOM      8  H2  UNL     1     -16.047 -39.997  20.626  1.00  0.00     0.208 HD
HETATM    9  N3  UNL     1     -15.884 -41.542  21.940  1.00  0.00    -0.280 N
ATOM     10  H3  UNL     1     -14.910 -41.710  21.690  1.00  0.00     0.188 HD
HETATM   11  C5  UNL     1     -16.440 -42.326  22.870  1.00  0.00     0.128 A
HETATM   12  C15 UNL     1     -17.789 -42.088  23.209  1.00  0.00     0.085 A
HETATM   13  N4  UNL     1     -18.385 -42.953  24.153  1.00  0.00    -0.385 N
ATOM     14  H4  UNL     1     -18.258 -43.949  23.976  1.00  0.00     0.159 HD
HETATM   15  C16 UNL     1     -19.142 -42.626  25.321  1.00  0.00     0.140 C
HETATM   16  C17 UNL     1     -20.455 -43.326  25.283  1.00  0.00     0.146 C
HETATM   17  N5  UNL     1     -21.598 -42.491  25.000  1.00  0.00    -0.337 N
HETATM   18  C23 UNL     1     -21.846 -41.909  23.731  1.00  0.00     0.224 C
HETATM   19  O4  UNL     1     -22.982 -41.387  23.473  1.00  0.00    -0.273 OA
ENDROOT
BRANCH  17  20
HETATM   20  C18 UNL     1     -22.554 -42.240  26.058  1.00  0.00     0.177 C
HETATM   21  C19 UNL     1     -22.668 -40.747  26.318  1.00  0.00     0.042 C
BRANCH  20  22
HETATM   22  C20 UNL     1     -22.275 -42.941  27.314  1.00  0.00     0.259 C
HETATM   23  O2  UNL     1     -21.172 -42.817  27.915  1.00  0.00    -0.269 OA
HETATM   24  N6  UNL     1     -23.223 -43.796  27.925  1.00  0.00    -0.254 N
HETATM   25  N7  UNL     1     -23.065 -44.365  29.025  1.00  0.00    -0.129 N
ATOM     26  H6  UNL     1     -24.100 -43.960  27.431  1.00  0.00     0.190 HD
HETATM   27  C21 UNL     1     -24.092 -45.200  29.534  1.00  0.00     0.705 C
ATOM     28  H7  UNL     1     -22.204 -44.230  29.554  1.00  0.00     0.205 HD
HETATM   29  N8  UNL     1     -24.659 -44.987  30.685  1.00  0.00    -0.232 N
HETATM   30  N9  UNL     1     -24.520 -46.309  28.768  1.00  0.00    -0.128 N
ATOM     31  H82 UNL     1     -24.351 -44.188  31.238  1.00  0.00     0.174 HD
ATOM     32  H81 UNL     1     -25.398 -45.588  31.051  1.00  0.00     0.174 HD
HETATM   33  N10 UNL     1     -25.744 -46.566  28.673  1.00  0.00    -0.240 N
ATOM     34  H9  UNL     1     -23.836 -46.898  28.294  1.00  0.00     0.205 HD
HETATM   35  C22 UNL     1     -26.249 -47.646  27.934  1.00  0.00     0.347 C
ATOM     36  H10 UNL     1     -26.405 -45.959  29.158  1.00  0.00     0.192 HD
HETATM   37  N11 UNL     1     -27.507 -48.200  28.311  1.00  0.00    -0.038 NA
HETATM   38  O3  UNL     1     -25.659 -48.155  26.959  1.00  0.00    -0.249 OA
ENDBRANCH  20  22
ENDBRANCH  17  20
BRANCH  11  39
HETATM   39  C6  UNL     1     -15.639 -43.325  23.524  1.00  0.00     0.202 C
HETATM   40  O1  UNL     1     -15.409 -44.414  22.858  1.00  0.00    -0.286 OA
BRANCH  39  41
HETATM   41  C7  UNL     1     -15.054 -43.278  24.810  1.00  0.00     0.058 C
HETATM   42  C8  UNL     1     -14.495 -44.231  25.473  1.00  0.00     0.015 C
BRANCH  42  43
HETATM   43  C9  UNL     1     -13.918 -44.039  26.829  1.00  0.00    -0.036 A
HETATM   44  C10 UNL     1     -12.829 -43.237  27.067  1.00  0.00     0.011 A
HETATM   45  C11 UNL     1     -12.324 -43.091  28.369  1.00  0.00     0.001 A
HETATM   46  C12 UNL     1     -12.928 -43.758  29.405  1.00  0.00     0.000 A
HETATM   47  C13 UNL     1     -14.020 -44.569  29.205  1.00  0.00     0.001 A
HETATM   48  C14 UNL     1     -14.486 -44.688  27.920  1.00  0.00     0.011 A
ENDBRANCH  42  43
ENDBRANCH  39  41
ENDBRANCH  11  39
TORSDOF 5
ENDMDL