MODEL 2
REMARK VINA RESULT: -13.131083848      1.358      1.968
REMARK  5 active torsions:
REMARK  status: ('A' for Active; 'I' for Inactive)
REMARK    1  A    between atoms: C2_2  and  N1_4
REMARK    2  A    between atoms: N1_4  and  C4_6
REMARK    3  A    between atoms: N7_22  and  C10_23
REMARK    4  A    between atoms: N8_26  and  C13_27
REMARK    5  A    between atoms: N9_30  and  C16_31
ROOT
HETATM    1  C4  UNL     1     -18.992 -42.328  24.359  1.00  0.00     0.132 A
HETATM    2  N2  UNL     1     -18.071 -42.339  23.345  1.00  0.00    -0.337 N
ATOM      3  H2  UNL     1     -18.382 -42.148  22.393  1.00  0.00     0.168 HD
HETATM    4  C5  UNL     1     -16.777 -42.593  23.566  1.00  0.00     0.182 A
HETATM    5  N3  UNL     1     -16.279 -42.856  24.792  1.00  0.00    -0.348 N
ATOM      6  H3  UNL     1     -15.286 -43.046  24.924  1.00  0.00     0.167 HD
HETATM    7  C6  UNL     1     -17.114 -42.861  25.817  1.00  0.00     0.095 A
HETATM    8  C7  UNL     1     -18.476 -42.596  25.603  1.00  0.00     0.106 A
HETATM    9  N4  UNL     1     -19.299 -42.609  26.657  1.00  0.00    -0.359 N
ATOM     10  H4  UNL     1     -20.293 -42.419  26.523  1.00  0.00     0.165 HD
HETATM   11  C8  UNL     1     -18.836 -42.867  27.886  1.00  0.00     0.122 A
HETATM   12  C9  UNL     1     -17.500 -43.132  28.128  1.00  0.00     0.095 A
HETATM   13  N5  UNL     1     -16.773 -43.416  29.213  1.00  0.00    -0.283 N
ATOM     14  H5  UNL     1     -17.129 -43.494  30.166  1.00  0.00     0.188 HD
HETATM   15  N6  UNL     1     -15.530 -43.575  28.845  1.00  0.00    -0.239 N
ATOM     16  H6  UNL     1     -14.765 -43.800  29.481  1.00  0.00     0.208 HD
HETATM   17  N7  UNL     1     -15.391 -43.405  27.519  1.00  0.00    -0.269 N
HETATM   18  C29 UNL     1     -16.620 -43.127  27.065  1.00  0.00     0.111 A
ENDROOT
BRANCH  17  19
HETATM   19  C10 UNL     1     -14.146 -43.516  26.834  1.00  0.00     0.113 C
HETATM   20  C11 UNL     1     -13.043 -43.384  27.907  1.00  0.00     0.057 C
HETATM   21  C12 UNL     1     -11.835 -44.132  27.396  1.00  0.00     0.275 C
HETATM   22  N8  UNL     1     -12.010 -45.549  27.604  1.00  0.00     0.093 N
HETATM   23  C27 UNL     1     -13.413 -45.866  27.382  1.00  0.00     0.275 C
HETATM   24  C28 UNL     1     -14.002 -44.931  26.313  1.00  0.00     0.057 C
BRANCH  22  25
HETATM   25  C13 UNL     1     -11.571 -45.994  28.912  1.00  0.00     0.226 C
HETATM   26  C14 UNL     1     -10.067 -45.813  28.947  1.00  0.00     0.055 C
HETATM   27  C15 UNL     1      -9.462 -46.186  30.270  1.00  0.00     0.125 C
HETATM   28  N9  UNL     1     -10.092 -45.339  31.274  1.00  0.00    -0.380 N
HETATM   29  C25 UNL     1     -11.547 -45.460  31.341  1.00  0.00     0.125 C
HETATM   30  C26 UNL     1     -12.211 -45.219  30.011  1.00  0.00     0.055 C
BRANCH  28  31
HETATM   31  C16 UNL     1      -9.386 -44.460  32.130  1.00  0.00     0.044 A
HETATM   32  C17 UNL     1      -7.996 -44.522  32.150  1.00  0.00     0.047 A
HETATM   33  C18 UNL     1      -7.254 -43.707  32.969  1.00  0.00     0.090 A
HETATM   34  N10 UNL     1      -7.835 -42.817  33.786  1.00  0.00    -0.365 N
HETATM   35  C19 UNL     1      -9.178 -42.735  33.788  1.00  0.00     0.044 A
ATOM     36  H10 UNL     1      -7.273 -42.216  34.390  1.00  0.00     0.165 HD
HETATM   37  C20 UNL     1      -9.772 -41.807  34.633  1.00  0.00     0.030 A
HETATM   38  C24 UNL     1      -9.968 -43.541  32.973  1.00  0.00     0.017 A
HETATM   39  C21 UNL     1     -11.142 -41.698  34.654  1.00  0.00     0.002 A
HETATM   40  C22 UNL     1     -11.912 -42.500  33.844  1.00  0.00     0.001 A
HETATM   41  C23 UNL     1     -11.338 -43.432  32.993  1.00  0.00     0.016 A
ENDBRANCH  28  31
ENDBRANCH  22  25
ENDBRANCH  17  19
BRANCH   1  42
HETATM   42  N1  UNL     1     -20.182 -42.079  24.053  1.00  0.00    -0.370 N
ATOM     43  H1  UNL     1     -20.703 -42.922  23.810  1.00  0.00     0.161 HD
BRANCH  42  44
HETATM   44  C2  UNL     1     -20.970 -40.923  23.963  1.00  0.00     0.075 C
HETATM   45  C1  UNL     1     -21.457 -40.764  22.529  1.00  0.00     0.031 C
HETATM   46  C3  UNL     1     -22.221 -41.018  24.851  1.00  0.00     0.031 C
ENDBRANCH  42  44
ENDBRANCH   1  42
TORSDOF 5
ENDMDL