MODEL 4
REMARK VINA RESULT: -12.304654892      4.440     12.396
REMARK  5 active torsions:
REMARK  status: ('A' for Active; 'I' for Inactive)
REMARK    1  A    between atoms: N2_5  and  C4_6
REMARK    2  A    between atoms: C7_9  and  N3_10
REMARK    3  A    between atoms: N3_10  and  C8_12
REMARK    4  A    between atoms: C11_18  and  C12_19
REMARK    5  A    between atoms: N8_33  and  C21_34
ROOT
HETATM    1  C4  UNL     1     -18.519 -42.824  25.350  1.00  0.00     0.030 A
HETATM    2  C5  UNL     1     -17.899 -43.041  26.597  1.00  0.00     0.031 A
HETATM    3  C6  UNL     1     -16.536 -43.138  26.703  1.00  0.00     0.032 A
HETATM    4  C7  UNL     1     -15.680 -43.037  25.635  1.00  0.00     0.033 A
HETATM    5  C17 UNL     1     -16.293 -42.821  24.396  1.00  0.00     0.032 A
HETATM    6  C18 UNL     1     -17.667 -42.721  24.278  1.00  0.00     0.031 A
ENDROOT
BRANCH   1   7
HETATM    7  N2  UNL     1     -19.926 -42.740  25.280  1.00  0.00    -0.378 N
HETATM    8  C3  UNL     1     -20.538 -41.668  26.061  1.00  0.00     0.144 C
HETATM    9  C2  UNL     1     -22.030 -41.654  25.897  1.00  0.00     0.162 C
HETATM   10  N1  UNL     1     -22.512 -41.297  24.612  1.00  0.00    -0.314 N
HETATM   11  C1  UNL     1     -23.952 -41.321  24.512  1.00  0.00     0.171 C
HETATM   12  N8  UNL     1     -21.871 -41.819  23.520  1.00  0.00    -0.125 N
HETATM   13  C20 UNL     1     -21.172 -43.057  23.206  1.00  0.00     0.187 C
HETATM   14  C19 UNL     1     -20.614 -43.695  24.468  1.00  0.00     0.145 C
BRANCH  12  15
HETATM   15  C21 UNL     1     -21.905 -40.925  22.385  1.00  0.00     0.700 A
HETATM   16  N9  UNL     1     -21.169 -39.812  22.281  1.00  0.00    -0.188 N
HETATM   17  C22 UNL     1     -21.432 -39.213  21.100  1.00  0.00     0.076 A
ATOM     18  H9  UNL     1     -20.513 -39.470  22.984  1.00  0.00     0.184 HD
HETATM   19  C23 UNL     1     -20.977 -38.071  20.484  1.00  0.00     0.032 A
HETATM   20  C27 UNL     1     -22.365 -39.980  20.447  1.00  0.00     0.076 A
HETATM   21  C24 UNL     1     -21.431 -37.697  19.253  1.00  0.00     0.002 A
HETATM   22  C25 UNL     1     -22.368 -38.483  18.614  1.00  0.00     0.002 A
HETATM   23  C26 UNL     1     -22.826 -39.617  19.216  1.00  0.00     0.032 A
HETATM   24  N10 UNL     1     -22.635 -41.027  21.265  1.00  0.00    -0.188 N
ATOM     25  H10 UNL     1     -23.294 -41.778  21.059  1.00  0.00     0.184 HD
ENDBRANCH  12  15
ENDBRANCH   1   7
BRANCH   4  26
HETATM   26  N3  UNL     1     -14.291 -43.141  25.727  1.00  0.00    -0.342 N
ATOM     27  H3  UNL     1     -13.774 -42.511  25.114  1.00  0.00     0.167 HD
BRANCH  26  28
HETATM   28  C8  UNL     1     -13.568 -43.893  26.449  1.00  0.00     0.122 A
HETATM   29  C9  UNL     1     -13.699 -45.260  26.450  1.00  0.00     0.069 A
HETATM   30  C10 UNL     1     -12.885 -46.067  27.258  1.00  0.00     0.139 A
HETATM   31  N4  UNL     1     -11.961 -45.504  28.046  1.00  0.00    -0.096 N
HETATM   32  N5  UNL     1     -11.062 -45.982  28.901  1.00  0.00    -0.263 N
HETATM   33  C16 UNL     1     -11.828 -44.172  28.050  1.00  0.00     0.706 A
HETATM   34  C11 UNL     1     -10.374 -44.976  29.436  1.00  0.00     0.153 A
ATOM     35  H5  UNL     1     -10.921 -46.969  29.115  1.00  0.00     0.190 HD
HETATM   36  N6  UNL     1     -10.838 -43.866  28.919  1.00  0.00    -0.172 N
ATOM     37  H6  UNL     1     -10.507 -42.926  29.137  1.00  0.00     0.186 HD
HETATM   38  N7  UNL     1     -12.623 -43.390  27.262  1.00  0.00    -0.175 N
ATOM     39  H7  UNL     1     -12.494 -42.378  27.291  1.00  0.00     0.186 HD
BRANCH  34  40
HETATM   40  C12 UNL     1      -9.294 -45.080  30.429  1.00  0.00     0.050 A
HETATM   41  C13 UNL     1      -8.668 -46.218  30.877  1.00  0.00     0.023 A
HETATM   42  C14 UNL     1      -7.699 -46.066  31.790  1.00  0.00     0.009 A
HETATM   43  C15 UNL     1      -7.412 -44.794  32.203  1.00  0.00     0.050 A
HETATM   44  S1  UNL     1      -8.503 -43.845  31.303  1.00  0.00    -0.098 SA
ENDBRANCH  34  40
ENDBRANCH  26  28
ENDBRANCH   4  26
TORSDOF 5
ENDMDL