MODEL 1
REMARK VINA RESULT: -11.911340844      0.000      0.000
REMARK  5 active torsions:
REMARK  status: ('A' for Active; 'I' for Inactive)
REMARK    1  A    between atoms: N3_9  and  C6_11
REMARK    2  A    between atoms: C9_14  and  N4_15
REMARK    3  A    between atoms: N4_15  and  C10_16
REMARK    4  A    between atoms: C16_27  and  N8_28
REMARK    5  A    between atoms: N9_31  and  C19_32
ROOT
HETATM    1  N1  UNL     1     -27.833 -43.608  28.806  1.00  0.00    -0.191 NA
HETATM    2  C1  UNL     1     -26.729 -43.782  28.491  1.00  0.00     0.099 C
HETATM    3  C2  UNL     1     -25.351 -43.988  28.125  1.00  0.00     0.049 A
HETATM    4  C3  UNL     1     -24.929 -45.255  27.816  1.00  0.00     0.040 A
HETATM    5  C4  UNL     1     -23.611 -45.428  27.474  1.00  0.00     0.091 A
HETATM    6  N2  UNL     1     -22.734 -44.388  27.435  1.00  0.00    -0.352 N
ATOM      7  H2  UNL     1     -21.763 -44.561  27.175  1.00  0.00     0.166 HD
HETATM    8  C5  UNL     1     -23.125 -43.139  27.734  1.00  0.00     0.106 A
HETATM    9  N3  UNL     1     -22.292 -42.186  27.705  1.00  0.00    -0.342 N
ATOM     10  H3  UNL     1     -22.617 -41.247  27.935  1.00  0.00     0.167 HD
HETATM   11  C29 UNL     1     -24.435 -42.938  28.079  1.00  0.00     0.071 A
ENDROOT
BRANCH   9  12
HETATM   12  C6  UNL     1     -20.921 -42.368  27.363  1.00  0.00     0.033 A
HETATM   13  C7  UNL     1     -19.985 -42.681  28.318  1.00  0.00     0.033 A
HETATM   14  C8  UNL     1     -18.677 -42.886  27.973  1.00  0.00     0.047 A
HETATM   15  C9  UNL     1     -18.216 -42.790  26.639  1.00  0.00     0.107 A
HETATM   16  C27 UNL     1     -19.207 -42.466  25.698  1.00  0.00     0.047 A
HETATM   17  C28 UNL     1     -20.517 -42.262  26.052  1.00  0.00     0.033 A
BRANCH  15  18
HETATM   18  N4  UNL     1     -16.959 -43.008  26.337  1.00  0.00    -0.402 NA
BRANCH  18  19
HETATM   19  C10 UNL     1     -15.831 -43.185  26.048  1.00  0.00     0.159 A
HETATM   20  C11 UNL     1     -15.344 -42.912  24.771  1.00  0.00     0.102 A
HETATM   21  C12 UNL     1     -16.226 -42.420  23.724  1.00  0.00     0.104 C
HETATM   22  C13 UNL     1     -14.013 -43.117  24.527  1.00  0.00     0.114 A
HETATM   23  N5  UNL     1     -16.928 -42.039  22.888  1.00  0.00    -0.191 NA
HETATM   24  N6  UNL     1     -13.158 -43.564  25.443  1.00  0.00    -0.361 N
HETATM   25  C14 UNL     1     -13.563 -43.844  26.680  1.00  0.00     0.079 A
ATOM     26  H6  UNL     1     -12.177 -43.695  25.194  1.00  0.00     0.165 HD
HETATM   27  C15 UNL     1     -12.670 -44.312  27.653  1.00  0.00     0.138 A
HETATM   28  C26 UNL     1     -14.883 -43.658  26.982  1.00  0.00     0.119 A
HETATM   29  N7  UNL     1     -13.167 -44.562  28.868  1.00  0.00    -0.200 N
HETATM   30  C16 UNL     1     -14.463 -44.396  29.213  1.00  0.00     0.680 A
ATOM     31  H7  UNL     1     -12.525 -44.903  29.583  1.00  0.00     0.183 HD
HETATM   32  N11 UNL     1     -15.283 -43.943  28.243  1.00  0.00    -0.186 N
ATOM     33  H11 UNL     1     -16.267 -43.806  28.474  1.00  0.00     0.184 HD
BRANCH  30  34
HETATM   34  N8  UNL     1     -14.920 -44.675  30.531  1.00  0.00    -0.214 N
HETATM   35  C17 UNL     1     -15.645 -43.630  31.225  1.00  0.00     0.161 C
HETATM   36  C18 UNL     1     -14.796 -43.114  32.348  1.00  0.00     0.145 C
HETATM   37  N9  UNL     1     -13.745 -44.110  32.620  1.00  0.00    -0.364 N
HETATM   38  C24 UNL     1     -14.038 -45.505  32.575  1.00  0.00     0.145 C
HETATM   39  C25 UNL     1     -14.695 -45.914  31.241  1.00  0.00     0.161 C
BRANCH  37  40
HETATM   40  C19 UNL     1     -12.459 -43.588  32.933  1.00  0.00     0.102 A
HETATM   41  C20 UNL     1     -11.333 -44.118  32.368  1.00  0.00     0.048 A
HETATM   42  C21 UNL     1     -10.084 -43.595  32.695  1.00  0.00     0.005 A
HETATM   43  C22 UNL     1     -10.003 -42.557  33.574  1.00  0.00     0.017 A
HETATM   44  C23 UNL     1     -11.167 -42.065  34.109  1.00  0.00     0.089 A
HETATM   45  N10 UNL     1     -12.363 -42.543  33.818  1.00  0.00    -0.352 N
ATOM     46  H10 UNL     1     -13.199 -42.142  34.241  1.00  0.00     0.166 HD
ENDBRANCH  37  40
ENDBRANCH  30  34
ENDBRANCH  18  19
ENDBRANCH  15  18
ENDBRANCH   9  12
TORSDOF 5
ENDMDL