MODEL 4
REMARK VINA RESULT: -9.820848405      4.417      7.300
REMARK  4 active torsions:
REMARK  status: ('A' for Active; 'I' for Inactive)
REMARK    1  A    between atoms: C4_5  and  C5_6
REMARK    2  A    between atoms: C5_6  and  N1_7
REMARK    3  A    between atoms: N1_7  and  C6_9
REMARK    4  A    between atoms: C19_29  and  N4_30
ROOT
HETATM    1  C6  UNL     1     -14.463 -45.168  30.157  1.00  0.00     0.046 A
HETATM    2  C7  UNL     1     -15.604 -44.611  30.712  1.00  0.00     0.117 A
HETATM    3  N2  UNL     1     -16.363 -43.805  29.950  1.00  0.00    -0.365 N
ATOM      4  H2  UNL     1     -17.203 -43.397  30.363  1.00  0.00     0.165 HD
HETATM    5  C8  UNL     1     -16.065 -43.505  28.653  1.00  0.00     0.043 A
HETATM    6  C9  UNL     1     -14.943 -44.027  28.045  1.00  0.00     0.093 A
HETATM    7  C10 UNL     1     -14.160 -44.862  28.835  1.00  0.00     0.069 A
HETATM    8  O2  UNL     1     -14.606 -43.750  26.734  1.00  0.00    -0.349 OA
HETATM    9  C11 UNL     1     -14.509 -42.514  26.103  1.00  0.00     0.176 C
HETATM   10  C12 UNL     1     -15.024 -42.466  24.697  1.00  0.00     0.029 C
HETATM   11  C13 UNL     1     -14.895 -43.720  23.914  1.00  0.00     0.029 C
HETATM   12  C14 UNL     1     -16.133 -43.869  23.011  1.00  0.00     0.180 C
HETATM   13  O3  UNL     1     -16.539 -42.692  22.457  1.00  0.00    -0.304 OA
HETATM   14  C15 UNL     1     -17.659 -41.923  22.532  1.00  0.00     0.360 C
HETATM   15  O4  UNL     1     -17.485 -40.682  22.711  1.00  0.00    -0.239 OA
HETATM   16  N3  UNL     1     -19.011 -42.330  22.434  1.00  0.00    -0.337 N
ATOM     17  H3  UNL     1     -19.631 -41.747  21.871  1.00  0.00     0.164 HD
HETATM   18  C16 UNL     1     -19.596 -43.499  23.061  1.00  0.00     0.125 C
HETATM   19  C17 UNL     1     -19.597 -43.408  24.564  1.00  0.00     0.022 C
HETATM   20  C18 UNL     1     -20.781 -42.634  25.101  1.00  0.00     0.027 C
HETATM   21  C19 UNL     1     -21.329 -43.384  26.262  1.00  0.00     0.083 C
HETATM   22  C25 UNL     1     -20.378 -43.495  27.412  1.00  0.00     0.025 C
HETATM   23  C26 UNL     1     -19.527 -42.315  27.694  1.00  0.00     0.002 C
HETATM   24  C27 UNL     1     -18.422 -42.731  28.642  1.00  0.00     0.006 C
HETATM   25  C28 UNL     1     -17.043 -42.598  28.001  1.00  0.00     0.060 C
ENDROOT
BRANCH   1  26
HETATM   26  N1  UNL     1     -13.621 -46.041  30.902  1.00  0.00    -0.386 N
ATOM     27  H1  UNL     1     -13.728 -47.049  30.791  1.00  0.00     0.159 HD
BRANCH  26  28
HETATM   28  C5  UNL     1     -12.631 -45.538  31.802  1.00  0.00     0.154 C
BRANCH  28  29
HETATM   29  C4  UNL     1     -11.518 -44.792  31.103  1.00  0.00     0.166 C
HETATM   30  C3  UNL     1     -10.698 -43.977  32.084  1.00  0.00     0.204 C
HETATM   31  O1  UNL     1      -9.657 -44.806  32.442  1.00  0.00    -0.359 OA
HETATM   32  C2  UNL     1      -9.763 -45.958  31.691  1.00  0.00     0.256 C
HETATM   33  C1  UNL     1      -8.362 -46.362  31.287  1.00  0.00     0.070 C
HETATM   34  O5  UNL     1     -10.559 -45.665  30.608  1.00  0.00    -0.353 OA
ENDBRANCH  28  29
ENDBRANCH  26  28
ENDBRANCH   1  26
BRANCH  21  35
HETATM   35  N4  UNL     1     -22.652 -43.028  26.677  1.00  0.00    -0.385 N
HETATM   36  C20 UNL     1     -23.044 -43.725  27.856  1.00  0.00     0.152 C
HETATM   37  C21 UNL     1     -24.166 -44.667  27.530  1.00  0.00     0.292 C
HETATM   38  N5  UNL     1     -25.309 -43.860  27.167  1.00  0.00     0.090 N
HETATM   39  C22 UNL     1     -26.003 -43.285  28.275  1.00  0.00     0.310 C
HETATM   40  C23 UNL     1     -25.038 -42.957  26.091  1.00  0.00     0.316 C
HETATM   41  C24 UNL     1     -23.612 -42.887  25.658  1.00  0.00     0.088 C
ENDBRANCH  21  35
TORSDOF 4
ENDMDL