MODEL 3
REMARK VINA RESULT: -10.796109857      1.153      1.336
REMARK  6 active torsions:
REMARK  status: ('A' for Active; 'I' for Inactive)
REMARK    1  A    between atoms: C3_3  and  C4_4
REMARK    2  A    between atoms: C4_4  and  C6_7
REMARK    3  A    between atoms: C11_15  and  C12_16
REMARK    4  A    between atoms: C13_17  and  C14_18
REMARK    5  A    between atoms: C16_23  and  N4_24
REMARK       I    between atoms: N4_24  and  C17_26
REMARK       I    between atoms: C17_26  and  N5_28
REMARK    6  A    between atoms: C20_31  and  C21_32
ROOT
HETATM    1  C4  UNL     1     -20.518 -43.091  25.221  1.00  0.00     0.178 C
HETATM    2  C5  UNL     1     -21.177 -41.786  25.158  1.00  0.00     0.075 C
HETATM    3  N1  UNL     1     -21.720 -40.752  25.093  1.00  0.00    -0.196 NA
ENDROOT
BRANCH   1   4
HETATM    4  C3  UNL     1     -19.063 -42.977  25.122  1.00  0.00     0.057 A
HETATM    5  C2  UNL     1     -18.296 -42.633  24.060  1.00  0.00     0.056 A
HETATM    6  C1  UNL     1     -18.734 -42.262  22.681  1.00  0.00     0.072 C
HETATM    7  N7  UNL     1     -17.004 -42.675  24.466  1.00  0.00    -0.241 N
HETATM    8  C10 UNL     1     -16.970 -43.038  25.758  1.00  0.00     0.148 A
HETATM    9  N6  UNL     1     -15.866 -42.433  23.837  1.00  0.00    -0.301 N
HETATM   10  N2  UNL     1     -18.235 -43.223  26.159  1.00  0.00    -0.340 N
HETATM   11  C11 UNL     1     -15.756 -43.151  26.398  1.00  0.00     0.091 A
ATOM     12  H2  UNL     1     -18.525 -43.505  27.095  1.00  0.00     0.167 HD
HETATM   13  C16 UNL     1     -14.532 -42.901  25.758  1.00  0.00     0.075 A
HETATM   14  C28 UNL     1     -14.643 -42.536  24.445  1.00  0.00     0.139 A
ATOM     15  H6  UNL     1     -15.901 -42.156  22.856  1.00  0.00     0.186 HD
BRANCH  11  16
HETATM   16  C12 UNL     1     -15.750 -43.540  27.769  1.00  0.00    -0.058 C
HETATM   17  C13 UNL     1     -15.739 -43.878  28.930  1.00  0.00    -0.066 C
BRANCH  17  18
HETATM   18  C14 UNL     1     -15.730 -44.306  30.341  1.00  0.00     0.290 A
HETATM   19  C15 UNL     1     -14.454 -44.304  31.067  1.00  0.00     0.279 A
HETATM   20  N3  UNL     1     -14.976 -45.545  30.523  1.00  0.00    -0.056 N
ATOM     21  H32 UNL     1     -15.190 -46.465  30.910  1.00  0.00     0.278 HD
ATOM     22  H31 UNL     1     -14.613 -46.263  29.896  1.00  0.00     0.278 HD
ENDBRANCH  17  18
ENDBRANCH  11  16
BRANCH  13  23
HETATM   23  N4  UNL     1     -13.370 -43.049  26.520  1.00  0.00    -0.306 N
HETATM   24  C17 UNL     1     -12.921 -44.272  27.049  1.00  0.00     0.323 C
HETATM   25  O1  UNL     1     -13.483 -45.377  26.920  1.00  0.00    -0.247 OA
HETATM   26  N5  UNL     1     -11.692 -44.327  27.831  1.00  0.00    -0.334 N
HETATM   27  C18 UNL     1     -11.000 -43.078  28.006  1.00  0.00     0.128 C
HETATM   28  C27 UNL     1     -11.291 -45.583  28.346  1.00  0.00     0.128 C
HETATM   29  C19 UNL     1      -9.694 -43.202  28.691  1.00  0.00     0.025 C
HETATM   30  C20 UNL     1      -9.555 -44.324  29.665  1.00  0.00    -0.007 C
HETATM   31  C26 UNL     1     -10.064 -45.635  29.151  1.00  0.00     0.025 C
ATOM     32  H4  UNL     1     -12.811 -42.216  26.703  1.00  0.00     0.171 HD
BRANCH  30  33
HETATM   33  C21 UNL     1     -10.040 -44.000  31.049  1.00  0.00    -0.006 C
HETATM   34  C22 UNL     1      -8.911 -43.549  31.934  1.00  0.00     0.031 C
HETATM   35  C23 UNL     1      -9.474 -43.532  33.362  1.00  0.00     0.168 C
HETATM   36  O2  UNL     1     -10.525 -42.625  33.434  1.00  0.00    -0.391 OA
HETATM   37  C24 UNL     1     -11.584 -42.994  32.609  1.00  0.00     0.168 C
HETATM   38  C25 UNL     1     -11.141 -43.006  31.137  1.00  0.00     0.031 C
ENDBRANCH  30  33
ENDBRANCH  13  23
ENDBRANCH   1   4
BRANCH   1  39
HETATM   39  C6  UNL     1     -20.953 -43.859  26.459  1.00  0.00    -0.028 A
HETATM   40  C7  UNL     1     -21.231 -45.168  26.445  1.00  0.00     0.016 A
HETATM   41  C8  UNL     1     -21.619 -45.747  27.622  1.00  0.00     0.050 A
HETATM   42  S1  UNL     1     -21.585 -44.442  28.718  1.00  0.00    -0.113 SA
HETATM   43  C9  UNL     1     -21.081 -43.206  27.658  1.00  0.00     0.058 A
ENDBRANCH   1  39
TORSDOF 6
ENDMDL