MODEL 3
REMARK VINA RESULT: -11.008021551      6.420     12.220
REMARK  4 active torsions:
REMARK  status: ('A' for Active; 'I' for Inactive)
REMARK    1  A    between atoms: C3_4  and  C4_5
REMARK    2  A    between atoms: N4_19  and  C13_21
REMARK    3  A    between atoms: C17_27  and  C18_28
REMARK    4  A    between atoms: C18_28  and  N6_29
ROOT
HETATM    1  N1  UNL     1     -16.050 -42.958  22.635  1.00  0.00    -0.191 NA
HETATM    2  C1  UNL     1     -16.427 -42.913  23.760  1.00  0.00     0.102 C
HETATM    3  C2  UNL     1     -16.911 -42.894  25.161  1.00  0.00     0.078 A
HETATM    4  C3  UNL     1     -16.069 -43.268  26.187  1.00  0.00     0.031 A
HETATM    5  S1  UNL     1     -17.057 -43.142  27.554  1.00  0.00    -0.070 SA
HETATM    6  C10 UNL     1     -18.525 -42.614  26.809  1.00  0.00     0.091 A
HETATM    7  N2  UNL     1     -19.768 -42.348  27.310  1.00  0.00    -0.346 N
ATOM      8  H2  UNL     1     -19.940 -42.408  28.314  1.00  0.00     0.167 HD
HETATM    9  C11 UNL     1     -20.773 -42.002  26.465  1.00  0.00     0.182 A
HETATM   10  N3  UNL     1     -20.440 -41.958  25.182  1.00  0.00    -0.338 N
ATOM     11  H3  UNL     1     -21.193 -41.701  24.544  1.00  0.00     0.168 HD
HETATM   12  C12 UNL     1     -19.261 -42.202  24.604  1.00  0.00     0.122 A
HETATM   13  N4  UNL     1     -19.062 -42.291  23.385  1.00  0.00    -0.327 N
ATOM     14  H4  UNL     1     -18.070 -42.478  23.233  1.00  0.00     0.169 HD
HETATM   15  C26 UNL     1     -18.179 -42.561  25.498  1.00  0.00     0.064 A
ENDROOT
BRANCH   4  16
HETATM   16  C4  UNL     1     -14.587 -43.569  26.189  1.00  0.00    -0.061 C
HETATM   17  C5  UNL     1     -13.848 -42.570  27.022  1.00  0.00     0.036 C
HETATM   18  C6  UNL     1     -12.639 -43.094  27.702  1.00  0.00     0.004 C
HETATM   19  C7  UNL     1     -12.798 -44.526  28.078  1.00  0.00     0.001 C
HETATM   20  C8  UNL     1     -13.082 -45.443  26.927  1.00  0.00     0.004 C
HETATM   21  C9  UNL     1     -14.185 -44.951  26.042  1.00  0.00     0.036 C
ENDBRANCH   4  16
BRANCH  13  22
HETATM   22  C13 UNL     1     -19.686 -42.230  22.158  1.00  0.00     0.117 A
HETATM   23  N5  UNL     1     -19.917 -43.512  21.628  1.00  0.00    -0.352 N
HETATM   24  C14 UNL     1     -20.522 -43.711  20.472  1.00  0.00     0.090 A
ATOM     25  H5  UNL     1     -19.603 -44.324  22.160  1.00  0.00     0.166 HD
HETATM   26  C15 UNL     1     -20.959 -42.629  19.724  1.00  0.00     0.018 A
HETATM   27  C16 UNL     1     -20.730 -41.372  20.243  1.00  0.00     0.017 A
HETATM   28  C17 UNL     1     -20.098 -41.157  21.457  1.00  0.00     0.018 A
BRANCH  28  29
HETATM   29  C18 UNL     1     -19.801 -39.775  21.917  1.00  0.00     0.074 C
BRANCH  29  30
HETATM   30  N6  UNL     1     -20.728 -38.842  21.435  1.00  0.00    -0.287 NA
HETATM   31  C19 UNL     1     -20.467 -38.466  20.053  1.00  0.00     0.128 C
HETATM   32  C20 UNL     1     -21.771 -37.967  19.634  1.00  0.00     0.209 C
HETATM   33  C21 UNL     1     -22.153 -37.288  18.430  1.00  0.00     0.137 C
HETATM   34  N8  UNL     1     -22.175 -37.041  20.715  1.00  0.00    -0.058 N
HETATM   35  C22 UNL     1     -23.669 -37.247  18.579  1.00  0.00     0.224 C
HETATM   36  O1  UNL     1     -24.223 -36.540  17.729  1.00  0.00    -0.273 OA
HETATM   37  N7  UNL     1     -24.531 -37.882  19.523  1.00  0.00    -0.323 N
HETATM   38  C23 UNL     1     -24.201 -38.138  20.778  1.00  0.00     0.092 C
ATOM     39  H7  UNL     1     -25.461 -38.156  19.209  1.00  0.00     0.169 HD
HETATM   40  S2  UNL     1     -25.496 -38.946  21.744  1.00  0.00    -0.035 SA
HETATM   41  C24 UNL     1     -22.982 -37.885  21.577  1.00  0.00     0.257 C
HETATM   42  C25 UNL     1     -22.079 -39.117  21.775  1.00  0.00     0.135 C
ATOM     43  H82 UNL     1     -21.402 -36.568  21.183  1.00  0.00     0.278 HD
ATOM     44  H81 UNL     1     -22.637 -36.188  20.397  1.00  0.00     0.278 HD
ENDBRANCH  29  30
ENDBRANCH  28  29
ENDBRANCH  13  22
TORSDOF 4
ENDMDL