MODEL 5
REMARK VINA RESULT: -10.828798271      3.315     13.033
REMARK  6 active torsions:
REMARK  status: ('A' for Active; 'I' for Inactive)
REMARK    1  A    between atoms: C2_2  and  N1_3
REMARK    2  A    between atoms: N1_3  and  C3_5
REMARK       I    between atoms: N3_12  and  C6_14
REMARK    3  A    between atoms: C6_14  and  C7_16
REMARK    4  A    between atoms: N4_19  and  C10_20
REMARK    5  A    between atoms: C14_28  and  O3_29
REMARK    6  A    between atoms: C18_34  and  N7_35
ROOT
HETATM    1  C7  UNL     1     -15.126 -43.158  25.147  1.00  0.00     0.081 C
HETATM    2  C8  UNL     1     -15.317 -43.937  23.872  1.00  0.00     0.034 C
HETATM    3  C9  UNL     1     -16.257 -43.127  22.972  1.00  0.00     0.142 C
HETATM    4  N4  UNL     1     -17.401 -42.707  23.753  1.00  0.00    -0.218 N
HETATM    5  C23 UNL     1     -17.607 -43.198  25.080  1.00  0.00     0.142 C
HETATM    6  C24 UNL     1     -16.405 -43.210  25.953  1.00  0.00     0.034 C
ENDROOT
BRANCH   4   7
HETATM    7  C10 UNL     1     -18.338 -41.814  23.176  1.00  0.00     0.680 A
HETATM    8  N5  UNL     1     -18.091 -41.128  22.050  1.00  0.00    -0.201 N
HETATM    9  C11 UNL     1     -18.939 -40.257  21.496  1.00  0.00     0.117 A
ATOM     10  H5  UNL     1     -17.196 -41.282  21.585  1.00  0.00     0.183 HD
HETATM   11  C12 UNL     1     -20.163 -40.061  22.150  1.00  0.00     0.017 A
HETATM   12  C13 UNL     1     -20.430 -40.753  23.302  1.00  0.00     0.065 A
HETATM   13  C18 UNL     1     -21.164 -39.115  21.624  1.00  0.00     0.263 C
HETATM   14  N6  UNL     1     -19.523 -41.605  23.784  1.00  0.00    -0.192 N
HETATM   15  C14 UNL     1     -21.740 -40.488  23.957  1.00  0.00     0.169 C
ATOM     16  H6  UNL     1     -19.734 -42.116  24.642  1.00  0.00     0.184 HD
HETATM   17  C15 UNL     1     -22.761 -40.671  22.824  1.00  0.00     0.044 C
HETATM   18  C16 UNL     1     -22.538 -39.660  21.727  1.00  0.00     0.022 C
HETATM   19  C17 UNL     1     -23.484 -38.495  22.024  1.00  0.00     0.012 C
BRANCH  15  20
HETATM   20  O3  UNL     1     -22.040 -41.410  24.934  1.00  0.00    -0.389 OA
ATOM     21  H3  UNL     1     -22.853 -41.214  25.383  1.00  0.00     0.210 HD
ENDBRANCH  15  20
BRANCH  13  22
HETATM   22  N7  UNL     1     -20.749 -38.612  20.362  1.00  0.00     0.098 N
HETATM   23  C19 UNL     1     -20.838 -37.167  20.302  1.00  0.00     0.273 C
HETATM   24  C20 UNL     1     -22.151 -36.810  19.669  1.00  0.00     0.032 C
HETATM   25  C21 UNL     1     -22.375 -37.963  18.728  1.00  0.00     0.032 C
HETATM   26  C22 UNL     1     -21.417 -39.037  19.198  1.00  0.00     0.273 C
ENDBRANCH  13  22
ENDBRANCH   4   7
BRANCH   1  27
HETATM   27  C6  UNL     1     -14.021 -43.819  25.928  1.00  0.00     0.227 C
HETATM   28  N3  UNL     1     -13.298 -43.043  26.815  1.00  0.00    -0.313 N
HETATM   29  C5  UNL     1     -12.369 -43.271  27.625  1.00  0.00     0.108 A
ATOM     30  H3  UNL     1     -13.586 -42.064  26.810  1.00  0.00     0.170 HD
HETATM   31  N2  UNL     1     -11.794 -44.445  27.846  1.00  0.00    -0.334 N
HETATM   32  C25 UNL     1     -11.846 -42.219  28.396  1.00  0.00     0.050 A
HETATM   33  C4  UNL     1     -10.774 -44.630  28.748  1.00  0.00     0.114 A
ATOM     34  H2  UNL     1     -12.126 -45.253  27.319  1.00  0.00     0.168 HD
HETATM   35  S1  UNL     1      -9.847 -45.972  29.248  1.00  0.00     0.057 SA
HETATM   36  C27 UNL     1     -10.244 -43.626  29.514  1.00  0.00     0.052 A
HETATM   37  O1  UNL     1      -8.883 -45.265  30.335  1.00  0.00    -0.254 OA
HETATM   38  C3  UNL     1      -9.236 -43.961  30.361  1.00  0.00     0.169 A
HETATM   39  C26 UNL     1     -10.833 -42.358  29.303  1.00  0.00     0.022 A
HETATM   40  O2  UNL     1     -13.814 -45.025  25.736  1.00  0.00    -0.273 OA
BRANCH  38  41
HETATM   41  N1  UNL     1      -8.560 -43.268  31.181  1.00  0.00    -0.349 N
ATOM     42  H1  UNL     1      -8.283 -42.383  30.756  1.00  0.00     0.167 HD
BRANCH  41  43
HETATM   43  C2  UNL     1      -8.091 -43.351  32.459  1.00  0.00     0.059 C
HETATM   44  C1  UNL     1      -9.052 -42.857  33.538  1.00  0.00     0.055 C
ENDBRANCH  41  43
ENDBRANCH  38  41
ENDBRANCH   1  27
TORSDOF 6
ENDMDL