MODEL 1
REMARK VINA RESULT: -7.865065501      0.000      0.000
REMARK  9 active torsions:
REMARK  status: ('A' for Active; 'I' for Inactive)
REMARK    1  A    between atoms: C2_2  and  C3_3
REMARK    2  A    between atoms: C3_3  and  C4_4
REMARK    3  A    between atoms: C4_4  and  S1_5
REMARK    4  A    between atoms: S1_5  and  C5_6
REMARK    5  A    between atoms: C8_9  and  C9_10
REMARK    6  A    between atoms: C12_13  and  C13_14
REMARK    7  A    between atoms: C14_15  and  C15_16
REMARK    8  A    between atoms: C17_20  and  N2_21
REMARK    9  A    between atoms: C18_26  and  N4_27
ROOT
HETATM    1  C9  UNL     1     -20.129  26.903 -16.402  1.00  0.00     0.014 A
HETATM    2  C10 UNL     1     -20.436  26.045 -17.420  1.00  0.00     0.018 A
HETATM    3  C11 UNL     1     -21.045  24.896 -17.097  1.00  0.00     0.020 A
HETATM    4  C12 UNL     1     -21.314  24.666 -15.776  1.00  0.00     0.005 A
HETATM    5  S2  UNL     1     -20.696  26.084 -15.025  1.00  0.00    -0.093 SA
ENDROOT
BRANCH   4   6
HETATM    6  C13 UNL     1     -21.969  23.499 -15.134  1.00  0.00     0.020 C
HETATM    7  C14 UNL     1     -23.275  23.474 -15.116  1.00  0.00     0.018 C
BRANCH   7   8
HETATM    8  C15 UNL     1     -23.993  22.367 -14.508  1.00  0.00     0.024 A
HETATM    9  C16 UNL     1     -24.208  21.186 -15.189  1.00  0.00     0.121 A
HETATM   10  N1  UNL     1     -24.886  20.171 -14.588  1.00  0.00    -0.201 N
HETATM   11  C17 UNL     1     -25.342  20.327 -13.333  1.00  0.00     0.677 A
ATOM     12  H1  UNL     1     -25.048  19.296 -15.087  1.00  0.00     0.183 HD
HETATM   13  N3  UNL     1     -25.158  21.451 -12.637  1.00  0.00    -0.177 N
HETATM   14  C18 UNL     1     -24.479  22.476 -13.230  1.00  0.00     0.126 A
ATOM     15  H3  UNL     1     -25.516  21.541 -11.687  1.00  0.00     0.186 HD
BRANCH  11  16
HETATM   16  N2  UNL     1     -25.993  19.343 -12.767  1.00  0.00    -0.234 N
ATOM     17  H22 UNL     1     -25.753  18.387 -13.027  1.00  0.00     0.174 HD
ATOM     18  H21 UNL     1     -26.719  19.559 -12.083  1.00  0.00     0.174 HD
ENDBRANCH  11  16
BRANCH  14  19
HETATM   19  N4  UNL     1     -24.343  23.517 -12.502  1.00  0.00    -0.384 N
ATOM     20  H42 UNL     1     -25.161  23.757 -11.943  1.00  0.00     0.157 HD
ATOM     21  H41 UNL     1     -23.492  24.080 -12.467  1.00  0.00     0.157 HD
ENDBRANCH  14  19
ENDBRANCH   7   8
ENDBRANCH   4   6
BRANCH   1  22
HETATM   22  C8  UNL     1     -19.462  28.231 -16.453  1.00  0.00     0.225 C
HETATM   23  C7  UNL     1     -19.862  29.131 -15.312  1.00  0.00     0.039 C
HETATM   24  C6  UNL     1     -18.766  30.205 -15.237  1.00  0.00     0.019 C
HETATM   25  C5  UNL     1     -18.354  30.605 -16.656  1.00  0.00     0.073 C
HETATM   26  C19 UNL     1     -19.410  30.291 -17.664  1.00  0.00     0.248 C
HETATM   27  N5  UNL     1     -19.772  28.890 -17.688  1.00  0.00    -0.065 N
ATOM     28  H52 UNL     1     -19.342  28.411 -18.479  1.00  0.00     0.278 HD
ATOM     29  H51 UNL     1     -20.753  28.765 -17.937  1.00  0.00     0.278 HD
BRANCH  25  30
HETATM   30  S1  UNL     1     -18.041  32.386 -16.624  1.00  0.00    -0.163 SA
BRANCH  30  31
HETATM   31  C4  UNL     1     -18.275  32.954 -14.901  1.00  0.00     0.074 C
BRANCH  31  32
HETATM   32  C3  UNL     1     -17.065  33.812 -14.526  1.00  0.00     0.010 C
BRANCH  32  33
HETATM   33  C2  UNL     1     -16.635  34.476 -15.840  1.00  0.00    -0.004 C
HETATM   34  C1  UNL     1     -16.852  35.976 -15.711  1.00  0.00     0.005 C
ENDBRANCH  32  33
ENDBRANCH  31  32
ENDBRANCH  30  31
ENDBRANCH  25  30
ENDBRANCH   1  22
TORSDOF 9
ENDMDL