MODEL 2
REMARK VINA RESULT: -9.256385600      1.299      2.396
REMARK  9 active torsions:
REMARK  status: ('A' for Active; 'I' for Inactive)
REMARK    1  A    between atoms: C4_4  and  C5_5
REMARK    2  A    between atoms: C5_5  and  C6_6
REMARK    3  A    between atoms: C6_6  and  C7_7
REMARK    4  A    between atoms: C7_7  and  C9_9
REMARK    5  A    between atoms: C9_9  and  C11_11
REMARK    6  A    between atoms: C12_12  and  C13_13
REMARK    7  A    between atoms: C14_14  and  C15_15
REMARK    8  A    between atoms: C16_16  and  C17_17
REMARK    9  A    between atoms: N5_32  and  O1_34
ROOT
HETATM    1  C17 UNL     1     -23.598  25.861 -13.329  1.00  0.00     0.056 C
HETATM    2  C18 UNL     1     -23.960  24.599 -13.412  1.00  0.00     0.151 A
HETATM    3  N1  UNL     1     -23.548  23.733 -14.439  1.00  0.00    -0.321 N
ATOM      4  H1  UNL     1     -22.933  24.057 -15.186  1.00  0.00     0.169 HD
HETATM    5  C19 UNL     1     -24.022  22.374 -14.405  1.00  0.00     0.140 A
HETATM    6  N2  UNL     1     -23.784  21.359 -15.250  1.00  0.00    -0.283 N
ATOM      7  H2  UNL     1     -23.202  21.404 -16.086  1.00  0.00     0.188 HD
HETATM    8  N3  UNL     1     -24.438  20.283 -14.812  1.00  0.00    -0.283 N
ATOM      9  H3  UNL     1     -24.432  19.370 -15.266  1.00  0.00     0.188 HD
HETATM   10  C20 UNL     1     -25.106  20.579 -13.684  1.00  0.00     0.132 A
HETATM   11  N4  UNL     1     -25.841  19.774 -12.993  1.00  0.00    -0.384 N
ATOM     12  H41 UNL     1     -26.349  19.999 -12.137  1.00  0.00     0.157 HD
ATOM     13  H42 UNL     1     -26.029  18.792 -13.196  1.00  0.00     0.157 HD
HETATM   14  C21 UNL     1     -24.853  21.907 -13.409  1.00  0.00     0.107 A
HETATM   15  C22 UNL     1     -25.274  22.812 -12.347  1.00  0.00     0.187 A
HETATM   16  N5  UNL     1     -26.053  22.389 -11.408  1.00  0.00    -0.246 N
ATOM     17  H5  UNL     1     -26.363  21.418 -11.426  1.00  0.00     0.196 HD
HETATM   18  O2  UNL     1     -24.814  24.115 -12.391  1.00  0.00    -0.274 OA
ENDROOT
BRANCH   1  19
HETATM   19  C16 UNL     1     -22.740  26.474 -14.294  1.00  0.00     0.004 C
HETATM   20  C15 UNL     1     -21.415  26.387 -14.200  1.00  0.00     0.000 C
BRANCH  20  21
HETATM   21  C14 UNL     1     -20.729  25.688 -13.145  1.00  0.00     0.000 C
HETATM   22  C13 UNL     1     -20.098  26.332 -12.195  1.00  0.00    -0.000 C
BRANCH  22  23
HETATM   23  C12 UNL     1     -20.002  27.752 -12.073  1.00  0.00    -0.004 C
HETATM   24  C11 UNL     1     -19.142  28.521 -12.727  1.00  0.00    -0.022 C
BRANCH  24  25
HETATM   25  C9  UNL     1     -18.146  28.041 -13.686  1.00  0.00     0.008 C
HETATM   26  C10 UNL     1     -16.800  28.652 -13.346  1.00  0.00     0.014 C
BRANCH  25  27
HETATM   27  C7  UNL     1     -18.572  28.414 -15.096  1.00  0.00    -0.011 C
HETATM   28  C8  UNL     1     -18.493  27.211 -16.020  1.00  0.00     0.010 C
BRANCH  27  29
HETATM   29  C6  UNL     1     -17.724  29.491 -15.681  1.00  0.00     0.009 C
BRANCH  29  30
HETATM   30  C5  UNL     1     -18.456  30.805 -15.582  1.00  0.00     0.028 C
BRANCH  30  31
HETATM   31  C4  UNL     1     -17.713  31.834 -14.825  1.00  0.00    -0.025 C
HETATM   32  C2  UNL     1     -17.675  33.106 -15.223  1.00  0.00    -0.091 C
HETATM   33  C1  UNL     1     -18.410  33.464 -16.465  1.00  0.00     0.042 C
HETATM   34  C3  UNL     1     -16.944  34.156 -14.491  1.00  0.00     0.042 C
ENDBRANCH  30  31
ENDBRANCH  29  30
ENDBRANCH  27  29
ENDBRANCH  25  27
ENDBRANCH  24  25
ENDBRANCH  22  23
ENDBRANCH  20  21
ENDBRANCH   1  19
BRANCH  16  35
HETATM   35  O1  UNL     1     -26.479  23.202 -10.385  1.00  0.00    -0.288 OA
ATOM     36  H1  UNL     1     -27.399  23.352 -10.206  1.00  0.00     0.244 HD
ENDBRANCH  16  35
TORSDOF 9
ENDMDL