MODEL 5
REMARK VINA RESULT: -6.977355998      2.188      4.318
REMARK  11 active torsions:
REMARK  status: ('A' for Active; 'I' for Inactive)
REMARK    1  A    between atoms: C2_2  and  C3_3
REMARK    2  A    between atoms: C9_12  and  C10_13
REMARK    3  A    between atoms: C10_13  and  C11_14
REMARK    4  A    between atoms: C11_14  and  O1_15
REMARK    5  A    between atoms: C11_14  and  C12_17
REMARK    6  A    between atoms: C12_17  and  C13_18
REMARK    7  A    between atoms: C13_18  and  C15_20
REMARK    8  A    between atoms: C16_21  and  O2_22
REMARK    9  A    between atoms: C17_25  and  O4_26
REMARK   10  A    between atoms: C18_28  and  C19_29
REMARK   11  A    between atoms: C19_29  and  C20_30
ROOT
HETATM    1  C11 UNL     1     -20.412  23.376 -13.756  1.00  0.00     0.119 C
ENDROOT
BRANCH   1   2
HETATM    2  C10 UNL     1     -19.995  24.672 -13.170  1.00  0.00     0.036 C
BRANCH   2   3
HETATM    3  C9  UNL     1     -19.925  25.805 -14.169  1.00  0.00    -0.009 C
HETATM    4  C8  UNL     1     -18.605  25.805 -14.918  1.00  0.00     0.039 C
HETATM    5  C7  UNL     1     -18.486  27.245 -15.419  1.00  0.00     0.198 C
HETATM    6  C3  UNL     1     -19.081  28.073 -14.336  1.00  0.00     0.005 C
HETATM    7  N1  UNL     1     -19.227  27.317 -16.662  1.00  0.00    -0.067 N
HETATM    8  C4  UNL     1     -19.875  29.224 -14.895  1.00  0.00    -0.017 C
HETATM    9  C23 UNL     1     -19.941  27.176 -13.507  1.00  0.00     0.020 C
HETATM   10  C5  UNL     1     -19.948  29.508 -16.180  1.00  0.00    -0.003 C
HETATM   11  C6  UNL     1     -19.221  28.667 -17.170  1.00  0.00     0.260 C
ATOM     12  H12 UNL     1     -20.175  26.952 -16.562  1.00  0.00     0.277 HD
ATOM     13  H11 UNL     1     -18.880  26.650 -17.351  1.00  0.00     0.277 HD
BRANCH   6  14
HETATM   14  C2  UNL     1     -18.011  28.724 -13.463  1.00  0.00     0.011 C
HETATM   15  C1  UNL     1     -16.734  28.942 -14.223  1.00  0.00     0.006 C
ENDBRANCH   6  14
ENDBRANCH   2   3
ENDBRANCH   1   2
BRANCH   1  16
HETATM   16  O1  UNL     1     -19.431  22.617 -14.359  1.00  0.00    -0.396 OA
ATOM     17  H1  UNL     1     -19.038  22.969 -15.148  1.00  0.00     0.210 HD
ENDBRANCH   1  16
BRANCH   1  18
HETATM   18  C12 UNL     1     -21.728  23.426 -14.499  1.00  0.00     0.041 C
BRANCH  18  19
HETATM   19  C13 UNL     1     -21.697  23.022 -15.893  1.00  0.00     0.022 C
HETATM   20  C14 UNL     1     -23.057  22.488 -16.397  1.00  0.00     0.015 C
BRANCH  19  21
HETATM   21  C15 UNL     1     -21.260  23.947 -16.932  1.00  0.00     0.015 A
HETATM   22  C16 UNL     1     -20.045  23.675 -17.625  1.00  0.00     0.193 A
HETATM   23  O3  UNL     1     -19.883  24.590 -18.527  1.00  0.00    -0.264 OA
HETATM   24  C17 UNL     1     -20.866  25.439 -18.500  1.00  0.00     0.192 A
HETATM   25  C18 UNL     1     -21.783  25.073 -17.490  1.00  0.00     0.012 A
BRANCH  22  26
HETATM   26  O2  UNL     1     -19.161  22.632 -17.408  1.00  0.00    -0.340 OA
ATOM     27  H2  UNL     1     -18.241  22.687 -17.178  1.00  0.00     0.220 HD
ENDBRANCH  22  26
BRANCH  24  28
HETATM   28  O4  UNL     1     -21.056  26.568 -19.317  1.00  0.00    -0.340 OA
ATOM     29  H4  UNL     1     -21.484  27.387 -19.093  1.00  0.00     0.220 HD
ENDBRANCH  24  28
BRANCH  25  30
HETATM   30  C19 UNL     1     -22.988  25.825 -17.148  1.00  0.00     0.048 C
BRANCH  30  31
HETATM   31  C20 UNL     1     -22.783  27.039 -16.276  1.00  0.00    -0.018 C
HETATM   32  C21 UNL     1     -23.481  26.843 -14.922  1.00  0.00     0.010 C
HETATM   33  C22 UNL     1     -23.463  28.263 -16.875  1.00  0.00     0.010 C
ENDBRANCH  30  31
ENDBRANCH  25  30
ENDBRANCH  19  21
ENDBRANCH  18  19
ENDBRANCH   1  18
TORSDOF 11
ENDMDL