MODEL 3
REMARK VINA RESULT: -6.982226210      1.364      3.364
REMARK  9 active torsions:
REMARK  status: ('A' for Active; 'I' for Inactive)
REMARK    1  A    between atoms: C2_2  and  N1_3
REMARK    2  A    between atoms: N1_3  and  C3_4
REMARK    3  A    between atoms: N1_3  and  C5_6
REMARK    4  A    between atoms: C5_6  and  C6_7
REMARK    5  A    between atoms: C7_9  and  C8_10
REMARK    6  A    between atoms: C11_16  and  N3_17
REMARK    7  A    between atoms: C12_22  and  N5_23
REMARK    8  A    between atoms: C15_28  and  C16_29
REMARK    9  A    between atoms: C16_29  and  C17_30
ROOT
HETATM    1  C8  UNL     1     -24.102  24.458 -13.158  1.00  0.00     0.004 A
HETATM    2  C9  UNL     1     -24.589  25.019 -11.989  1.00  0.00     0.065 A
HETATM    3  S2  UNL     1     -25.413  23.763 -11.232  1.00  0.00    -0.082 SA
HETATM    4  C10 UNL     1     -25.148  22.533 -12.382  1.00  0.00     0.105 A
HETATM    5  N2  UNL     1     -25.537  21.223 -12.454  1.00  0.00    -0.185 N
ATOM      6  H2  UNL     1     -26.090  20.825 -11.694  1.00  0.00     0.185 HD
HETATM    7  C11 UNL     1     -25.211  20.454 -13.494  1.00  0.00     0.678 A
HETATM    8  N4  UNL     1     -24.495  21.000 -14.464  1.00  0.00    -0.176 N
ATOM      9  H4  UNL     1     -24.239  20.426 -15.268  1.00  0.00     0.186 HD
HETATM   10  C12 UNL     1     -24.091  22.284 -14.431  1.00  0.00     0.128 A
HETATM   11  C13 UNL     1     -24.404  23.143 -13.357  1.00  0.00     0.054 A
ENDROOT
BRANCH   1  12
HETATM   12  C7  UNL     1     -23.332  25.393 -14.059  1.00  0.00     0.017 A
HETATM   13  S1  UNL     1     -23.774  26.293 -15.417  1.00  0.00    -0.092 SA
HETATM   14  C6  UNL     1     -22.318  27.130 -15.743  1.00  0.00     0.007 A
HETATM   15  C15 UNL     1     -21.503  26.667 -14.755  1.00  0.00    -0.042 A
HETATM   16  C14 UNL     1     -22.026  25.774 -13.889  1.00  0.00     0.028 A
BRANCH  14  17
HETATM   17  C5  UNL     1     -22.103  28.176 -16.816  1.00  0.00     0.168 C
BRANCH  17  18
HETATM   18  N1  UNL     1     -21.726  27.560 -18.052  1.00  0.00    -0.389 N
BRANCH  18  19
HETATM   19  C2  UNL     1     -20.359  27.562 -18.362  1.00  0.00     0.118 C
HETATM   20  C1  UNL     1     -19.639  28.827 -17.863  1.00  0.00     0.026 C
ENDBRANCH  18  19
BRANCH  18  21
HETATM   21  C3  UNL     1     -22.681  27.733 -19.066  1.00  0.00     0.054 C
HETATM   22  C4  UNL     1     -22.948  29.169 -19.444  1.00  0.00     0.054 C
ENDBRANCH  18  21
ENDBRANCH  17  18
ENDBRANCH  14  17
BRANCH  15  23
HETATM   23  C16 UNL     1     -20.034  27.068 -14.629  1.00  0.00     0.043 C
BRANCH  23  24
HETATM   24  C17 UNL     1     -19.861  28.285 -13.798  1.00  0.00    -0.019 C
HETATM   25  C18 UNL     1     -19.737  28.123 -12.327  1.00  0.00     0.010 C
HETATM   26  C19 UNL     1     -18.695  29.149 -14.339  1.00  0.00     0.010 C
ENDBRANCH  23  24
ENDBRANCH  15  23
ENDBRANCH   1  12
BRANCH  10  27
HETATM   27  N5  UNL     1     -23.431  22.667 -15.449  1.00  0.00    -0.384 N
ATOM     28  H52 UNL     1     -22.839  23.497 -15.442  1.00  0.00     0.157 HD
ATOM     29  H51 UNL     1     -23.553  22.093 -16.284  1.00  0.00     0.157 HD
ENDBRANCH  10  27
BRANCH   7  30
HETATM   30  N3  UNL     1     -25.578  19.220 -13.562  1.00  0.00    -0.234 N
ATOM     31  H32 UNL     1     -26.150  18.807 -12.826  1.00  0.00     0.174 HD
ATOM     32  H31 UNL     1     -25.309  18.626 -14.346  1.00  0.00     0.174 HD
ENDBRANCH   7  30
TORSDOF 9
ENDMDL