MODEL 4
REMARK VINA RESULT: -8.212313816      2.047      2.439
REMARK  10 active torsions:
REMARK  status: ('A' for Active; 'I' for Inactive)
REMARK    1  A    between atoms: C2_2  and  C4_4
REMARK    2  A    between atoms: C5_5  and  O1_6
REMARK    3  A    between atoms: C6_8  and  O2_9
REMARK    4  A    between atoms: O2_9  and  C7_10
REMARK    5  A    between atoms: C9_19  and  O3_20
REMARK    6  A    between atoms: C12_24  and  C14_26
REMARK    7  A    between atoms: C14_26  and  C15_27
REMARK    8  A    between atoms: C15_27  and  C16_28
REMARK    9  A    between atoms: C17_29  and  C18_30
REMARK   10  A    between atoms: C18_30  and  C19_31
ROOT
HETATM    1  C4  UNL     1     -22.270  27.641 -15.788  1.00  0.00     0.053 C
HETATM    2  C5  UNL     1     -22.905  27.128 -14.528  1.00  0.00     0.157 C
HETATM    3  C6  UNL     1     -22.495  25.655 -14.595  1.00  0.00     0.164 C
HETATM    4  C10 UNL     1     -21.004  25.749 -14.975  1.00  0.00     0.022 C
HETATM    5  C11 UNL     1     -20.579  24.516 -15.698  1.00  0.00     0.013 C
HETATM    6  C12 UNL     1     -20.930  27.007 -15.790  1.00  0.00    -0.028 C
HETATM    7  C13 UNL     1     -20.306  26.739 -17.128  1.00  0.00     0.016 C
ENDROOT
BRANCH   3   8
HETATM    8  O2  UNL     1     -22.679  24.978 -13.456  1.00  0.00    -0.324 OA
BRANCH   8   9
HETATM    9  C7  UNL     1     -23.680  24.611 -12.662  1.00  0.00     0.195 A
HETATM   10  N1  UNL     1     -24.129  25.450 -11.654  1.00  0.00    -0.276 N
HETATM   11  N2  UNL     1     -25.113  24.890 -11.004  1.00  0.00    -0.281 N
ATOM     12  H1  UNL     1     -23.746  26.373 -11.450  1.00  0.00     0.189 HD
HETATM   13  C8  UNL     1     -25.395  23.688 -11.495  1.00  0.00     0.152 A
ATOM     14  H2  UNL     1     -25.604  25.320 -10.220  1.00  0.00     0.188 HD
HETATM   15  N3  UNL     1     -26.280  22.857 -11.122  1.00  0.00    -0.382 N
HETATM   16  C9  UNL     1     -24.480  23.505 -12.556  1.00  0.00     0.164 A
ATOM     17  H32 UNL     1     -26.941  22.989 -10.356  1.00  0.00     0.157 HD
ATOM     18  H31 UNL     1     -26.497  21.934 -11.498  1.00  0.00     0.157 HD
BRANCH  16  19
HETATM   19  O3  UNL     1     -24.470  22.361 -13.310  1.00  0.00    -0.354 OA
ATOM     20  H3  UNL     1     -23.899  21.605 -13.238  1.00  0.00     0.218 HD
ENDBRANCH  16  19
ENDBRANCH   8   9
ENDBRANCH   3   8
BRANCH   2  21
HETATM   21  O1  UNL     1     -24.224  27.357 -14.354  1.00  0.00    -0.392 OA
ATOM     22  H1  UNL     1     -24.767  27.420 -15.131  1.00  0.00     0.210 HD
ENDBRANCH   2  21
BRANCH   1  23
HETATM   23  C2  UNL     1     -23.069  27.565 -17.003  1.00  0.00    -0.086 C
HETATM   24  C1  UNL     1     -23.701  26.520 -17.503  1.00  0.00     0.014 C
HETATM   25  C3  UNL     1     -23.252  28.855 -17.776  1.00  0.00     0.043 C
ENDBRANCH   1  23
BRANCH   6  26
HETATM   26  C14 UNL     1     -19.968  27.951 -15.061  1.00  0.00     0.014 C
BRANCH  26  27
HETATM   27  C15 UNL     1     -18.536  27.481 -15.168  1.00  0.00     0.027 C
BRANCH  27  28
HETATM   28  C16 UNL     1     -17.683  28.685 -14.982  1.00  0.00    -0.030 C
HETATM   29  C17 UNL     1     -18.273  29.863 -14.850  1.00  0.00    -0.027 C
BRANCH  29  30
HETATM   30  C18 UNL     1     -17.493  31.128 -14.658  1.00  0.00     0.054 C
BRANCH  30  31
HETATM   31  C19 UNL     1     -18.091  32.132 -15.605  1.00  0.00    -0.021 C
HETATM   32  C20 UNL     1     -17.823  33.409 -15.496  1.00  0.00    -0.091 C
HETATM   33  C21 UNL     1     -16.910  33.901 -14.419  1.00  0.00     0.042 C
HETATM   34  C22 UNL     1     -18.439  34.361 -16.455  1.00  0.00     0.042 C
ENDBRANCH  30  31
ENDBRANCH  29  30
ENDBRANCH  27  28
ENDBRANCH  26  27
ENDBRANCH   6  26
TORSDOF 10
ENDMDL