MODEL 2
REMARK VINA RESULT: -7.436535334      1.397      2.443
REMARK  10 active torsions:
REMARK  status: ('A' for Active; 'I' for Inactive)
REMARK    1  A    between atoms: C2_2  and  C3_3
REMARK    2  A    between atoms: C3_3  and  C4_4
REMARK    3  A    between atoms: C4_4  and  C5_5
REMARK    4  A    between atoms: C5_5  and  C6_6
REMARK    5  A    between atoms: C6_6  and  N1_7
REMARK    6  A    between atoms: C7_8  and  O1_9
REMARK    7  A    between atoms: C8_11  and  C9_12
REMARK    8  A    between atoms: C9_12  and  O2_13
REMARK    9  A    between atoms: C9_12  and  C10_15
REMARK   10  A    between atoms: C21_29  and  O3_30
ROOT
HETATM    1  N1  UNL     1     -22.373  24.850 -14.140  1.00  0.00    -0.313 N
HETATM    2  C7  UNL     1     -21.852  25.686 -13.263  1.00  0.00     0.153 A
HETATM    3  C8  UNL     1     -20.453  25.817 -13.473  1.00  0.00     0.038 A
HETATM    4  C18 UNL     1     -20.165  25.014 -14.537  1.00  0.00     0.032 A
HETATM    5  C19 UNL     1     -19.171  24.579 -15.412  1.00  0.00     0.004 A
HETATM    6  C20 UNL     1     -17.745  24.973 -15.486  1.00  0.00     0.054 C
HETATM    7  C21 UNL     1     -19.810  23.730 -16.306  1.00  0.00     0.148 A
HETATM    8  N3  UNL     1     -21.107  23.660 -15.996  1.00  0.00    -0.322 N
ATOM      9  H3  UNL     1     -21.797  23.102 -16.500  1.00  0.00     0.169 HD
HETATM   10  C22 UNL     1     -21.373  24.427 -14.925  1.00  0.00     0.123 A
ENDROOT
BRANCH   3  11
HETATM   11  C9  UNL     1     -19.652  26.759 -12.707  1.00  0.00     0.187 C
BRANCH  11  12
HETATM   12  O2  UNL     1     -19.995  26.608 -11.310  1.00  0.00    -0.389 OA
ATOM     13  H2  UNL     1     -19.417  27.167 -10.802  1.00  0.00     0.210 HD
ENDBRANCH  11  12
BRANCH  11  14
HETATM   14  C10 UNL     1     -19.690  28.216 -13.030  1.00  0.00     0.220 C
HETATM   15  C11 UNL     1     -18.269  28.789 -13.052  1.00  0.00     0.042 C
HETATM   16  C12 UNL     1     -17.926  28.952 -14.470  1.00  0.00     0.018 C
HETATM   17  C13 UNL     1     -17.427  30.365 -14.701  1.00  0.00     0.011 C
HETATM   18  C17 UNL     1     -19.196  28.783 -15.250  1.00  0.00     0.191 C
HETATM   19  C14 UNL     1     -18.583  31.118 -15.313  1.00  0.00    -0.016 C
HETATM   20  C15 UNL     1     -18.000  32.152 -16.238  1.00  0.00     0.010 C
HETATM   21  C16 UNL     1     -19.407  30.077 -16.016  1.00  0.00     0.037 C
HETATM   22  N2  UNL     1     -20.246  28.442 -14.352  1.00  0.00    -0.064 N
ATOM     23  H22 UNL     1     -20.794  27.649 -14.681  1.00  0.00     0.278 HD
ATOM     24  H21 UNL     1     -20.990  29.139 -14.344  1.00  0.00     0.278 HD
ENDBRANCH  11  14
ENDBRANCH   3  11
BRANCH   2  25
HETATM   25  O1  UNL     1     -22.562  26.351 -12.267  1.00  0.00    -0.345 OA
ATOM     26  H1  UNL     1     -22.711  27.288 -12.233  1.00  0.00     0.219 HD
ENDBRANCH   2  25
BRANCH   1  27
HETATM   27  C6  UNL     1     -23.790  24.433 -14.222  1.00  0.00     0.133 C
BRANCH  27  28
HETATM   28  C5  UNL     1     -24.067  23.453 -13.120  1.00  0.00     0.020 C
BRANCH  28  29
HETATM   29  C4  UNL     1     -24.493  22.105 -13.637  1.00  0.00     0.002 C
BRANCH  29  30
HETATM   30  C3  UNL     1     -25.176  21.228 -12.654  1.00  0.00    -0.000 C
BRANCH  30  31
HETATM   31  C2  UNL     1     -25.605  19.897 -13.239  1.00  0.00    -0.005 C
HETATM   32  C1  UNL     1     -25.405  19.909 -14.756  1.00  0.00     0.005 C
ENDBRANCH  30  31
ENDBRANCH  29  30
ENDBRANCH  28  29
ENDBRANCH  27  28
ENDBRANCH   1  27
BRANCH   7  33
HETATM   33  O3  UNL     1     -19.151  23.076 -17.350  1.00  0.00    -0.346 OA
ATOM     34  H3  UNL     1     -18.914  22.156 -17.325  1.00  0.00     0.219 HD
ENDBRANCH   7  33
TORSDOF 10
ENDMDL