MODEL 5
REMARK VINA RESULT: -8.444424601      1.223      2.303
REMARK  8 active torsions:
REMARK  status: ('A' for Active; 'I' for Inactive)
REMARK    1  A    between atoms: O1_1  and  N1_3
REMARK    2  A    between atoms: N1_3  and  C1_4
REMARK    3  A    between atoms: N1_3  and  C9_12
REMARK    4  A    between atoms: C1_4  and  C2_5
REMARK    5  A    between atoms: C11_14  and  N2_15
REMARK    6  A    between atoms: N2_15  and  C12_17
REMARK    7  A    between atoms: C12_17  and  C13_18
REMARK    8  A    between atoms: C13_18  and  C14_19
ROOT
HETATM    1  C9  UNL     1     -19.463  28.546 -15.765  1.00  0.00     0.060 A
HETATM    2  C10 UNL     1     -20.399  28.206 -14.798  1.00  0.00     0.063 A
HETATM    3  C11 UNL     1     -20.467  26.972 -14.204  1.00  0.00     0.059 A
HETATM    4  C19 UNL     1     -19.522  26.030 -14.623  1.00  0.00     0.086 A
HETATM    5  N4  UNL     1     -19.291  24.759 -14.273  1.00  0.00    -0.298 N
ATOM      6  H4  UNL     1     -19.826  24.239 -13.578  1.00  0.00     0.187 HD
HETATM    7  N5  UNL     1     -18.264  24.272 -14.962  1.00  0.00    -0.310 N
ATOM      8  H5  UNL     1     -17.899  23.324 -14.872  1.00  0.00     0.186 HD
HETATM    9  C20 UNL     1     -17.775  25.209 -15.798  1.00  0.00     0.121 A
HETATM   10  C21 UNL     1     -18.575  26.316 -15.577  1.00  0.00     0.013 A
HETATM   11  C22 UNL     1     -18.544  27.558 -16.142  1.00  0.00     0.047 A
ENDROOT
BRANCH   1  12
HETATM   12  N1  UNL     1     -19.359  29.805 -16.382  1.00  0.00    -0.258 N
BRANCH  12  13
HETATM   13  O1  UNL     1     -20.310  30.319 -17.202  1.00  0.00    -0.287 OA
ATOM     14  H1  UNL     1     -20.848  29.685 -17.660  1.00  0.00     0.244 HD
ENDBRANCH  12  13
BRANCH  12  15
HETATM   15  C1  UNL     1     -18.188  30.651 -16.156  1.00  0.00     0.183 C
BRANCH  15  16
HETATM   16  C2  UNL     1     -18.357  31.968 -16.787  1.00  0.00    -0.002 C
HETATM   17  C3  UNL     1     -18.278  33.097 -16.141  1.00  0.00    -0.082 C
HETATM   18  C4  UNL     1     -18.012  33.281 -14.707  1.00  0.00     0.034 C
HETATM   19  C8  UNL     1     -18.476  34.384 -16.922  1.00  0.00     0.034 C
HETATM   20  C5  UNL     1     -16.679  34.004 -14.518  1.00  0.00     0.004 C
HETATM   21  C6  UNL     1     -16.364  34.843 -15.745  1.00  0.00     0.001 C
HETATM   22  C7  UNL     1     -17.629  35.456 -16.320  1.00  0.00     0.004 C
ENDBRANCH  15  16
ENDBRANCH  12  15
ENDBRANCH   1  12
BRANCH   3  23
HETATM   23  N2  UNL     1     -21.381  26.602 -13.193  1.00  0.00    -0.388 N
ATOM     24  H2  UNL     1     -21.082  26.707 -12.224  1.00  0.00     0.159 HD
BRANCH  23  25
HETATM   25  C12 UNL     1     -22.720  26.081 -13.434  1.00  0.00     0.120 C
BRANCH  25  26
HETATM   26  C13 UNL     1     -22.838  24.788 -12.696  1.00  0.00     0.024 C
BRANCH  26  27
HETATM   27  C14 UNL     1     -22.836  23.563 -13.583  1.00  0.00    -0.010 C
HETATM   28  C15 UNL     1     -22.670  23.977 -15.034  1.00  0.00     0.024 C
HETATM   29  C16 UNL     1     -22.779  22.800 -15.939  1.00  0.00     0.114 C
HETATM   30  N3  UNL     1     -23.404  21.645 -15.389  1.00  0.00    -0.421 N
HETATM   31  C17 UNL     1     -24.474  21.884 -14.483  1.00  0.00     0.114 C
ATOM     32  H3  UNL     1     -23.101  20.701 -15.631  1.00  0.00     0.153 HD
HETATM   33  C18 UNL     1     -24.241  22.970 -13.492  1.00  0.00     0.024 C
ENDBRANCH  26  27
ENDBRANCH  25  26
ENDBRANCH  23  25
ENDBRANCH   3  23
TORSDOF 8
ENDMDL