MODEL 1
REMARK VINA RESULT: -8.282926213      0.000      0.000
REMARK  12 active torsions:
REMARK  status: ('A' for Active; 'I' for Inactive)
REMARK    1  A    between atoms: C3_3  and  C5_5
REMARK    2  A    between atoms: C6_6  and  C7_7
REMARK    3  A    between atoms: C8_9  and  O2_10
REMARK    4  A    between atoms: C9_12  and  C10_13
REMARK    5  A    between atoms: C10_13  and  C11_14
REMARK    6  A    between atoms: C10_13  and  C15_18
REMARK    7  A    between atoms: C11_14  and  C12_15
REMARK    8  A    between atoms: C15_18  and  C16_19
REMARK    9  A    between atoms: C17_20  and  O3_21
REMARK   10  A    between atoms: C20_25  and  O4_26
REMARK   11  A    between atoms: C21_28  and  O5_30
REMARK   12  A    between atoms: C23_32  and  O6_33
ROOT
HETATM    1  C10 UNL     1     -20.435  26.435 -15.311  1.00  0.00    -0.043 C
ENDROOT
BRANCH   1   2
HETATM    2  C9  UNL     1     -19.781  27.707 -15.578  1.00  0.00     0.064 A
HETATM    3  C8  UNL     1     -19.337  28.186 -16.822  1.00  0.00     0.197 A
HETATM    4  O1  UNL     1     -18.874  29.360 -16.718  1.00  0.00    -0.284 OA
HETATM    5  C7  UNL     1     -18.940  29.815 -15.457  1.00  0.00     0.112 A
HETATM    6  C23 UNL     1     -19.507  28.800 -14.713  1.00  0.00     0.115 A
BRANCH   3   7
HETATM    7  O2  UNL     1     -19.410  27.445 -17.994  1.00  0.00    -0.340 OA
ATOM      8  H2  UNL     1     -19.775  27.746 -18.818  1.00  0.00     0.220 HD
ENDBRANCH   3   7
BRANCH   5   9
HETATM    9  C6  UNL     1     -18.453  31.130 -15.170  1.00  0.00     0.041 C
HETATM   10  C5  UNL     1     -18.189  32.080 -16.012  1.00  0.00     0.009 C
BRANCH  10  11
HETATM   11  C3  UNL     1     -17.690  33.400 -15.582  1.00  0.00    -0.066 C
HETATM   12  C2  UNL     1     -17.891  34.446 -16.348  1.00  0.00    -0.024 C
HETATM   13  C1  UNL     1     -17.438  35.823 -16.019  1.00  0.00     0.036 C
HETATM   14  C4  UNL     1     -16.976  33.511 -14.294  1.00  0.00     0.048 C
ENDBRANCH  10  11
ENDBRANCH   5   9
BRANCH   6  15
HETATM   15  O6  UNL     1     -19.762  28.836 -13.393  1.00  0.00    -0.357 OA
ATOM     16  H6  UNL     1     -20.621  28.889 -12.992  1.00  0.00     0.217 HD
ENDBRANCH   6  15
ENDBRANCH   1   2
BRANCH   1  17
HETATM   17  C11 UNL     1     -19.651  25.497 -14.462  1.00  0.00     0.043 C
BRANCH  17  18
HETATM   18  C12 UNL     1     -19.267  24.187 -15.020  1.00  0.00    -0.019 C
HETATM   19  C13 UNL     1     -19.260  24.204 -16.560  1.00  0.00     0.010 C
HETATM   20  C14 UNL     1     -19.693  22.899 -14.476  1.00  0.00     0.010 C
ENDBRANCH  17  18
ENDBRANCH   1  17
BRANCH   1  21
HETATM   21  C15 UNL     1     -21.890  26.386 -15.132  1.00  0.00    -0.008 C
BRANCH  21  22
HETATM   22  C16 UNL     1     -22.626  25.576 -14.188  1.00  0.00     0.074 C
HETATM   23  C17 UNL     1     -23.413  26.317 -13.161  1.00  0.00     0.129 C
HETATM   24  C18 UNL     1     -24.087  25.366 -12.169  1.00  0.00     0.035 C
HETATM   25  C19 UNL     1     -24.883  24.291 -12.825  1.00  0.00     0.037 C
HETATM   26  C20 UNL     1     -24.041  23.608 -13.871  1.00  0.00     0.152 C
HETATM   27  C21 UNL     1     -23.646  24.656 -14.885  1.00  0.00     0.089 C
HETATM   28  C22 UNL     1     -23.054  23.947 -16.066  1.00  0.00     0.049 C
BRANCH  23  29
HETATM   29  O3  UNL     1     -24.475  27.063 -13.733  1.00  0.00    -0.395 OA
ATOM     30  H3  UNL     1     -25.315  26.848 -13.345  1.00  0.00     0.210 HD
ENDBRANCH  23  29
BRANCH  26  31
HETATM   31  O4  UNL     1     -22.910  23.073 -13.254  1.00  0.00    -0.393 OA
ATOM     32  H4  UNL     1     -23.142  22.238 -12.867  1.00  0.00     0.210 HD
ENDBRANCH  26  31
BRANCH  27  33
HETATM   33  O5  UNL     1     -24.770  25.330 -15.284  1.00  0.00    -0.387 OA
ATOM     34  H5  UNL     1     -25.014  25.129 -16.180  1.00  0.00     0.210 HD
ENDBRANCH  27  33
ENDBRANCH  21  22
ENDBRANCH   1  21
TORSDOF 12
ENDMDL