MODEL 4
REMARK VINA RESULT: -7.315529883      1.853      2.592
REMARK  8 active torsions:
REMARK  status: ('A' for Active; 'I' for Inactive)
REMARK    1  A    between atoms: C3_3  and  C4_4
REMARK    2  A    between atoms: C4_4  and  N1_5
REMARK    3  A    between atoms: C4_4  and  C16_21
REMARK    4  A    between atoms: N1_5  and  C5_7
REMARK    5  A    between atoms: C5_7  and  C6_8
REMARK    6  A    between atoms: C5_7  and  C13_15
REMARK    7  A    between atoms: C6_8  and  C7_9
REMARK    8  A    between atoms: C20_32  and  N6_33
ROOT
HETATM    1  C4  UNL     1     -20.554  27.052 -14.163  1.00  0.00     0.132 C
ENDROOT
BRANCH   1   2
HETATM    2  C3  UNL     1     -19.857  25.978 -14.886  1.00  0.00     0.059 A
HETATM    3  C2  UNL     1     -20.582  24.939 -15.457  1.00  0.00     0.007 A
HETATM    4  C1  UNL     1     -22.034  24.804 -15.294  1.00  0.00     0.054 C
HETATM    5  C20 UNL     1     -19.903  23.963 -16.167  1.00  0.00     0.122 A
HETATM    6  N5  UNL     1     -18.584  23.992 -16.313  1.00  0.00    -0.177 N
HETATM    7  C19 UNL     1     -17.877  24.987 -15.769  1.00  0.00     0.677 A
ATOM      8  H5  UNL     1     -18.112  23.257 -16.839  1.00  0.00     0.185 HD
HETATM    9  N3  UNL     1     -18.545  25.957 -15.067  1.00  0.00    -0.193 N
HETATM   10  N4  UNL     1     -16.610  25.014 -15.919  1.00  0.00    -0.234 N
ATOM     11  H3  UNL     1     -17.995  26.712 -14.658  1.00  0.00     0.184 HD
ATOM     12  H42 UNL     1     -16.071  25.774 -15.503  1.00  0.00     0.174 HD
ATOM     13  H41 UNL     1     -16.114  24.293 -16.441  1.00  0.00     0.174 HD
BRANCH   5  14
HETATM   14  N6  UNL     1     -20.578  22.995 -16.670  1.00  0.00    -0.385 N
ATOM     15  H62 UNL     1     -20.133  22.089 -16.814  1.00  0.00     0.157 HD
ATOM     16  H61 UNL     1     -21.560  23.156 -16.896  1.00  0.00     0.157 HD
ENDBRANCH   5  14
ENDBRANCH   1   2
BRANCH   1  17
HETATM   17  N1  UNL     1     -20.486  28.352 -14.665  1.00  0.00    -0.401 N
ATOM     18  H1  UNL     1     -21.020  29.045 -14.140  1.00  0.00     0.154 HD
BRANCH  17  19
HETATM   19  C5  UNL     1     -19.810  28.845 -15.761  1.00  0.00     0.135 C
BRANCH  19  20
HETATM   20  C6  UNL     1     -19.476  30.326 -15.433  1.00  0.00     0.036 C
BRANCH  20  21
HETATM   21  C7  UNL     1     -18.072  30.712 -15.665  1.00  0.00    -0.012 C
HETATM   22  C8  UNL     1     -17.910  32.169 -15.860  1.00  0.00     0.005 C
HETATM   23  C9  UNL     1     -17.716  32.990 -14.621  1.00  0.00     0.000 C
HETATM   24  C10 UNL     1     -16.619  32.394 -13.773  1.00  0.00     0.000 C
HETATM   25  C11 UNL     1     -17.054  30.997 -13.373  1.00  0.00     0.000 C
HETATM   26  C12 UNL     1     -17.184  30.119 -14.570  1.00  0.00     0.005 C
ENDBRANCH  20  21
ENDBRANCH  19  20
BRANCH  19  27
HETATM   27  C13 UNL     1     -20.836  29.070 -16.888  1.00  0.00     0.073 A
HETATM   28  N2  UNL     1     -20.807  29.881 -17.905  1.00  0.00    -0.361 N
HETATM   29  C14 UNL     1     -21.786  29.901 -18.754  1.00  0.00     0.096 A
ATOM     30  H2  UNL     1     -20.010  30.504 -18.035  1.00  0.00     0.165 HD
HETATM   31  C15 UNL     1     -22.835  29.042 -18.527  1.00  0.00     0.068 A
HETATM   32  S1  UNL     1     -22.324  28.260 -17.096  1.00  0.00    -0.085 SA
ENDBRANCH  19  27
ENDBRANCH  17  19
ENDBRANCH   1  17
BRANCH   1  33
HETATM   33  C16 UNL     1     -19.695  27.211 -12.838  1.00  0.00     0.006 C
HETATM   34  C17 UNL     1     -20.150  26.162 -11.871  1.00  0.00     0.012 C
HETATM   35  C18 UNL     1     -19.910  28.586 -12.256  1.00  0.00     0.012 C
ENDBRANCH   1  33
TORSDOF 8
ENDMDL