MODEL 5
REMARK VINA RESULT: -7.952951143      1.964      4.071
REMARK  9 active torsions:
REMARK  status: ('A' for Active; 'I' for Inactive)
REMARK    1  A    between atoms: N1_5  and  C5_6
REMARK    2  A    between atoms: C6_7  and  O1_8
REMARK    3  A    between atoms: C6_7  and  C7_10
REMARK    4  A    between atoms: C7_10  and  C8_11
REMARK    5  A    between atoms: C8_11  and  C9_12
REMARK    6  A    between atoms: C9_12  and  C10_13
REMARK    7  A    between atoms: C10_13  and  C12_15
REMARK    8  A    between atoms: C12_15  and  O2_16
REMARK    9  A    between atoms: C17_22  and  O3_23
ROOT
HETATM    1  C1  UNL     1     -24.111  25.733 -16.211  1.00  0.00     0.050 C
HETATM    2  C2  UNL     1     -22.753  26.263 -15.850  1.00  0.00    -0.035 A
HETATM    3  C3  UNL     1     -22.545  27.249 -14.954  1.00  0.00     0.057 A
HETATM    4  C4  UNL     1     -21.169  27.560 -14.872  1.00  0.00     0.108 A
HETATM    5  N1  UNL     1     -20.513  26.763 -15.762  1.00  0.00    -0.309 N
HETATM    6  C13 UNL     1     -21.486  25.951 -16.338  1.00  0.00     0.031 A
HETATM    7  C14 UNL     1     -21.416  24.620 -17.105  1.00  0.00     0.057 C
HETATM    8  C15 UNL     1     -22.060  24.896 -18.416  1.00  0.00     0.020 C
HETATM    9  C16 UNL     1     -22.054  23.461 -16.452  1.00  0.00     0.015 C
HETATM   10  C17 UNL     1     -21.931  22.983 -15.085  1.00  0.00     0.040 C
HETATM   11  C18 UNL     1     -20.928  23.456 -14.104  1.00  0.00     0.068 C
HETATM   12  C19 UNL     1     -21.497  24.093 -12.868  1.00  0.00     0.033 C
HETATM   13  C20 UNL     1     -20.583  24.453 -11.792  1.00  0.00    -0.026 C
HETATM   14  C21 UNL     1     -20.020  25.626 -11.482  1.00  0.00    -0.006 C
HETATM   15  C22 UNL     1     -20.248  26.741 -12.201  1.00  0.00    -0.008 C
HETATM   16  C23 UNL     1     -19.973  28.136 -12.523  1.00  0.00     0.148 C
HETATM   17  N2  UNL     1     -20.725  28.395 -13.754  1.00  0.00    -0.372 N
ATOM     18  H2  UNL     1     -20.999  29.373 -13.854  1.00  0.00     0.161 HD
ENDROOT
BRANCH   5  19
HETATM   19  C5  UNL     1     -19.089  26.902 -16.277  1.00  0.00     0.130 C
HETATM   20  C6  UNL     1     -17.914  26.607 -15.541  1.00  0.00     0.059 C
BRANCH  20  21
HETATM   21  O1  UNL     1     -17.711  25.317 -15.034  1.00  0.00    -0.364 OA
ATOM     22  H1  UNL     1     -18.193  24.583 -15.395  1.00  0.00     0.217 HD
ENDBRANCH  20  21
BRANCH  20  23
HETATM   23  C7  UNL     1     -17.215  27.572 -14.646  1.00  0.00     0.066 C
BRANCH  23  24
HETATM   24  C8  UNL     1     -17.039  28.941 -15.275  1.00  0.00     0.007 C
BRANCH  24  25
HETATM   25  C9  UNL     1     -17.522  30.076 -14.455  1.00  0.00     0.007 C
BRANCH  25  26
HETATM   26  C10 UNL     1     -18.530  30.919 -15.233  1.00  0.00     0.005 C
HETATM   27  C11 UNL     1     -18.114  32.366 -15.236  1.00  0.00     0.012 C
BRANCH  26  28
HETATM   28  C12 UNL     1     -18.578  30.476 -16.689  1.00  0.00     0.168 C
BRANCH  28  29
HETATM   29  O2  UNL     1     -19.931  30.311 -17.003  1.00  0.00    -0.400 OA
ATOM     30  H2  UNL     1     -20.026  29.414 -17.303  1.00  0.00     0.209 HD
ENDBRANCH  28  29
ENDBRANCH  26  28
ENDBRANCH  25  26
ENDBRANCH  24  25
ENDBRANCH  23  24
ENDBRANCH  20  23
ENDBRANCH   5  19
BRANCH  10  31
HETATM   31  O3  UNL     1     -23.140  22.777 -14.377  1.00  0.00    -0.365 OA
ATOM     32  H3  UNL     1     -23.135  23.008 -13.455  1.00  0.00     0.217 HD
ENDBRANCH  10  31
TORSDOF 9
ENDMDL