MODEL 2
REMARK VINA RESULT: -5.202298739      1.655      4.393
REMARK  5 active torsions:
REMARK  status: ('A' for Active; 'I' for Inactive)
REMARK    1  A    between atoms: C2_2  and  C3_3
REMARK    2  A    between atoms: C3_3  and  N1_4
REMARK    3  A    between atoms: N1_4  and  C4_6
REMARK    4  A    between atoms: C12_15  and  O2_16
REMARK    5  A    between atoms: C18_23  and  O3_24
ROOT
HETATM    1  C4  UNL     1       7.079   5.717  22.930  1.00  0.00     0.061 C
HETATM    2  C5  UNL     1       8.255   4.751  22.708  1.00  0.00     0.041 C
HETATM    3  C6  UNL     1       7.115   6.612  21.740  1.00  0.00     0.111 C
HETATM    4  C7  UNL     1       6.230   6.135  20.631  1.00  0.00     0.129 C
HETATM    5  O1  UNL     1       6.720   5.609  19.648  1.00  0.00    -0.298 OA
HETATM    6  C8  UNL     1       4.744   6.213  20.539  1.00  0.00     0.083 C
HETATM    7  C9  UNL     1       4.280   6.594  21.919  1.00  0.00    -0.002 C
HETATM    8  C10 UNL     1       2.923   7.193  21.984  1.00  0.00     0.011 C
HETATM    9  C11 UNL     1       4.500   5.495  22.865  1.00  0.00     0.056 C
HETATM   10  C12 UNL     1       3.563   4.325  22.516  1.00  0.00     0.125 C
HETATM   11  C13 UNL     1       3.292   3.637  23.849  1.00  0.00     0.033 C
HETATM   12  C14 UNL     1       4.565   3.228  24.434  1.00  0.00     0.014 C
HETATM   13  C15 UNL     1       5.694   4.257  24.453  1.00  0.00    -0.014 C
HETATM   14  C16 UNL     1       6.876   3.372  24.864  1.00  0.00     0.018 C
HETATM   15  C17 UNL     1       5.501   5.127  25.639  1.00  0.00     0.018 C
HETATM   16  C18 UNL     1       5.828   4.932  23.122  1.00  0.00     0.096 C
ENDROOT
BRANCH   1  17
HETATM   17  N1  UNL     1       7.360   6.534  24.094  1.00  0.00    -0.407 N
ATOM     18  H1  UNL     1       6.649   7.112  24.541  1.00  0.00     0.154 HD
BRANCH  17  19
HETATM   19  C3  UNL     1       8.705   6.472  24.569  1.00  0.00     0.141 C
BRANCH  19  20
HETATM   20  C2  UNL     1       9.341   7.816  24.528  1.00  0.00    -0.018 C
HETATM   21  C1  UNL     1      10.065   8.197  23.484  1.00  0.00     0.008 C
ENDBRANCH  19  20
ENDBRANCH  17  19
ENDBRANCH   1  17
BRANCH  16  22
HETATM   22  O3  UNL     1       5.982   3.891  22.166  1.00  0.00    -0.386 OA
ATOM     23  H3  UNL     1       5.279   3.299  22.404  1.00  0.00     0.210 HD
ENDBRANCH  16  22
BRANCH  10  24
HETATM   24  O2  UNL     1       2.395   4.698  21.915  1.00  0.00    -0.395 OA
ATOM     25  H2  UNL     1       2.480   5.428  21.313  1.00  0.00     0.210 HD
ENDBRANCH  10  24
TORSDOF 5
ENDMDL