MODEL 5
REMARK VINA RESULT: -5.439688646      4.272      6.673
REMARK  6 active torsions:
REMARK  status: ('A' for Active; 'I' for Inactive)
REMARK    1  A    between atoms: C2_2  and  C4_4
REMARK    2  A    between atoms: C11_11  and  C12_12
REMARK    3  A    between atoms: C12_12  and  N1_13
REMARK    4  A    between atoms: C12_12  and  C13_17
REMARK    5  A    between atoms: C13_17  and  O1_18
REMARK    6  A    between atoms: C17_24  and  O3_25
ROOT
HETATM    1  C4  UNL     1       7.467   4.135  25.085  1.00  0.00     0.018 C
HETATM    2  C5  UNL     1       8.255   4.634  23.896  1.00  0.00     0.008 C
HETATM    3  C6  UNL     1       7.520   5.875  23.440  1.00  0.00     0.006 C
HETATM    4  C7  UNL     1       6.178   5.448  22.914  1.00  0.00     0.002 C
HETATM    5  C8  UNL     1       5.478   6.756  22.519  1.00  0.00     0.011 C
HETATM    6  C9  UNL     1       4.687   7.350  23.631  1.00  0.00     0.015 C
HETATM    7  C10 UNL     1       4.610   6.462  21.386  1.00  0.00     0.012 C
HETATM    8  C11 UNL     1       4.020   5.352  21.032  1.00  0.00     0.076 C
HETATM    9  O2  UNL     1       4.125   4.165  21.728  1.00  0.00    -0.348 OA
HETATM   10  C14 UNL     1       4.327   3.843  23.058  1.00  0.00     0.131 C
HETATM   11  C15 UNL     1       2.957   3.912  23.753  1.00  0.00     0.040 C
HETATM   12  C16 UNL     1       5.355   4.620  23.809  1.00  0.00     0.049 C
HETATM   13  C17 UNL     1       6.092   3.665  24.698  1.00  0.00     0.129 C
ENDROOT
BRANCH   8  14
HETATM   14  C12 UNL     1       3.172   5.328  19.801  1.00  0.00     0.262 C
BRANCH  14  15
HETATM   15  N1  UNL     1       2.138   4.347  19.889  1.00  0.00    -0.067 N
ATOM     16  H13 UNL     1       2.472   3.495  20.342  1.00  0.00     0.275 HD
ATOM     17  H12 UNL     1       1.425   4.618  20.567  1.00  0.00     0.275 HD
ATOM     18  H11 UNL     1       1.727   4.146  18.978  1.00  0.00     0.275 HD
ENDBRANCH  14  15
BRANCH  14  19
HETATM   19  C13 UNL     1       2.546   6.687  19.634  1.00  0.00     0.203 C
BRANCH  19  20
HETATM   20  O1  UNL     1       2.900   7.224  18.388  1.00  0.00    -0.398 OA
ATOM     21  H1  UNL     1       2.266   7.882  18.128  1.00  0.00     0.209 HD
ENDBRANCH  19  20
ENDBRANCH  14  19
ENDBRANCH   8  14
BRANCH  13  22
HETATM   22  O3  UNL     1       6.250   2.396  24.131  1.00  0.00    -0.395 OA
ATOM     23  H3  UNL     1       5.617   1.830  24.554  1.00  0.00     0.210 HD
ENDBRANCH  13  22
BRANCH   1  24
HETATM   24  C2  UNL     1       8.181   3.149  25.936  1.00  0.00    -0.016 C
HETATM   25  C1  UNL     1       7.361   2.814  27.190  1.00  0.00     0.010 C
HETATM   26  C3  UNL     1       9.525   3.579  26.425  1.00  0.00     0.010 C
ENDBRANCH   1  24
TORSDOF 6
ENDMDL