MODEL 3
REMARK VINA RESULT: -5.239894664      1.609      4.317
REMARK  6 active torsions:
REMARK  status: ('A' for Active; 'I' for Inactive)
REMARK    1  A    between atoms: C9_10  and  O2_11
REMARK    2  A    between atoms: C13_16  and  O3_17
REMARK    3  A    between atoms: C13_16  and  C14_19
REMARK    4  A    between atoms: C14_19  and  C15_20
REMARK    5  A    between atoms: C15_20  and  C16_21
REMARK    6  A    between atoms: C16_21  and  O4_23
ROOT
HETATM    1  C1  UNL     1       7.275  10.980  16.292  1.00  0.00     0.013 C
HETATM    2  C2  UNL     1       8.099  10.098  16.261  1.00  0.00    -0.097 C
HETATM    3  C3  UNL     1       9.115   9.009  16.249  1.00  0.00     0.110 C
HETATM    4  C4  UNL     1       8.995   8.376  14.911  1.00  0.00     0.041 C
HETATM    5  C5  UNL     1      10.405   9.671  16.528  1.00  0.00     0.150 C
HETATM    6  O1  UNL     1      10.863  10.346  15.595  1.00  0.00    -0.296 OA
HETATM    7  C6  UNL     1      11.177   9.607  17.780  1.00  0.00     0.092 C
HETATM    8  C7  UNL     1      11.119   8.249  18.439  1.00  0.00    -0.005 C
HETATM    9  C8  UNL     1      11.011   8.373  19.950  1.00  0.00     0.019 C
HETATM   10  C9  UNL     1      12.453   7.521  18.206  1.00  0.00     0.127 C
HETATM   11  C10 UNL     1      12.034   6.141  17.684  1.00  0.00     0.033 C
HETATM   12  C11 UNL     1      10.838   6.592  16.820  1.00  0.00     0.011 C
HETATM   13  C12 UNL     1      10.075   7.359  17.863  1.00  0.00     0.033 C
HETATM   14  C13 UNL     1       8.850   8.059  17.424  1.00  0.00     0.087 C
ENDROOT
BRANCH  14  15
HETATM   15  O3  UNL     1       8.459   8.881  18.474  1.00  0.00    -0.387 OA
ATOM     16  H3  UNL     1       9.267   9.137  18.904  1.00  0.00     0.210 HD
ENDBRANCH  14  15
BRANCH  14  17
HETATM   17  C14 UNL     1       7.701   7.158  17.099  1.00  0.00     0.043 C
BRANCH  17  18
HETATM   18  C15 UNL     1       7.240   6.222  18.141  1.00  0.00     0.034 C
BRANCH  18  19
HETATM   19  C16 UNL     1       5.837   5.809  18.258  1.00  0.00     0.114 C
HETATM   20  C17 UNL     1       5.412   5.901  19.768  1.00  0.00     0.039 C
BRANCH  19  21
HETATM   21  O4  UNL     1       4.860   6.589  17.665  1.00  0.00    -0.396 OA
ATOM     22  H4  UNL     1       4.617   6.411  16.764  1.00  0.00     0.210 HD
ENDBRANCH  19  21
ENDBRANCH  18  19
ENDBRANCH  17  18
ENDBRANCH  14  17
BRANCH  10  23
HETATM   23  O2  UNL     1      13.197   7.378  19.345  1.00  0.00    -0.395 OA
ATOM     24  H2  UNL     1      12.687   7.469  20.141  1.00  0.00     0.210 HD
ENDBRANCH  10  23
TORSDOF 6
ENDMDL