MODEL 1
REMARK VINA RESULT: -7.634239877      0.000      0.000
REMARK  4 active torsions:
REMARK  status: ('A' for Active; 'I' for Inactive)
REMARK    1  A    between atoms: C5_8  and  C6_9
REMARK    2  A    between atoms: C6_9  and  O2_10
REMARK    3  A    between atoms: C6_9  and  C7_12
REMARK    4  A    between atoms: C13_20  and  C14_21
ROOT
HETATM    1  C1  UNL     1      10.631   4.944  25.172  1.00  0.00     0.040 C
HETATM    2  C2  UNL     1       9.312   4.586  24.467  1.00  0.00     0.049 C
HETATM    3  C3  UNL     1       9.626   4.141  23.085  1.00  0.00     0.040 C
HETATM    4  N1  UNL     1       8.647   3.557  25.273  1.00  0.00    -0.348 N
ATOM      5  H1  UNL     1       9.181   2.842  25.768  1.00  0.00     0.163 HD
HETATM    6  C4  UNL     1       7.205   3.600  25.337  1.00  0.00     0.243 C
HETATM    7  O1  UNL     1       6.741   3.067  26.374  1.00  0.00    -0.271 OA
HETATM    8  C5  UNL     1       6.553   4.233  24.226  1.00  0.00     0.199 C
HETATM    9  N2  UNL     1       7.067   5.621  24.185  1.00  0.00    -0.397 N
ATOM     10  H2  UNL     1       6.482   6.409  23.908  1.00  0.00     0.154 HD
HETATM   11  C13 UNL     1       8.415   5.781  24.555  1.00  0.00     0.138 C
ENDROOT
BRANCH   8  12
HETATM   12  C6  UNL     1       5.118   4.285  24.035  1.00  0.00     0.153 C
BRANCH  12  13
HETATM   13  O2  UNL     1       4.501   3.174  24.666  1.00  0.00    -0.393 OA
ATOM     14  H2  UNL     1       3.572   3.339  24.784  1.00  0.00     0.210 HD
ENDBRANCH  12  13
BRANCH  12  15
HETATM   15  C7  UNL     1       4.461   4.507  22.748  1.00  0.00     0.017 C
HETATM   16  C8  UNL     1       4.105   6.018  22.640  1.00  0.00     0.007 C
HETATM   17  C9  UNL     1       3.875   6.373  21.188  1.00  0.00     0.000 C
HETATM   18  C10 UNL     1       3.222   5.172  20.504  1.00  0.00     0.000 C
HETATM   19  C11 UNL     1       2.264   4.582  21.502  1.00  0.00     0.000 C
HETATM   20  C12 UNL     1       3.104   3.851  22.557  1.00  0.00     0.007 C
ENDBRANCH  12  15
ENDBRANCH   8  12
BRANCH  11  21
HETATM   21  C14 UNL     1       8.971   6.968  23.839  1.00  0.00    -0.010 A
HETATM   22  C15 UNL     1       9.715   7.975  24.254  1.00  0.00     0.142 A
HETATM   23  O3  UNL     1       9.710   8.507  22.977  1.00  0.00    -0.358 OA
HETATM   24  C16 UNL     1       8.915   7.472  22.451  1.00  0.00     0.212 A
ENDBRANCH  11  21
TORSDOF 4
ENDMDL