MODEL 4
REMARK VINA RESULT: -7.379285445      2.705      4.858
REMARK  4 active torsions:
REMARK  status: ('A' for Active; 'I' for Inactive)
REMARK    1  A    between atoms: C3_5  and  N2_6
REMARK    2  A    between atoms: C7_14  and  C8_15
REMARK    3  A    between atoms: C8_15  and  N4_16
REMARK    4  A    between atoms: N4_16  and  C10_18
ROOT
HETATM    1  C1  UNL     1       2.492   5.736  19.896  1.00  0.00     0.069 C
HETATM    2  C2  UNL     1       3.875   5.886  19.356  1.00  0.00     0.031 A
HETATM    3  N1  UNL     1       4.125   5.893  18.035  1.00  0.00    -0.196 N
ATOM      4  H1  UNL     1       3.360   5.799  17.367  1.00  0.00     0.184 HD
HETATM    5  C3  UNL     1       5.396   6.025  17.600  1.00  0.00     0.676 A
HETATM    6  N3  UNL     1       6.383   6.144  18.491  1.00  0.00    -0.194 N
ATOM      7  H3  UNL     1       7.337   6.243  18.147  1.00  0.00     0.184 HD
HETATM    8  C4  UNL     1       6.176   6.141  19.842  1.00  0.00     0.060 A
HETATM    9  C5  UNL     1       4.890   6.008  20.273  1.00  0.00    -0.009 A
HETATM   10  C6  UNL     1       4.627   6.043  21.764  1.00  0.00     0.077 C
HETATM   11  C7  UNL     1       5.895   5.704  22.438  1.00  0.00     0.218 C
HETATM   12  N5  UNL     1       6.901   6.688  22.041  1.00  0.00    -0.064 N
ATOM     13  H51 UNL     1       7.652   6.798  22.723  1.00  0.00     0.278 HD
ATOM     14  H52 UNL     1       6.563   7.649  22.072  1.00  0.00     0.278 HD
HETATM   15  C16 UNL     1       7.372   6.278  20.719  1.00  0.00     0.291 C
ENDROOT
BRANCH  11  16
HETATM   16  C8  UNL     1       5.904   5.437  23.893  1.00  0.00     0.305 C
BRANCH  16  17
HETATM   17  N4  UNL     1       6.318   4.157  24.356  1.00  0.00     0.090 N
HETATM   18  C9  UNL     1       5.079   3.532  24.908  1.00  0.00     0.310 C
BRANCH  17  19
HETATM   19  C10 UNL     1       7.257   4.196  25.491  1.00  0.00     0.222 C
HETATM   20  C11 UNL     1       8.571   4.677  24.925  1.00  0.00     0.036 C
HETATM   21  C12 UNL     1       9.704   4.504  25.906  1.00  0.00     0.002 C
HETATM   22  C13 UNL     1       9.874   3.027  26.091  1.00  0.00     0.000 C
HETATM   23  C14 UNL     1       8.653   2.459  26.714  1.00  0.00     0.002 C
HETATM   24  C15 UNL     1       7.339   2.909  26.212  1.00  0.00     0.036 C
ENDBRANCH  17  19
ENDBRANCH  16  17
ENDBRANCH  11  16
BRANCH   5  25
HETATM   25  N2  UNL     1       5.582   6.037  16.307  1.00  0.00    -0.234 N
ATOM     26  H22 UNL     1       5.776   6.883  15.772  1.00  0.00     0.174 HD
ATOM     27  H21 UNL     1       5.517   5.143  15.820  1.00  0.00     0.174 HD
ENDBRANCH   5  25
TORSDOF 4
ENDMDL