MODEL 1
REMARK VINA RESULT: -6.515900169      0.000      0.000
REMARK  7 active torsions:
REMARK  status: ('A' for Active; 'I' for Inactive)
REMARK    1  A    between atoms: C5_5  and  O1_6
REMARK    2  A    between atoms: C7_9  and  O2_10
REMARK    3  A    between atoms: C8_12  and  C9_13
REMARK    4  A    between atoms: C10_14  and  C11_15
REMARK    5  A    between atoms: C11_15  and  C13_17
REMARK    6  A    between atoms: C11_15  and  C14_19
REMARK    7  A    between atoms: C14_19  and  O4_20
ROOT
HETATM    1  C1  UNL     1       3.719   3.705  23.191  1.00  0.00     0.043 C
HETATM    2  C2  UNL     1       4.803   4.716  23.084  1.00  0.00    -0.087 C
HETATM    3  C3  UNL     1       5.867   4.683  23.836  1.00  0.00    -0.017 C
HETATM    4  C4  UNL     1       6.987   5.632  23.802  1.00  0.00     0.042 C
HETATM    5  C5  UNL     1       8.261   4.839  23.711  1.00  0.00     0.128 C
HETATM    6  C6  UNL     1       9.503   5.667  23.694  1.00  0.00     0.065 C
HETATM    7  C7  UNL     1       9.338   7.047  23.175  1.00  0.00     0.128 C
HETATM    8  C8  UNL     1       8.139   7.353  22.382  1.00  0.00     0.041 C
HETATM    9  C15 UNL     1       6.861   6.704  22.750  1.00  0.00     0.006 C
HETATM   10  C16 UNL     1       6.099   6.097  21.594  1.00  0.00     0.010 C
HETATM   11  C17 UNL     1       4.672   5.797  22.089  1.00  0.00     0.034 C
ENDROOT
BRANCH   8  12
HETATM   12  C9  UNL     1       8.349   7.207  20.919  1.00  0.00    -0.022 C
HETATM   13  C10 UNL     1       8.667   8.201  20.094  1.00  0.00    -0.012 C
BRANCH  13  14
HETATM   14  C11 UNL     1       8.863   7.994  18.632  1.00  0.00     0.048 C
HETATM   15  C12 UNL     1      10.265   7.472  18.403  1.00  0.00     0.029 C
BRANCH  14  16
HETATM   16  C13 UNL     1       8.708   9.271  17.887  1.00  0.00     0.246 C
HETATM   17  O3  UNL     1       8.112  10.229  18.307  1.00  0.00    -0.306 OA
ENDBRANCH  14  16
BRANCH  14  18
HETATM   18  C14 UNL     1       7.891   7.001  18.070  1.00  0.00     0.184 C
BRANCH  18  19
HETATM   19  O4  UNL     1       7.090   7.690  17.142  1.00  0.00    -0.399 OA
ATOM     20  H4  UNL     1       6.393   7.099  16.884  1.00  0.00     0.209 HD
ENDBRANCH  18  19
ENDBRANCH  14  18
ENDBRANCH  13  14
ENDBRANCH   8  12
BRANCH   7  21
HETATM   21  O2  UNL     1       9.406   7.917  24.302  1.00  0.00    -0.395 OA
ATOM     22  H2  UNL     1      10.004   8.617  24.069  1.00  0.00     0.210 HD
ENDBRANCH   7  21
BRANCH   5  23
HETATM   23  O1  UNL     1       8.195   3.962  22.605  1.00  0.00    -0.395 OA
ATOM     24  H1  UNL     1       9.046   3.911  22.188  1.00  0.00     0.210 HD
ENDBRANCH   5  23
TORSDOF 7
ENDMDL