MODEL 5
REMARK VINA RESULT: -5.336080912      6.748      8.389
REMARK  5 active torsions:
REMARK  status: ('A' for Active; 'I' for Inactive)
REMARK    1  A    between atoms: C6_7  and  N1_8
REMARK    2  A    between atoms: C7_9  and  C8_10
REMARK    3  A    between atoms: C8_10  and  O1_11
REMARK    4  A    between atoms: C9_13  and  C10_14
REMARK    5  A    between atoms: C14_20  and  O2_22
ROOT
HETATM    1  N1  UNL     1       9.743   9.091  16.129  1.00  0.00    -0.370 N
HETATM    2  C7  UNL     1       8.737   9.406  17.075  1.00  0.00     0.119 C
HETATM    3  C9  UNL     1       8.141   8.052  16.750  1.00  0.00     0.099 C
HETATM    4  C14 UNL     1       9.547   7.766  16.249  1.00  0.00     0.136 C
HETATM    5  C15 UNL     1      10.258   6.926  17.266  1.00  0.00     0.071 C
ENDROOT
BRANCH   1   6
HETATM    6  C6  UNL     1      10.763   9.948  15.829  1.00  0.00     0.087 C
HETATM    7  C2  UNL     1      11.513   9.935  14.580  1.00  0.00     0.013 C
HETATM    8  C1  UNL     1      10.768   9.613  13.315  1.00  0.00     0.012 C
HETATM    9  C3  UNL     1      12.786   9.113  14.570  1.00  0.00     0.080 C
HETATM   10  S1  UNL     1      14.013  10.101  15.525  1.00  0.00    -0.169 SA
HETATM   11  C4  UNL     1      12.897  10.986  16.690  1.00  0.00     0.076 C
HETATM   12  C5  UNL     1      11.792   9.957  16.981  1.00  0.00     0.035 C
ENDBRANCH   1   6
BRANCH   2  13
HETATM   13  C8  UNL     1       7.745  10.471  16.739  1.00  0.00     0.190 C
BRANCH  13  14
HETATM   14  O1  UNL     1       7.459  11.290  17.809  1.00  0.00    -0.399 OA
ATOM     15  H1  UNL     1       7.435  12.210  17.572  1.00  0.00     0.209 HD
ENDBRANCH  13  14
ENDBRANCH   2  13
BRANCH   4  16
HETATM   16  O2  UNL     1       9.338   6.956  15.099  1.00  0.00    -0.371 OA
ATOM     17  H2  UNL     1       8.459   6.755  14.801  1.00  0.00     0.212 HD
ENDBRANCH   4  16
BRANCH   3  18
HETATM   18  C10 UNL     1       7.638   7.276  17.871  1.00  0.00    -0.031 A
HETATM   19  C11 UNL     1       6.719   6.232  17.699  1.00  0.00     0.026 A
HETATM   20  C12 UNL     1       6.395   5.673  18.918  1.00  0.00     0.088 A
HETATM   21  N2  UNL     1       7.094   6.353  19.824  1.00  0.00    -0.375 N
HETATM   22  C13 UNL     1       7.844   7.315  19.223  1.00  0.00     0.095 A
ATOM     23  H2  UNL     1       7.071   6.177  20.828  1.00  0.00     0.164 HD
ENDBRANCH   3  18
TORSDOF 5
ENDMDL