MODEL 5
REMARK VINA RESULT: -5.417916500      1.759      5.694
REMARK  6 active torsions:
REMARK  status: ('A' for Active; 'I' for Inactive)
REMARK    1  A    between atoms: C2_2  and  C3_3
REMARK    2  A    between atoms: C3_3  and  O1_4
REMARK    3  A    between atoms: C3_3  and  C4_6
REMARK    4  A    between atoms: C4_6  and  O2_7
REMARK    5  A    between atoms: C7_12  and  C8_13
REMARK    6  A    between atoms: C12_17  and  O4_18
ROOT
HETATM    1  C4  UNL     1       7.109   5.207  22.982  1.00  0.00     0.199 C
HETATM    2  O3  UNL     1       6.201   4.585  23.810  1.00  0.00    -0.352 OA
HETATM    3  C5  UNL     1       5.164   5.483  24.039  1.00  0.00     0.178 C
HETATM    4  C6  UNL     1       5.048   6.301  22.752  1.00  0.00     0.032 C
HETATM    5  C7  UNL     1       3.762   5.917  22.063  1.00  0.00    -0.028 C
HETATM    6  C10 UNL     1       3.381   4.471  22.295  1.00  0.00     0.013 C
HETATM    7  C11 UNL     1       2.752   3.935  21.053  1.00  0.00     0.033 C
HETATM    8  C12 UNL     1       2.890   4.975  19.997  1.00  0.00     0.123 C
HETATM    9  C13 UNL     1       3.724   6.094  20.605  1.00  0.00     0.023 C
HETATM   10  C14 UNL     1       5.048   6.082  19.895  1.00  0.00     0.009 C
HETATM   11  C15 UNL     1       6.095   5.409  20.712  1.00  0.00     0.015 C
HETATM   12  C16 UNL     1       6.311   6.083  22.040  1.00  0.00     0.022 C
HETATM   13  C17 UNL     1       7.074   7.376  21.737  1.00  0.00     0.021 C
ENDROOT
BRANCH   1  14
HETATM   14  C3  UNL     1       8.166   5.905  23.735  1.00  0.00     0.203 C
BRANCH  14  15
HETATM   15  C2  UNL     1       9.496   5.756  23.115  1.00  0.00    -0.000 C
HETATM   16  C1  UNL     1      10.509   6.557  23.130  1.00  0.00     0.009 C
ENDBRANCH  14  15
BRANCH  14  17
HETATM   17  O1  UNL     1       8.288   5.562  25.066  1.00  0.00    -0.386 OA
ATOM     18  H1  UNL     1       7.955   6.288  25.580  1.00  0.00     0.210 HD
ENDBRANCH  14  17
ENDBRANCH   1  14
BRANCH   1  19
HETATM   19  O2  UNL     1       7.731   4.253  22.177  1.00  0.00    -0.362 OA
ATOM     20  H2  UNL     1       7.488   3.398  22.510  1.00  0.00     0.213 HD
ENDBRANCH   1  19
BRANCH   5  21
HETATM   21  C8  UNL     1       2.748   6.755  22.823  1.00  0.00     0.006 C
HETATM   22  C9  UNL     1       3.100   8.149  23.092  1.00  0.00     0.006 C
ENDBRANCH   5  21
BRANCH   8  23
HETATM   23  O4  UNL     1       1.685   5.430  19.476  1.00  0.00    -0.395 OA
ATOM     24  H4  UNL     1       1.472   5.084  18.617  1.00  0.00     0.210 HD
ENDBRANCH   8  23
TORSDOF 6
ENDMDL