MODEL 1
REMARK VINA RESULT: -5.683659675      0.000      0.000
REMARK  5 active torsions:
REMARK  status: ('A' for Active; 'I' for Inactive)
REMARK    1  A    between atoms: N2_10  and  C7_11
REMARK    2  A    between atoms: C9_14  and  N3_15
REMARK    3  A    between atoms: N3_15  and  C10_17
REMARK    4  A    between atoms: C10_17  and  C11_18
REMARK    5  A    between atoms: C11_18  and  O1_19
ROOT
HETATM    1  C1  UNL     1       3.085   6.934  21.876  1.00  0.00     0.054 C
HETATM    2  C2  UNL     1       3.653   5.550  21.814  1.00  0.00     0.174 C
HETATM    3  C3  UNL     1       2.915   4.697  20.797  1.00  0.00     0.054 C
HETATM    4  N1  UNL     1       3.498   4.935  23.103  1.00  0.00    -0.034 N
ATOM      5  H11 UNL     1       2.799   4.192  23.105  1.00  0.00     0.281 HD
ATOM      6  H12 UNL     1       3.047   5.548  23.782  1.00  0.00     0.281 HD
HETATM    7  C4  UNL     1       4.799   4.480  23.536  1.00  0.00     0.200 C
HETATM    8  C5  UNL     1       4.840   2.977  23.407  1.00  0.00     0.071 C
HETATM    9  C6  UNL     1       4.936   4.905  25.003  1.00  0.00     0.071 C
HETATM   10  N2  UNL     1       5.756   5.156  22.724  1.00  0.00    -0.290 N
HETATM   11  C12 UNL     1       5.110   5.578  21.538  1.00  0.00     0.119 C
HETATM   12  S2  UNL     1       5.823   6.006  20.151  1.00  0.00    -0.062 SA
ENDROOT
BRANCH  10  13
HETATM   13  C7  UNL     1       7.157   5.364  23.081  1.00  0.00     0.119 A
HETATM   14  C8  UNL     1       8.026   4.302  23.024  1.00  0.00     0.102 A
HETATM   15  S1  UNL     1       9.498   5.012  23.514  1.00  0.00    -0.062 SA
HETATM   16  C9  UNL     1       8.936   6.602  23.763  1.00  0.00     0.146 A
HETATM   17  N4  UNL     1       7.646   6.517  23.459  1.00  0.00    -0.322 N
ATOM     18  H4  UNL     1       7.045   7.339  23.519  1.00  0.00     0.169 HD
BRANCH  16  19
HETATM   19  N3  UNL     1       9.630   7.644  24.160  1.00  0.00    -0.368 N
ATOM     20  H3  UNL     1       9.715   7.885  25.148  1.00  0.00     0.161 HD
BRANCH  19  21
HETATM   21  C10 UNL     1      10.266   8.430  23.134  1.00  0.00     0.147 C
BRANCH  21  22
HETATM   22  C11 UNL     1      11.637   7.907  22.779  1.00  0.00     0.183 C
BRANCH  22  23
HETATM   23  O1  UNL     1      12.643   8.786  23.155  1.00  0.00    -0.399 OA
ATOM     24  H1  UNL     1      13.508   8.432  22.983  1.00  0.00     0.209 HD
ENDBRANCH  22  23
ENDBRANCH  21  22
ENDBRANCH  19  21
ENDBRANCH  16  19
ENDBRANCH  10  13
TORSDOF 5
ENDMDL