MODEL 4
REMARK VINA RESULT: -5.717162060      3.129      4.412
REMARK  5 active torsions:
REMARK  status: ('A' for Active; 'I' for Inactive)
REMARK    1  A    between atoms: C2_2  and  N1_4
REMARK    2  A    between atoms: N1_4  and  C4_6
REMARK    3  A    between atoms: C4_6  and  N2_8
REMARK    4  A    between atoms: N2_8  and  O1_10
REMARK    5  A    between atoms: O1_10  and  C5_11
ROOT
HETATM    1  C5  UNL     1       5.548   5.516  22.357  1.00  0.00     0.191 C
HETATM    2  C6  UNL     1       5.893   5.309  23.802  1.00  0.00     0.038 C
HETATM    3  C7  UNL     1       5.747   3.837  24.107  1.00  0.00     0.003 C
HETATM    4  C8  UNL     1       4.335   3.417  23.871  1.00  0.00     0.004 C
HETATM    5  C9  UNL     1       3.458   4.483  23.296  1.00  0.00     0.045 C
HETATM    6  C10 UNL     1       4.076   5.229  22.148  1.00  0.00     0.107 C
HETATM    7  N3  UNL     1       3.880   4.639  20.900  1.00  0.00    -0.381 N
ATOM      8  H3  UNL     1       4.387   3.799  20.623  1.00  0.00     0.160 HD
HETATM    9  C11 UNL     1       2.976   5.238  20.062  1.00  0.00     0.067 C
HETATM   10  C12 UNL     1       2.688   6.653  20.342  1.00  0.00     0.120 C
HETATM   11  S2  UNL     1       3.241   6.855  22.060  1.00  0.00    -0.130 SA
ENDROOT
BRANCH   1  12
HETATM   12  O1  UNL     1       5.887   6.817  22.000  1.00  0.00    -0.269 OA
BRANCH  12  13
HETATM   13  N2  UNL     1       6.813   6.842  21.011  1.00  0.00    -0.241 N
ATOM     14  H2  UNL     1       6.566   6.452  20.101  1.00  0.00     0.197 HD
BRANCH  13  15
HETATM   15  C4  UNL     1       8.109   7.384  21.186  1.00  0.00     0.192 C
HETATM   16  S1  UNL     1       8.619   8.521  20.139  1.00  0.00    -0.039 SA
BRANCH  15  17
HETATM   17  N1  UNL     1       8.921   6.943  22.238  1.00  0.00    -0.362 N
ATOM     18  H1  UNL     1       9.202   5.962  22.246  1.00  0.00     0.162 HD
BRANCH  17  19
HETATM   19  C2  UNL     1       9.387   7.787  23.312  1.00  0.00     0.076 C
HETATM   20  C1  UNL     1       9.149   7.095  24.622  1.00  0.00     0.032 C
HETATM   21  C3  UNL     1      10.816   8.222  23.134  1.00  0.00     0.032 C
ENDBRANCH  17  19
ENDBRANCH  15  17
ENDBRANCH  13  15
ENDBRANCH  12  13
ENDBRANCH   1  12
TORSDOF 5
ENDMDL