MODEL 1
REMARK VINA RESULT: -7.531485023      0.000      0.000
REMARK  6 active torsions:
REMARK  status: ('A' for Active; 'I' for Inactive)
REMARK    1  A    between atoms: C3_6  and  C4_7
REMARK    2  A    between atoms: C4_7  and  C5_8
REMARK    3  A    between atoms: C5_8  and  O2_9
REMARK    4  A    between atoms: N4_18  and  C8_20
REMARK    5  A    between atoms: C8_20  and  C9_21
REMARK    6  A    between atoms: C8_20  and  C14_26
ROOT
HETATM    1  O1  UNL     1      -3.815   8.008  13.595  1.00  0.00    -0.264 OA
HETATM    2  C1  UNL     1      -4.874   7.665  14.233  1.00  0.00     0.290 A
HETATM    3  N1  UNL     1      -4.969   6.402  14.684  1.00  0.00    -0.316 N
ATOM      4  H1  UNL     1      -4.197   5.761  14.504  1.00  0.00     0.169 HD
HETATM    5  C2  UNL     1      -6.058   5.937  15.376  1.00  0.00     0.095 A
HETATM    6  C3  UNL     1      -6.242   4.668  15.860  1.00  0.00     0.032 A
HETATM    7  S1  UNL     1      -7.809   4.785  16.586  1.00  0.00    -0.015 SA
HETATM    8  N2  UNL     1      -8.179   6.383  16.271  1.00  0.00    -0.310 N
ATOM      9  H2  UNL     1      -9.027   6.888  16.529  1.00  0.00     0.176 HD
HETATM   10  C6  UNL     1      -7.116   6.856  15.608  1.00  0.00     0.141 A
HETATM   11  N3  UNL     1      -6.971   8.132  15.127  1.00  0.00    -0.322 N
ATOM     12  H3  UNL     1      -7.727   8.797  15.291  1.00  0.00     0.169 HD
HETATM   13  C7  UNL     1      -5.895   8.553  14.457  1.00  0.00     0.172 A
HETATM   14  N4  UNL     1      -5.759   9.752  14.008  1.00  0.00    -0.366 N
ATOM     15  H4  UNL     1      -4.913  10.018  13.503  1.00  0.00     0.161 HD
ENDROOT
BRANCH  14  16
HETATM   16  C8  UNL     1      -6.853  10.756  14.231  1.00  0.00     0.091 C
BRANCH  16  17
HETATM   17  C9  UNL     1      -7.074  10.677  15.700  1.00  0.00     0.009 C
HETATM   18  C10 UNL     1      -8.600  10.739  15.905  1.00  0.00     0.007 C
HETATM   19  C11 UNL     1      -8.888  11.612  17.060  1.00  0.00     0.000 C
HETATM   20  C12 UNL     1      -7.585  11.847  17.734  1.00  0.00     0.000 C
HETATM   21  C13 UNL     1      -6.636  11.858  16.517  1.00  0.00     0.007 C
ENDBRANCH  16  17
BRANCH  16  22
HETATM   22  C14 UNL     1      -6.435  12.033  13.642  1.00  0.00     0.009 A
HETATM   23  C15 UNL     1      -6.639  12.237  12.137  1.00  0.00     0.007 A
HETATM   24  C16 UNL     1      -7.318  13.109  13.195  1.00  0.00     0.007 A
ENDBRANCH  16  22
ENDBRANCH  14  16
BRANCH   6  25
HETATM   25  C4  UNL     1      -5.373   3.463  15.857  1.00  0.00     0.076 C
BRANCH  25  26
HETATM   26  C5  UNL     1      -6.128   2.209  15.579  1.00  0.00     0.169 C
BRANCH  26  27
HETATM   27  O2  UNL     1      -5.922   1.272  16.553  1.00  0.00    -0.401 OA
ATOM     28  H2  UNL     1      -6.150   0.400  16.253  1.00  0.00     0.209 HD
ENDBRANCH  26  27
ENDBRANCH  25  26
ENDBRANCH   6  25
TORSDOF 6
ENDMDL