MODEL 1
REMARK VINA RESULT: -4.364481374      0.000      0.000
REMARK  6 active torsions:
REMARK  status: ('A' for Active; 'I' for Inactive)
REMARK    1  A    between atoms: C2_2  and  N1_3
REMARK    2  A    between atoms: C2_2  and  C15_24
REMARK    3  A    between atoms: N1_3  and  C3_6
REMARK    4  A    between atoms: C5_8  and  C6_9
REMARK    5  A    between atoms: C7_14  and  C8_15
REMARK    6  A    between atoms: C15_24  and  C16_25
ROOT
HETATM    1  C16 UNL     1     -11.351  12.200   7.060  1.00  0.00     0.138 C
HETATM    2  C17 UNL     1     -12.425  13.208   7.249  1.00  0.00     0.060 C
HETATM    3  N5  UNL     1     -13.279  13.988   7.382  1.00  0.00    -0.197 NA
ENDROOT
BRANCH   1   4
HETATM    4  C15 UNL     1     -11.301  11.790   5.607  1.00  0.00     0.047 A
HETATM    5  C18 UNL     1      -9.944  11.674   4.992  1.00  0.00     0.246 A
HETATM    6  N6  UNL     1     -10.161  12.880   4.230  1.00  0.00    -0.073 N
HETATM    7  C19 UNL     1     -11.504  13.034   4.749  1.00  0.00     0.246 A
ATOM      8  H62 UNL     1      -9.501  13.652   4.327  1.00  0.00     0.277 HD
ATOM      9  H61 UNL     1     -10.019  12.860   3.220  1.00  0.00     0.277 HD
BRANCH   4  10
HETATM   10  C2  UNL     1     -12.312  10.750   5.278  1.00  0.00     0.195 C
HETATM   11  C1  UNL     1     -13.466  11.227   4.438  1.00  0.00     0.041 C
BRANCH  10  12
HETATM   12  N1  UNL     1     -11.781   9.505   4.777  1.00  0.00    -0.066 N
ATOM     13  H12 UNL     1     -12.044   9.368   3.802  1.00  0.00     0.278 HD
ATOM     14  H11 UNL     1     -10.768   9.560   4.675  1.00  0.00     0.278 HD
BRANCH  12  15
HETATM   15  C3  UNL     1     -12.148   8.369   5.564  1.00  0.00     0.188 A
HETATM   16  C4  UNL     1     -11.096   7.311   5.727  1.00  0.00     0.045 A
HETATM   17  C5  UNL     1     -11.942   6.384   4.861  1.00  0.00     0.059 A
HETATM   18  C14 UNL     1     -13.036   7.416   4.823  1.00  0.00     0.045 A
BRANCH  17  19
HETATM   19  C6  UNL     1     -12.307   5.115   5.546  1.00  0.00     0.101 A
HETATM   20  N2  UNL     1     -12.670   3.986   4.914  1.00  0.00    -0.287 N
HETATM   21  N3  UNL     1     -12.955   3.037   5.779  1.00  0.00    -0.284 N
ATOM     22  H2  UNL     1     -12.719   3.879   3.900  1.00  0.00     0.188 HD
HETATM   23  C7  UNL     1     -12.782   3.529   7.003  1.00  0.00     0.127 A
ATOM     24  H3  UNL     1     -13.256   2.089   5.552  1.00  0.00     0.188 HD
HETATM   25  N4  UNL     1     -12.382   4.814   6.852  1.00  0.00    -0.329 N
ATOM     26  H4  UNL     1     -12.168   5.455   7.615  1.00  0.00     0.168 HD
BRANCH  23  27
HETATM   27  C8  UNL     1     -12.978   2.882   8.297  1.00  0.00    -0.016 C
HETATM   28  C9  UNL     1     -13.505   3.509   9.337  1.00  0.00    -0.016 C
HETATM   29  C10 UNL     1     -13.731   2.927  10.665  1.00  0.00     0.028 C
HETATM   30  C11 UNL     1     -13.721   1.438  10.697  1.00  0.00     0.004 C
HETATM   31  C12 UNL     1     -13.762   0.863   9.310  1.00  0.00     0.005 C
HETATM   32  C13 UNL     1     -12.585   1.458   8.532  1.00  0.00     0.042 C
ENDBRANCH  23  27
ENDBRANCH  17  19
ENDBRANCH  12  15
ENDBRANCH  10  12
ENDBRANCH   4  10
ENDBRANCH   1   4
TORSDOF 6
ENDMDL