MODEL 3
REMARK VINA RESULT: -6.340992891      1.859      3.322
REMARK  7 active torsions:
REMARK  status: ('A' for Active; 'I' for Inactive)
REMARK    1  A    between atoms: C1_2  and  N1_3
REMARK    2  A    between atoms: C1_2  and  N4_21
REMARK    3  A    between atoms: N1_3  and  C2_5
REMARK    4  A    between atoms: C2_5  and  C3_6
REMARK    5  A    between atoms: C3_6  and  C4_7
REMARK    6  A    between atoms: C6_12  and  C7_13
REMARK    7  A    between atoms: N4_21  and  C11_23
ROOT
HETATM    1  C4  UNL     1      -5.907   6.339  14.789  1.00  0.00    -0.023 A
HETATM    2  C5  UNL     1      -6.815   5.322  14.732  1.00  0.00     0.077 A
HETATM    3  S2  UNL     1      -5.981   4.007  15.469  1.00  0.00    -0.026 SA
HETATM    4  N2  UNL     1      -4.519   4.785  15.836  1.00  0.00    -0.327 N
ATOM      5  H2  UNL     1      -3.698   4.397  16.299  1.00  0.00     0.174 HD
HETATM    6  C6  UNL     1      -4.697   6.012  15.379  1.00  0.00     0.053 A
ENDROOT
BRANCH   1   7
HETATM    7  C3  UNL     1      -6.194   7.755  14.422  1.00  0.00     0.061 C
BRANCH   7   8
HETATM    8  C2  UNL     1      -6.118   8.134  12.973  1.00  0.00     0.126 C
BRANCH   8   9
HETATM    9  N1  UNL     1      -5.349   9.286  12.630  1.00  0.00    -0.367 N
ATOM     10  H1  UNL     1      -4.435   9.142  12.201  1.00  0.00     0.161 HD
BRANCH   9  11
HETATM   11  C1  UNL     1      -5.776  10.609  12.849  1.00  0.00     0.167 C
HETATM   12  S1  UNL     1      -5.752  11.666  11.589  1.00  0.00    -0.041 SA
BRANCH  11  13
HETATM   13  N4  UNL     1      -6.164  11.108  14.117  1.00  0.00    -0.363 N
ATOM     14  H4  UNL     1      -5.464  11.079  14.858  1.00  0.00     0.162 HD
BRANCH  13  15
HETATM   15  C11 UNL     1      -7.443  11.646  14.456  1.00  0.00     0.083 C
HETATM   16  C12 UNL     1      -7.435  12.655  15.562  1.00  0.00     0.025 C
HETATM   17  C13 UNL     1      -6.912  11.769  16.722  1.00  0.00     0.002 C
HETATM   18  C14 UNL     1      -7.784  10.523  16.538  1.00  0.00     0.002 C
HETATM   19  C15 UNL     1      -8.275  10.530  15.129  1.00  0.00     0.025 C
ENDBRANCH  13  15
ENDBRANCH  11  13
ENDBRANCH   9  11
ENDBRANCH   8   9
ENDBRANCH   7   8
ENDBRANCH   1   7
BRANCH   6  20
HETATM   20  C7  UNL     1      -3.497   6.992  15.307  1.00  0.00     0.197 C
HETATM   21  C8  UNL     1      -2.309   6.288  15.909  1.00  0.00     0.270 C
HETATM   22  N3  UNL     1      -1.058   6.785  15.418  1.00  0.00    -0.070 N
HETATM   23  C9  UNL     1      -1.157   8.031  14.696  1.00  0.00     0.258 C
ATOM     24  H32 UNL     1      -0.384   6.866  16.179  1.00  0.00     0.277 HD
ATOM     25  H31 UNL     1      -0.593   6.078  14.848  1.00  0.00     0.277 HD
HETATM   26  C10 UNL     1      -2.109   7.770  13.537  1.00  0.00     0.196 C
HETATM   27  O1  UNL     1      -3.229   7.173  13.934  1.00  0.00    -0.376 OA
ENDBRANCH   6  20
TORSDOF 7
ENDMDL