MODEL 5
REMARK VINA RESULT: -8.027327178      2.840      5.358
REMARK  7 active torsions:
REMARK  status: ('A' for Active; 'I' for Inactive)
REMARK    1  A    between atoms: C3_3  and  C5_5
REMARK    2  A    between atoms: C5_5  and  N1_6
REMARK    3  A    between atoms: N1_6  and  C7_8
REMARK    4  A    between atoms: C8_11  and  N3_12
REMARK    5  A    between atoms: N3_12  and  C9_14
REMARK    6  A    between atoms: C9_14  and  C10_15
REMARK    7  A    between atoms: C10_15  and  O1_16
ROOT
HETATM    1  C1  UNL     1      -2.718   6.094  15.800  1.00  0.00     0.012 C
HETATM    2  C2  UNL     1      -2.662   6.756  14.789  1.00  0.00    -0.111 C
HETATM    3  C3  UNL     1      -2.562   7.549  13.577  1.00  0.00     0.078 C
HETATM    4  C4  UNL     1      -1.303   8.431  13.649  1.00  0.00     0.025 C
ENDROOT
BRANCH   3   5
HETATM    5  C5  UNL     1      -3.686   8.467  13.314  1.00  0.00     0.140 C
BRANCH   5   6
HETATM    6  N1  UNL     1      -5.002   7.888  13.191  1.00  0.00    -0.369 N
HETATM    7  C6  UNL     1      -5.557   7.719  11.862  1.00  0.00     0.151 C
BRANCH   6   8
HETATM    8  C7  UNL     1      -5.831   7.571  14.272  1.00  0.00     0.134 A
HETATM    9  N2  UNL     1      -5.880   6.256  14.675  1.00  0.00    -0.176 N
HETATM   10  C8  UNL     1      -6.691   5.806  15.649  1.00  0.00     0.681 A
ATOM     11  H2  UNL     1      -5.268   5.586  14.210  1.00  0.00     0.186 HD
HETATM   12  N4  UNL     1      -7.513   6.636  16.291  1.00  0.00    -0.169 N
HETATM   13  C11 UNL     1      -7.511   7.938  15.944  1.00  0.00     0.179 A
ATOM     14  H4  UNL     1      -8.130   6.294  17.028  1.00  0.00     0.186 HD
HETATM   15  O2  UNL     1      -8.210   8.929  16.420  1.00  0.00    -0.275 OA
HETATM   16  C18 UNL     1      -6.658   8.407  14.922  1.00  0.00     0.075 A
HETATM   17  C12 UNL     1      -7.909  10.048  15.817  1.00  0.00     0.162 A
HETATM   18  N5  UNL     1      -8.203  11.371  15.790  1.00  0.00    -0.339 N
HETATM   19  C17 UNL     1      -6.926   9.756  14.861  1.00  0.00     0.041 A
HETATM   20  C13 UNL     1      -7.434  11.922  14.851  1.00  0.00     0.014 A
ATOM     21  H5  UNL     1      -8.884  11.854  16.377  1.00  0.00     0.168 HD
HETATM   22  C14 UNL     1      -7.403  13.358  14.462  1.00  0.00     0.068 C
HETATM   23  C15 UNL     1      -6.624  10.937  14.253  1.00  0.00    -0.024 A
HETATM   24  C16 UNL     1      -5.656  11.224  13.216  1.00  0.00     0.051 C
BRANCH  10  25
HETATM   25  N3  UNL     1      -6.671   4.565  15.967  1.00  0.00    -0.224 N
ATOM     26  H3  UNL     1      -7.477   4.223  16.491  1.00  0.00     0.177 HD
BRANCH  25  27
HETATM   27  C9  UNL     1      -5.666   3.614  15.679  1.00  0.00     0.164 C
BRANCH  27  28
HETATM   28  C10 UNL     1      -6.313   2.217  15.769  1.00  0.00     0.184 C
BRANCH  28  29
HETATM   29  O1  UNL     1      -5.560   1.458  16.629  1.00  0.00    -0.399 OA
ATOM     30  H1  UNL     1      -4.698   1.350  16.244  1.00  0.00     0.209 HD
ENDBRANCH  28  29
ENDBRANCH  27  28
ENDBRANCH  25  27
ENDBRANCH  10  25
ENDBRANCH   6   8
ENDBRANCH   5   6
ENDBRANCH   3   5
TORSDOF 7
ENDMDL