MODEL 1
REMARK VINA RESULT: -8.332326033      0.000      0.000
REMARK  7 active torsions:
REMARK  status: ('A' for Active; 'I' for Inactive)
REMARK    1  A    between atoms: N1_2  and  C2_5
REMARK    2  A    between atoms: C2_5  and  C3_6
REMARK    3  A    between atoms: C3_6  and  N2_7
REMARK    4  A    between atoms: N2_7  and  C4_9
REMARK    5  A    between atoms: C5_12  and  N4_13
REMARK    6  A    between atoms: N4_13  and  C6_15
REMARK    7  A    between atoms: N7_26  and  C13_27
ROOT
HETATM    1  C4  UNL     1      -7.141   7.130  15.203  1.00  0.00     0.132 A
HETATM    2  N3  UNL     1      -7.689   7.905  16.170  1.00  0.00    -0.176 N
ATOM      3  H3  UNL     1      -8.246   7.463  16.902  1.00  0.00     0.186 HD
HETATM    4  C5  UNL     1      -7.521   9.240  16.194  1.00  0.00     0.681 A
HETATM    5  N5  UNL     1      -6.788   9.823  15.231  1.00  0.00    -0.174 N
ATOM      6  H5  UNL     1      -6.657  10.834  15.244  1.00  0.00     0.186 HD
HETATM    7  C10 UNL     1      -6.215   9.086  14.237  1.00  0.00     0.153 A
HETATM    8  C11 UNL     1      -6.385   7.730  14.211  1.00  0.00     0.071 A
HETATM    9  C12 UNL     1      -5.706   7.252  13.112  1.00  0.00     0.126 A
HETATM   10  N6  UNL     1      -5.137   8.317  12.489  1.00  0.00    -0.307 N
ATOM     11  H6  UNL     1      -4.568   8.287  11.643  1.00  0.00     0.186 HD
HETATM   12  N7  UNL     1      -5.453   9.400  13.177  1.00  0.00    -0.271 N
ENDROOT
BRANCH   1  13
HETATM   13  N2  UNL     1      -7.262   5.855  15.130  1.00  0.00    -0.373 N
ATOM     14  H2  UNL     1      -7.579   5.474  14.237  1.00  0.00     0.161 HD
BRANCH  13  15
HETATM   15  C3  UNL     1      -7.000   4.913  16.174  1.00  0.00     0.148 C
BRANCH  15  16
HETATM   16  C2  UNL     1      -5.799   4.058  15.762  1.00  0.00     0.251 C
BRANCH  16  17
HETATM   17  N1  UNL     1      -6.271   2.828  15.151  1.00  0.00    -0.077 N
HETATM   18  C1  UNL     1      -6.020   1.756  16.084  1.00  0.00     0.267 C
ATOM     19  H12 UNL     1      -5.863   2.659  14.231  1.00  0.00     0.276 HD
ATOM     20  H11 UNL     1      -7.246   2.879  14.856  1.00  0.00     0.276 HD
ENDBRANCH  16  17
ENDBRANCH  15  16
ENDBRANCH  13  15
ENDBRANCH   1  13
BRANCH   4  21
HETATM   21  N4  UNL     1      -8.072   9.914  17.146  1.00  0.00    -0.221 N
ATOM     22  H4  UNL     1      -8.984   9.586  17.463  1.00  0.00     0.178 HD
BRANCH  21  23
HETATM   23  C6  UNL     1      -7.551  11.060  17.802  1.00  0.00     0.099 C
HETATM   24  C7  UNL     1      -6.697  12.008  17.030  1.00  0.00     0.026 C
HETATM   25  C8  UNL     1      -7.885  12.932  16.760  1.00  0.00     0.004 C
HETATM   26  C9  UNL     1      -8.616  12.164  17.847  1.00  0.00     0.026 C
ENDBRANCH  21  23
ENDBRANCH   4  21
BRANCH  12  27
HETATM   27  C13 UNL     1      -5.004  10.738  12.788  1.00  0.00     0.110 C
HETATM   28  C14 UNL     1      -3.859  10.618  11.812  1.00  0.00     0.027 C
HETATM   29  C15 UNL     1      -4.321  10.207  10.436  1.00  0.00     0.002 C
HETATM   30  C16 UNL     1      -5.474  11.028   9.942  1.00  0.00     0.000 C
HETATM   31  C17 UNL     1      -5.725  12.174  10.898  1.00  0.00     0.002 C
HETATM   32  C18 UNL     1      -6.136  11.556  12.226  1.00  0.00     0.027 C
ENDBRANCH  12  27
TORSDOF 7
ENDMDL