MODEL 5
REMARK VINA RESULT: -4.956133819      1.936      2.960
REMARK  7 active torsions:
REMARK  status: ('A' for Active; 'I' for Inactive)
REMARK    1  A    between atoms: C2_2  and  C3_3
REMARK    2  A    between atoms: C3_3  and  N1_4
REMARK       I    between atoms: N1_4  and  C4_6
REMARK    3  A    between atoms: C4_6  and  C5_8
REMARK    4  A    between atoms: N2_10  and  O2_12
REMARK    5  A    between atoms: O2_12  and  C7_13
REMARK    6  A    between atoms: C9_15  and  O3_16
REMARK    7  A    between atoms: C17_25  and  O4_26
ROOT
HETATM    1  C7  UNL     1      -5.811   8.193  13.782  1.00  0.00     0.157 C
HETATM    2  C8  UNL     1      -6.089   9.012  14.992  1.00  0.00     0.071 C
HETATM    3  C9  UNL     1      -7.486   9.490  15.163  1.00  0.00     0.149 C
HETATM    4  C10 UNL     1      -7.431  10.949  15.502  1.00  0.00    -0.061 C
HETATM    5  C11 UNL     1      -7.994  11.399  16.615  1.00  0.00     0.017 C
HETATM    6  C12 UNL     1      -6.730  11.908  14.567  1.00  0.00     0.040 C
HETATM    7  C13 UNL     1      -7.348  11.881  13.200  1.00  0.00     0.032 C
HETATM    8  C14 UNL     1      -6.442  11.999  12.067  1.00  0.00    -0.021 C
HETATM    9  C15 UNL     1      -5.448  11.244  11.669  1.00  0.00    -0.059 C
HETATM   10  C16 UNL     1      -4.686  11.660  10.409  1.00  0.00     0.046 C
HETATM   11  C17 UNL     1      -4.937  10.002  12.294  1.00  0.00     0.149 C
HETATM   12  C18 UNL     1      -5.961   8.913  12.461  1.00  0.00     0.071 C
ENDROOT
BRANCH   1  13
HETATM   13  O2  UNL     1      -6.525   6.978  13.748  1.00  0.00    -0.275 OA
BRANCH  13  14
HETATM   14  N2  UNL     1      -7.164   6.519  14.841  1.00  0.00    -0.265 N
HETATM   15  C5  UNL     1      -6.770   5.636  15.652  1.00  0.00     0.095 C
HETATM   16  C6  UNL     1      -5.471   4.973  15.464  1.00  0.00     0.076 C
ATOM     17  H2  UNL     1      -8.074   6.934  15.037  1.00  0.00     0.194 HD
BRANCH  15  18
HETATM   18  C4  UNL     1      -7.599   5.264  16.784  1.00  0.00     0.265 C
HETATM   19  N1  UNL     1      -8.566   6.161  17.268  1.00  0.00    -0.352 N
ATOM     20  H1  UNL     1      -8.673   7.070  16.817  1.00  0.00     0.163 HD
HETATM   21  O1  UNL     1      -7.461   4.125  17.351  1.00  0.00    -0.266 OA
BRANCH  19  22
HETATM   22  C3  UNL     1      -9.404   5.829  18.377  1.00  0.00     0.149 C
BRANCH  22  23
HETATM   23  C2  UNL     1     -10.036   7.037  18.920  1.00  0.00    -0.018 C
HETATM   24  C1  UNL     1     -11.111   6.920  19.688  1.00  0.00     0.008 C
ENDBRANCH  22  23
ENDBRANCH  19  22
ENDBRANCH  15  18
ENDBRANCH  13  14
ENDBRANCH   1  13
BRANCH   3  25
HETATM   25  O3  UNL     1      -8.121   8.827  16.229  1.00  0.00    -0.391 OA
ATOM     26  H3  UNL     1      -8.256   7.909  16.026  1.00  0.00     0.210 HD
ENDBRANCH   3  25
BRANCH  11  27
HETATM   27  O4  UNL     1      -3.810   9.503  11.575  1.00  0.00    -0.391 OA
ATOM     28  H4  UNL     1      -3.426  10.185  11.038  1.00  0.00     0.210 HD
ENDBRANCH  11  27
TORSDOF 7
ENDMDL