MODEL 4
REMARK VINA RESULT: -3.034815361      1.490      2.269
REMARK  8 active torsions:
REMARK  status: ('A' for Active; 'I' for Inactive)
REMARK    1  A    between atoms: O1_2  and  C2_3
REMARK    2  A    between atoms: C2_3  and  C3_4
REMARK    3  A    between atoms: C2_3  and  N5_27
REMARK    4  A    between atoms: C6_9  and  N2_10
REMARK    5  A    between atoms: N2_10  and  C7_12
REMARK    6  A    between atoms: C7_12  and  C8_13
REMARK    7  A    between atoms: C7_12  and  C10_17
REMARK    8  A    between atoms: C8_13  and  O2_15
ROOT
HETATM    1  C3  UNL     1     -12.832   4.050   7.010  1.00  0.00     0.142 A
HETATM    2  N1  UNL     1     -13.433   5.154   6.511  1.00  0.00    -0.340 N
ATOM      3  H1  UNL     1     -14.440   5.257   6.391  1.00  0.00     0.167 HD
HETATM    4  C4  UNL     1     -12.536   6.096   6.194  1.00  0.00     0.065 A
HETATM    5  C5  UNL     1     -12.603   7.373   5.667  1.00  0.00     0.080 A
HETATM    6  C6  UNL     1     -11.481   8.142   5.439  1.00  0.00     0.103 A
HETATM    7  N3  UNL     1     -10.290   7.603   5.751  1.00  0.00    -0.350 N
ATOM      8  H3  UNL     1      -9.439   8.143   5.596  1.00  0.00     0.166 HD
HETATM    9  C14 UNL     1     -10.201   6.344   6.274  1.00  0.00     0.121 A
HETATM   10  C15 UNL     1     -11.312   5.562   6.508  1.00  0.00     0.076 A
HETATM   11  N4  UNL     1     -11.528   4.322   6.999  1.00  0.00    -0.339 N
ATOM     12  H4  UNL     1     -10.798   3.685   7.315  1.00  0.00     0.167 HD
ENDROOT
BRANCH   6  13
HETATM   13  N2  UNL     1     -11.641   9.301   4.952  1.00  0.00    -0.368 N
ATOM     14  H2  UNL     1     -11.821   9.363   3.951  1.00  0.00     0.161 HD
BRANCH  13  15
HETATM   15  C7  UNL     1     -11.591  10.549   5.696  1.00  0.00     0.118 C
BRANCH  15  16
HETATM   16  C8  UNL     1     -10.199  11.075   5.573  1.00  0.00     0.137 C
HETATM   17  C9  UNL     1      -9.544  10.806   4.244  1.00  0.00     0.041 C
BRANCH  16  18
HETATM   18  O2  UNL     1      -9.389  10.724   6.656  1.00  0.00    -0.394 OA
ATOM     19  H2  UNL     1      -9.355   9.786   6.802  1.00  0.00     0.210 HD
ENDBRANCH  16  18
ENDBRANCH  15  16
BRANCH  15  20
HETATM   20  C10 UNL     1     -12.644  11.440   5.109  1.00  0.00    -0.029 C
HETATM   21  C11 UNL     1     -12.055  12.507   4.211  1.00  0.00     0.016 C
HETATM   22  C12 UNL     1     -13.544  10.578   4.212  1.00  0.00     0.016 C
HETATM   23  C13 UNL     1     -13.534  12.106   6.098  1.00  0.00     0.016 C
ENDBRANCH  15  20
ENDBRANCH  13  15
ENDBRANCH   6  13
BRANCH   1  24
HETATM   24  C2  UNL     1     -13.479   2.812   7.488  1.00  0.00     0.426 C
BRANCH  24  25
HETATM   25  O1  UNL     1     -14.376   2.306   6.556  1.00  0.00    -0.357 OA
HETATM   26  C1  UNL     1     -13.994   1.066   6.058  1.00  0.00     0.204 C
ENDBRANCH  24  25
BRANCH  24  27
HETATM   27  N5  UNL     1     -14.004   2.936   8.794  1.00  0.00     0.116 N
HETATM   28  C16 UNL     1     -13.242   3.775   9.686  1.00  0.00     0.313 C
HETATM   29  C17 UNL     1     -14.361   1.709   9.430  1.00  0.00     0.313 C
ENDBRANCH  24  27
ENDBRANCH   1  24
TORSDOF 8
ENDMDL