MODEL 4
REMARK VINA RESULT: -6.917002063      2.797      7.062
REMARK  7 active torsions:
REMARK  status: ('A' for Active; 'I' for Inactive)
REMARK    1  A    between atoms: C3_3  and  C4_4
REMARK    2  A    between atoms: N1_7  and  C7_8
REMARK    3  A    between atoms: C7_8  and  C8_9
REMARK    4  A    between atoms: C8_9  and  O1_10
REMARK    5  A    between atoms: C11_16  and  O2_17
REMARK    6  A    between atoms: O2_17  and  C12_18
REMARK    7  A    between atoms: C18_26  and  N4_27
ROOT
HETATM    1  C1  UNL     1      -6.011  12.645  11.104  1.00  0.00     0.054 C
HETATM    2  C2  UNL     1      -5.602  11.331  11.581  1.00  0.00     0.009 A
HETATM    3  C3  UNL     1      -5.924  10.838  12.832  1.00  0.00     0.047 A
HETATM    4  N2  UNL     1      -5.365   9.633  13.186  1.00  0.00    -0.321 N
ATOM      5  H2  UNL     1      -5.595   9.261  14.107  1.00  0.00     0.169 HD
HETATM    6  C11 UNL     1      -4.547   8.911  12.418  1.00  0.00     0.226 A
HETATM    7  N3  UNL     1      -4.242   9.389  11.220  1.00  0.00    -0.308 N
ATOM      8  H3  UNL     1      -3.618   8.862  10.607  1.00  0.00     0.171 HD
HETATM    9  C18 UNL     1      -4.744  10.547  10.814  1.00  0.00     0.110 A
ENDROOT
BRANCH   3  10
HETATM   10  C4  UNL     1      -6.995  11.489  13.610  1.00  0.00    -0.049 C
HETATM   11  C5  UNL     1      -8.162  10.658  14.038  1.00  0.00     0.056 C
HETATM   12  C6  UNL     1      -8.487  10.830  15.530  1.00  0.00     0.126 C
HETATM   13  N1  UNL     1      -7.837  11.914  16.108  1.00  0.00    -0.391 N
HETATM   14  C9  UNL     1      -7.734  13.094  15.310  1.00  0.00     0.126 C
HETATM   15  C10 UNL     1      -6.750  12.827  14.187  1.00  0.00     0.056 C
BRANCH  13  16
HETATM   16  C7  UNL     1      -7.315  11.959  17.385  1.00  0.00     0.084 C
BRANCH  16  17
HETATM   17  C8  UNL     1      -7.391  10.639  18.136  1.00  0.00     0.208 C
BRANCH  17  18
HETATM   18  O1  UNL     1      -8.707  10.363  18.532  1.00  0.00    -0.396 OA
ATOM     19  H1  UNL     1      -8.756  10.224  19.471  1.00  0.00     0.209 HD
ENDBRANCH  17  18
ENDBRANCH  16  17
ENDBRANCH  13  16
ENDBRANCH   3  10
BRANCH   9  20
HETATM   20  N4  UNL     1      -4.436  11.001   9.654  1.00  0.00    -0.385 N
ATOM     21  H42 UNL     1      -3.952  10.399   8.988  1.00  0.00     0.157 HD
ATOM     22  H41 UNL     1      -4.696  11.968   9.459  1.00  0.00     0.157 HD
ENDBRANCH   9  20
BRANCH   6  23
HETATM   23  O2  UNL     1      -4.029   7.704  12.812  1.00  0.00    -0.316 OA
BRANCH  23  24
HETATM   24  C12 UNL     1      -3.020   7.522  13.741  1.00  0.00     0.132 C
HETATM   25  C13 UNL     1      -3.537   6.813  15.030  1.00  0.00     0.032 C
HETATM   26  C14 UNL     1      -2.299   6.402  15.807  1.00  0.00     0.002 C
HETATM   27  C15 UNL     1      -1.026   6.974  15.257  1.00  0.00     0.000 C
HETATM   28  C16 UNL     1      -1.104   8.447  14.932  1.00  0.00     0.002 C
HETATM   29  C17 UNL     1      -2.408   8.792  14.240  1.00  0.00     0.032 C
ENDBRANCH  23  24
ENDBRANCH   6  23
TORSDOF 7
ENDMDL