MODEL 5
REMARK VINA RESULT: -4.107372583      1.510      2.344
REMARK  8 active torsions:
REMARK  status: ('A' for Active; 'I' for Inactive)
REMARK    1  A    between atoms: C2_2  and  C4_4
REMARK    2  A    between atoms: C5_5  and  C6_6
REMARK    3  A    between atoms: C7_7  and  C8_8
REMARK    4  A    between atoms: C9_9  and  C10_10
REMARK    5  A    between atoms: C10_10  and  O1_11
REMARK    6  A    between atoms: C10_10  and  C11_13
REMARK    7  A    between atoms: C16_20  and  O4_21
REMARK    8  A    between atoms: C19_25  and  O5_26
ROOT
HETATM    1  C8  UNL     1      -5.470   9.381  13.337  1.00  0.00     0.051 A
HETATM    2  C9  UNL     1      -3.930   9.362  13.453  1.00  0.00     0.046 A
HETATM    3  C12 UNL     1      -3.821   9.993  12.162  1.00  0.00    -0.004 A
HETATM    4  C13 UNL     1      -3.138  11.345  12.353  1.00  0.00     0.019 C
HETATM    5  C14 UNL     1      -3.318   9.462  10.885  1.00  0.00     0.015 C
HETATM    6  C15 UNL     1      -4.021  10.154   9.734  1.00  0.00     0.033 C
HETATM    7  C16 UNL     1      -5.105  11.097   9.974  1.00  0.00     0.124 C
HETATM    8  C17 UNL     1      -5.819  11.074  11.332  1.00  0.00     0.046 C
HETATM    9  C18 UNL     1      -5.872  12.405  11.935  1.00  0.00     0.016 C
HETATM   10  C19 UNL     1      -5.291   9.913  12.026  1.00  0.00     0.078 A
ENDROOT
BRANCH   1  11
HETATM   11  C7  UNL     1      -6.169  10.083  14.389  1.00  0.00    -0.019 C
HETATM   12  C6  UNL     1      -7.030   9.543  15.200  1.00  0.00    -0.004 C
BRANCH  12  13
HETATM   13  C5  UNL     1      -7.408   8.147  15.151  1.00  0.00    -0.004 C
HETATM   14  C4  UNL     1      -6.680   7.207  15.753  1.00  0.00    -0.023 C
BRANCH  14  15
HETATM   15  C2  UNL     1      -7.087   5.793  15.688  1.00  0.00    -0.000 C
HETATM   16  C1  UNL     1      -7.987   5.432  16.853  1.00  0.00     0.013 C
HETATM   17  C3  UNL     1      -5.900   4.855  15.720  1.00  0.00     0.013 C
ENDBRANCH  14  15
ENDBRANCH  12  13
ENDBRANCH   1  11
BRANCH   2  18
HETATM   18  C10 UNL     1      -3.288   8.178  13.915  1.00  0.00     0.224 C
BRANCH  18  19
HETATM   19  O1  UNL     1      -4.065   7.170  14.191  1.00  0.00    -0.384 OA
ATOM     20  H1  UNL     1      -3.708   6.511  14.774  1.00  0.00     0.210 HD
ENDBRANCH  18  19
BRANCH  18  21
HETATM   21  C11 UNL     1      -1.908   7.928  14.126  1.00  0.00     0.203 C
HETATM   22  O2  UNL     1      -1.028   8.649  14.640  1.00  0.00    -0.646 OA
HETATM   23  O3  UNL     1      -1.362   6.670  13.709  1.00  0.00    -0.646 OA
ENDBRANCH  18  21
ENDBRANCH   2  18
BRANCH  10  24
HETATM   24  O5  UNL     1      -5.623   8.823  11.125  1.00  0.00    -0.388 OA
ATOM     25  H5  UNL     1      -4.818   8.631  10.660  1.00  0.00     0.210 HD
ENDBRANCH  10  24
BRANCH   7  26
HETATM   26  O4  UNL     1      -6.053  10.923   8.922  1.00  0.00    -0.395 OA
ATOM     27  H4  UNL     1      -5.798  11.505   8.216  1.00  0.00     0.210 HD
ENDBRANCH   7  26
TORSDOF 8
ENDMDL