MODEL 5
REMARK VINA RESULT: -6.570086941      2.459      6.158
REMARK  7 active torsions:
REMARK  status: ('A' for Active; 'I' for Inactive)
REMARK    1  A    between atoms: C2_2  and  C3_3
REMARK    2  A    between atoms: C3_3  and  C4_4
REMARK    3  A    between atoms: C4_4  and  O1_5
REMARK    4  A    between atoms: O1_5  and  C5_6
REMARK    5  A    between atoms: C12_17  and  O4_18
REMARK    6  A    between atoms: C12_17  and  C13_20
REMARK    7  A    between atoms: C13_20  and  O5_21
ROOT
HETATM    1  C5  UNL     1      -6.485   8.988  14.789  1.00  0.00     0.138 C
HETATM    2  C6  UNL     1      -7.337   9.601  13.712  1.00  0.00     0.056 C
HETATM    3  C7  UNL     1      -8.308  10.414  14.585  1.00  0.00     0.051 C
HETATM    4  C8  UNL     1      -7.289  10.996  15.579  1.00  0.00     0.098 C
HETATM    5  C9  UNL     1      -7.341  12.479  15.672  1.00  0.00     0.164 C
HETATM    6  N1  UNL     1      -7.623  12.811  17.051  1.00  0.00    -0.334 N
ATOM      7  H1  UNL     1      -7.581  13.739  17.472  1.00  0.00     0.164 HD
HETATM    8  C10 UNL     1      -7.968  11.602  17.705  1.00  0.00     0.361 C
HETATM    9  O2  UNL     1      -8.560  11.393  18.794  1.00  0.00    -0.238 OA
HETATM   10  O3  UNL     1      -7.514  10.583  16.888  1.00  0.00    -0.290 OA
HETATM   11  C11 UNL     1      -6.023  10.444  14.963  1.00  0.00     0.090 C
HETATM   12  C12 UNL     1      -6.262  10.630  13.515  1.00  0.00     0.103 C
ENDROOT
BRANCH  12  13
HETATM   13  O4  UNL     1      -6.922  11.862  13.259  1.00  0.00    -0.386 OA
ATOM     14  H4  UNL     1      -7.548  11.695  12.565  1.00  0.00     0.210 HD
ENDBRANCH  12  13
BRANCH  12  15
HETATM   15  C13 UNL     1      -5.215  10.455  12.517  1.00  0.00     0.090 C
HETATM   16  C14 UNL     1      -5.165   9.237  11.686  1.00  0.00     0.041 C
HETATM   17  C15 UNL     1      -3.863   9.284  10.872  1.00  0.00     0.003 C
HETATM   18  C16 UNL     1      -4.089  10.313   9.778  1.00  0.00     0.000 C
HETATM   19  C17 UNL     1      -5.238  11.238  10.126  1.00  0.00     0.003 C
HETATM   20  C18 UNL     1      -5.179  11.657  11.579  1.00  0.00     0.041 C
BRANCH  15  21
HETATM   21  O5  UNL     1      -3.979  10.496  13.217  1.00  0.00    -0.387 OA
ATOM     22  H5  UNL     1      -4.109  11.076  13.958  1.00  0.00     0.210 HD
ENDBRANCH  15  21
ENDBRANCH  12  15
BRANCH   1  23
HETATM   23  O1  UNL     1      -7.305   8.508  15.803  1.00  0.00    -0.385 OA
BRANCH  23  24
HETATM   24  C4  UNL     1      -7.281   7.124  15.884  1.00  0.00     0.168 C
BRANCH  24  25
HETATM   25  C3  UNL     1      -6.179   6.610  14.981  1.00  0.00     0.026 C
BRANCH  25  26
HETATM   26  C2  UNL     1      -6.518   5.149  14.673  1.00  0.00    -0.002 C
HETATM   27  C1  UNL     1      -5.988   4.227  15.729  1.00  0.00     0.005 C
ENDBRANCH  25  26
ENDBRANCH  24  25
ENDBRANCH  23  24
ENDBRANCH   1  23
TORSDOF 7
ENDMDL