MODEL 5
REMARK VINA RESULT: -6.306653034      0.898      2.161
REMARK  11 active torsions:
REMARK  status: ('A' for Active; 'I' for Inactive)
REMARK    1  A    between atoms: C5_5  and  O1_6
REMARK    2  A    between atoms: C9_10  and  O2_11
REMARK    3  A    between atoms: C10_13  and  C11_14
REMARK    4  A    between atoms: C11_14  and  C12_15
REMARK    5  A    between atoms: C12_15  and  C13_16
REMARK    6  A    between atoms: C13_16  and  O3_17
REMARK    7  A    between atoms: C13_16  and  C14_19
REMARK    8  A    between atoms: C14_19  and  C16_21
REMARK    9  A    between atoms: C16_21  and  O4_22
REMARK   10  A    between atoms: C16_21  and  O5_24
REMARK   11  A    between atoms: O5_24  and  C17_25
ROOT
HETATM    1  C11 UNL     1      -4.285   9.110  12.578  1.00  0.00    -0.009 C
ENDROOT
BRANCH   1   2
HETATM    2  C10 UNL     1      -4.448   8.098  13.379  1.00  0.00     0.004 A
HETATM    3  C2  UNL     1      -5.606   7.362  13.412  1.00  0.00    -0.024 A
HETATM    4  C1  UNL     1      -6.613   7.652  12.626  1.00  0.00     0.025 C
HETATM    5  C3  UNL     1      -5.778   6.278  14.270  1.00  0.00    -0.018 A
HETATM    6  C4  UNL     1      -7.047   5.505  14.277  1.00  0.00     0.052 C
HETATM    7  C5  UNL     1      -4.762   5.924  15.117  1.00  0.00     0.083 A
HETATM    8  C7  UNL     1      -3.593   6.635  15.112  1.00  0.00     0.006 A
HETATM    9  C8  UNL     1      -2.485   6.257  16.028  1.00  0.00     0.054 C
HETATM   10  C9  UNL     1      -3.427   7.716  14.252  1.00  0.00     0.085 A
BRANCH   7  11
HETATM   11  O1  UNL     1      -4.907   4.837  15.992  1.00  0.00    -0.355 OA
HETATM   12  C6  UNL     1      -5.655   3.695  15.628  1.00  0.00     0.210 C
ENDBRANCH   7  11
BRANCH  10  13
HETATM   13  O2  UNL     1      -2.230   8.400  14.285  1.00  0.00    -0.359 OA
ATOM     14  H2  UNL     1      -1.640   8.238  15.011  1.00  0.00     0.217 HD
ENDBRANCH  10  13
ENDBRANCH   1   2
BRANCH   1  15
HETATM   15  C12 UNL     1      -4.745  10.504  12.796  1.00  0.00     0.060 C
BRANCH  15  16
HETATM   16  C13 UNL     1      -6.064  10.485  13.604  1.00  0.00     0.130 C
BRANCH  16  17
HETATM   17  O3  UNL     1      -5.801   9.878  14.840  1.00  0.00    -0.395 OA
ATOM     18  H3  UNL     1      -5.453  10.543  15.422  1.00  0.00     0.210 HD
ENDBRANCH  16  17
BRANCH  16  19
HETATM   19  C14 UNL     1      -6.492  11.891  13.847  1.00  0.00     0.066 C
HETATM   20  C15 UNL     1      -7.190  12.401  12.568  1.00  0.00     0.017 C
BRANCH  19  21
HETATM   21  C16 UNL     1      -7.531  12.067  14.927  1.00  0.00     0.264 C
BRANCH  21  22
HETATM   22  O4  UNL     1      -8.515  11.082  14.600  1.00  0.00    -0.371 OA
ATOM     23  H4  UNL     1      -8.337  10.890  13.686  1.00  0.00     0.212 HD
ENDBRANCH  21  22
BRANCH  21  24
HETATM   24  O5  UNL     1      -6.991  11.797  16.147  1.00  0.00    -0.351 OA
BRANCH  24  25
HETATM   25  C17 UNL     1      -7.526  12.335  17.262  1.00  0.00     0.053 C
HETATM   26  C18 UNL     1      -8.178  13.666  17.172  1.00  0.00     0.045 C
HETATM   27  C19 UNL     1      -6.353  12.529  18.250  1.00  0.00     0.045 C
HETATM   28  C20 UNL     1      -8.418  11.316  17.992  1.00  0.00     0.045 C
ENDBRANCH  24  25
ENDBRANCH  21  24
ENDBRANCH  19  21
ENDBRANCH  16  19
ENDBRANCH  15  16
ENDBRANCH   1  15
TORSDOF 11
ENDMDL