MODEL 2
REMARK VINA RESULT: -4.421765946      2.228      6.773
REMARK  7 active torsions:
REMARK  status: ('A' for Active; 'I' for Inactive)
REMARK    1  A    between atoms: C2_2  and  C4_4
REMARK    2  A    between atoms: C4_4  and  C5_5
REMARK    3  A    between atoms: C5_5  and  C7_7
REMARK    4  A    between atoms: C5_5  and  C19_26
REMARK    5  A    between atoms: C7_7  and  C8_8
REMARK    6  A    between atoms: C8_8  and  C9_9
REMARK    7  A    between atoms: C11_13  and  O3_14
ROOT
HETATM    1  C9  UNL     1     -11.201   1.839  22.814  1.00  0.00     0.099 C
HETATM    2  C10 UNL     1     -11.655   2.337  24.168  1.00  0.00     0.050 C
HETATM    3  O1  UNL     1      -9.898   1.333  22.920  1.00  0.00    -0.226 OA
HETATM    4  O2  UNL     1      -9.472   0.889  21.764  1.00  0.00    -0.197 OA
HETATM    5  C11 UNL     1     -10.146  -0.193  21.261  1.00  0.00     0.229 C
HETATM    6  C12 UNL     1     -10.027  -1.425  22.112  1.00  0.00     0.074 C
HETATM    7  C13 UNL     1     -11.070  -1.570  23.156  1.00  0.00     0.006 C
HETATM    8  C14 UNL     1     -11.857  -0.379  23.509  1.00  0.00     0.010 C
HETATM    9  C15 UNL     1     -12.051   0.670  22.436  1.00  0.00     0.065 C
HETATM   10  C16 UNL     1     -11.630   0.078  21.115  1.00  0.00     0.191 A
HETATM   11  C17 UNL     1     -12.428  -1.144  20.731  1.00  0.00     0.073 A
HETATM   12  C18 UNL     1     -12.834  -0.453  19.438  1.00  0.00     0.236 A
HETATM   13  N1  UNL     1     -12.081   0.689  19.919  1.00  0.00    -0.060 N
ATOM     14  H11 UNL     1     -11.375   1.082  19.297  1.00  0.00     0.278 HD
ATOM     15  H12 UNL     1     -12.576   1.577  20.003  1.00  0.00     0.278 HD
ENDROOT
BRANCH   1  16
HETATM   16  C8  UNL     1     -11.266   3.004  21.861  1.00  0.00     0.042 C
BRANCH  16  17
HETATM   17  C7  UNL     1     -11.664   4.261  22.629  1.00  0.00     0.023 C
BRANCH  17  18
HETATM   18  C5  UNL     1     -11.906   5.396  21.616  1.00  0.00     0.045 C
HETATM   19  C6  UNL     1     -10.683   5.234  20.669  1.00  0.00     0.027 C
BRANCH  18  20
HETATM   20  C4  UNL     1     -11.738   6.726  22.193  1.00  0.00     0.024 C
BRANCH  20  21
HETATM   21  C2  UNL     1     -12.803   7.506  22.811  1.00  0.00    -0.021 C
HETATM   22  C1  UNL     1     -13.496   6.965  24.013  1.00  0.00     0.009 C
HETATM   23  C3  UNL     1     -12.490   8.978  23.020  1.00  0.00     0.009 C
ENDBRANCH  20  21
ENDBRANCH  18  20
BRANCH  18  24
HETATM   24  C19 UNL     1     -13.078   5.117  20.788  1.00  0.00     0.181 C
HETATM   25  O4  UNL     1     -13.031   5.286  19.517  1.00  0.00    -0.647 OA
HETATM   26  O5  UNL     1     -14.313   4.666  21.224  1.00  0.00    -0.647 OA
ENDBRANCH  18  24
ENDBRANCH  17  18
ENDBRANCH  16  17
ENDBRANCH   1  16
BRANCH   5  27
HETATM   27  O3  UNL     1      -9.597  -0.484  20.012  1.00  0.00    -0.361 OA
ATOM     28  H3  UNL     1      -9.981  -1.300  19.715  1.00  0.00     0.213 HD
ENDBRANCH   5  27
TORSDOF 7
ENDMDL