MODEL 4
REMARK VINA RESULT: -3.763692620      9.948     12.258
REMARK  9 active torsions:
REMARK  status: ('A' for Active; 'I' for Inactive)
REMARK    1  A    between atoms: C2_2  and  C4_4
REMARK    2  A    between atoms: C2_2  and  C15_15
REMARK    3  A    between atoms: C4_4  and  C5_5
REMARK    4  A    between atoms: C15_15  and  O2_17
REMARK    5  A    between atoms: O2_17  and  C16_18
REMARK    6  A    between atoms: C16_18  and  C17_19
REMARK    7  A    between atoms: C16_18  and  C18_22
REMARK    8  A    between atoms: C18_22  and  O5_24
REMARK    9  A    between atoms: C18_22  and  O6_26
ROOT
HETATM    1  C1  UNL     1      -6.587   7.682  14.804  1.00  0.00     0.025 C
HETATM    2  C2  UNL     1      -6.299   8.852  13.950  1.00  0.00     0.041 C
HETATM    3  C3  UNL     1      -6.449   8.447  12.465  1.00  0.00     0.025 C
ENDROOT
BRANCH   2   4
HETATM    4  C4  UNL     1      -6.905  10.148  14.239  1.00  0.00     0.028 C
BRANCH   4   5
HETATM    5  C5  UNL     1      -7.280  10.607  15.572  1.00  0.00    -0.038 C
HETATM    6  C6  UNL     1      -8.638  11.344  15.403  1.00  0.00     0.014 C
HETATM    7  C7  UNL     1      -9.078  12.020  16.649  1.00  0.00    -0.013 C
HETATM    8  C8  UNL     1      -9.283  10.990  17.730  1.00  0.00     0.009 C
HETATM    9  C12 UNL     1      -8.080  13.034  17.158  1.00  0.00     0.009 C
HETATM   10  C9  UNL     1      -7.971  10.254  17.892  1.00  0.00    -0.013 C
HETATM   11  C10 UNL     1      -6.905  11.210  18.370  1.00  0.00     0.009 C
HETATM   12  C14 UNL     1      -7.559   9.562  16.603  1.00  0.00     0.014 C
HETATM   13  C11 UNL     1      -6.791  12.320  17.361  1.00  0.00    -0.013 C
HETATM   14  C13 UNL     1      -6.349  11.686  16.059  1.00  0.00     0.014 C
ENDBRANCH   4   5
ENDBRANCH   2   4
BRANCH   2  15
HETATM   15  C15 UNL     1      -4.800   9.091  14.056  1.00  0.00     0.268 C
HETATM   16  O1  UNL     1      -4.219   9.978  13.382  1.00  0.00    -0.264 OA
BRANCH  15  17
HETATM   17  O2  UNL     1      -4.020   8.330  14.907  1.00  0.00    -0.299 OA
BRANCH  17  18
HETATM   18  C16 UNL     1      -3.378   7.133  14.513  1.00  0.00     0.293 C
BRANCH  18  19
HETATM   19  C17 UNL     1      -3.408   6.113  15.589  1.00  0.00     0.209 C
HETATM   20  O3  UNL     1      -2.440   5.875  16.340  1.00  0.00    -0.646 OA
HETATM   21  O4  UNL     1      -4.571   5.379  15.779  1.00  0.00    -0.646 OA
ENDBRANCH  18  19
BRANCH  18  22
HETATM   22  C18 UNL     1      -1.980   7.390  13.998  1.00  0.00     0.193 C
HETATM   23  C19 UNL     1      -1.314   8.412  14.864  1.00  0.00     0.082 C
BRANCH  22  24
HETATM   24  O5  UNL     1      -2.064   7.895  12.702  1.00  0.00    -0.363 OA
ATOM     25  H5  UNL     1      -1.391   7.488  12.170  1.00  0.00     0.213 HD
ENDBRANCH  22  24
BRANCH  22  26
HETATM   26  O6  UNL     1      -1.222   6.225  13.939  1.00  0.00    -0.363 OA
ATOM     27  H6  UNL     1      -0.298   6.407  13.808  1.00  0.00     0.213 HD
ENDBRANCH  22  26
ENDBRANCH  18  22
ENDBRANCH  17  18
ENDBRANCH  15  17
ENDBRANCH   2  15
TORSDOF 9
ENDMDL