MODEL 5
REMARK VINA RESULT: -4.009470786      2.999      4.538
REMARK  8 active torsions:
REMARK  status: ('A' for Active; 'I' for Inactive)
REMARK    1  A    between atoms: C2_2  and  N1_3
REMARK    2  A    between atoms: C5_6  and  N2_7
REMARK       I    between atoms: N2_7  and  C6_9
REMARK    3  A    between atoms: C6_9  and  C7_11
REMARK    4  A    between atoms: C7_11  and  S1_12
REMARK    5  A    between atoms: S1_12  and  C8_13
REMARK    6  A    between atoms: C13_18  and  C14_19
REMARK    7  A    between atoms: C14_19  and  O2_20
REMARK    8  A    between atoms: N3_22  and  O3_24
ROOT
HETATM    1  C7  UNL     1      -2.379   6.793  14.038  1.00  0.00     0.177 C
ENDROOT
BRANCH   1   2
HETATM    2  C6  UNL     1      -2.915   8.159  13.717  1.00  0.00     0.227 C
HETATM    3  N2  UNL     1      -3.652   8.408  12.532  1.00  0.00    -0.355 N
ATOM      4  H2  UNL     1      -3.834   7.654  11.871  1.00  0.00     0.162 HD
HETATM    5  O1  UNL     1      -2.682   9.072  14.543  1.00  0.00    -0.273 OA
BRANCH   3   6
HETATM    6  C5  UNL     1      -4.146   9.743  12.270  1.00  0.00     0.091 C
HETATM    7  C4  UNL     1      -5.357   9.944  13.144  1.00  0.00     0.056 C
HETATM    8  C3  UNL     1      -6.026  11.270  12.930  1.00  0.00     0.274 C
HETATM    9  N1  UNL     1      -5.512  11.803  11.683  1.00  0.00     0.088 N
HETATM   10  C17 UNL     1      -5.580  10.830  10.615  1.00  0.00     0.278 C
HETATM   11  C15 UNL     1      -4.426   9.871  10.799  1.00  0.00     0.032 C
HETATM   12  C16 UNL     1      -3.194  10.542  10.179  1.00  0.00     0.014 C
BRANCH   9  13
HETATM   13  C2  UNL     1      -6.139  13.054  11.325  1.00  0.00     0.268 C
HETATM   14  C1  UNL     1      -7.055  13.456  12.457  1.00  0.00     0.037 C
ENDBRANCH   9  13
ENDBRANCH   3   6
ENDBRANCH   1   2
BRANCH   1  15
HETATM   15  S1  UNL     1      -3.338   6.140  15.427  1.00  0.00    -0.154 SA
BRANCH  15  16
HETATM   16  C8  UNL     1      -5.079   5.848  14.923  1.00  0.00     0.059 C
HETATM   17  C9  UNL     1      -5.673   7.131  14.508  1.00  0.00     0.016 C
HETATM   18  C10 UNL     1      -6.687   7.715  15.449  1.00  0.00     0.001 C
HETATM   19  C11 UNL     1      -7.740   6.616  15.656  1.00  0.00     0.001 C
HETATM   20  C12 UNL     1      -7.061   5.554  16.473  1.00  0.00     0.014 C
HETATM   21  C13 UNL     1      -5.805   5.024  15.916  1.00  0.00     0.076 C
BRANCH  21  22
HETATM   22  C14 UNL     1      -6.057   3.628  15.414  1.00  0.00     0.140 C
HETATM   23  N3  UNL     1      -6.020   2.636  16.210  1.00  0.00    -0.251 N
ATOM     24  H3  UNL     1      -5.815   2.795  17.197  1.00  0.00     0.196 HD
BRANCH  22  25
HETATM   25  O2  UNL     1      -6.326   3.532  14.045  1.00  0.00    -0.348 OA
ATOM     26  H2  UNL     1      -5.574   3.662  13.479  1.00  0.00     0.219 HD
ENDBRANCH  22  25
BRANCH  23  27
HETATM   27  O3  UNL     1      -6.246   1.372  15.775  1.00  0.00    -0.288 OA
ATOM     28  H3  UNL     1      -5.548   0.845  15.404  1.00  0.00     0.244 HD
ENDBRANCH  23  27
ENDBRANCH  21  22
ENDBRANCH  15  16
ENDBRANCH   1  15
TORSDOF 8
ENDMDL