MODEL 5
REMARK VINA RESULT: -5.198607338      2.800      6.156
REMARK  6 active torsions:
REMARK  status: ('A' for Active; 'I' for Inactive)
REMARK    1  A    between atoms: N1_1  and  C1_4
REMARK    2  A    between atoms: C5_11  and  C6_12
REMARK    3  A    between atoms: C6_12  and  C7_13
REMARK    4  A    between atoms: N4_16  and  C8_17
REMARK    5  A    between atoms: C8_17  and  C9_18
REMARK    6  A    between atoms: C9_18  and  C10_19
ROOT
HETATM    1  C1  UNL     1      -8.079  12.763  17.579  1.00  0.00     0.142 A
HETATM    2  N2  UNL     1      -7.821  11.464  17.443  1.00  0.00    -0.339 N
ATOM      3  H2  UNL     1      -7.919  10.830  18.236  1.00  0.00     0.168 HD
HETATM    4  C2  UNL     1      -7.443  11.017  16.281  1.00  0.00     0.026 A
HETATM    5  C3  UNL     1      -7.332  11.922  15.259  1.00  0.00     0.011 A
HETATM    6  S1  UNL     1      -7.779  13.381  16.019  1.00  0.00    -0.057 SA
HETATM    7  C4  UNL     1      -6.923  11.707  13.824  1.00  0.00     0.074 C
HETATM    8  C5  UNL     1      -5.891  10.601  13.843  1.00  0.00     0.096 C
HETATM    9  N4  UNL     1      -6.597   9.373  13.654  1.00  0.00    -0.388 N
HETATM   10  C17 UNL     1      -7.582   9.139  14.672  1.00  0.00     0.128 C
HETATM   11  C18 UNL     1      -7.132   9.538  16.058  1.00  0.00     0.078 C
ENDROOT
BRANCH   9  12
HETATM   12  C8  UNL     1      -5.875   8.243  13.241  1.00  0.00     0.059 C
BRANCH  12  13
HETATM   13  C9  UNL     1      -5.569   7.194  14.248  1.00  0.00     0.049 C
BRANCH  13  14
HETATM   14  C10 UNL     1      -4.089   7.335  14.621  1.00  0.00    -0.010 C
HETATM   15  C11 UNL     1      -3.271   7.695  13.393  1.00  0.00     0.005 C
HETATM   16  C12 UNL     1      -1.940   8.267  13.833  1.00  0.00     0.000 C
HETATM   17  C13 UNL     1      -1.097   7.195  14.505  1.00  0.00     0.000 C
HETATM   18  C14 UNL     1      -1.529   7.154  15.953  1.00  0.00     0.000 C
HETATM   19  C15 UNL     1      -2.540   6.076  16.151  1.00  0.00     0.000 C
HETATM   20  C16 UNL     1      -3.594   5.998  15.099  1.00  0.00     0.005 C
ENDBRANCH  13  14
ENDBRANCH  12  13
ENDBRANCH   9  12
BRANCH   8  21
HETATM   21  C6  UNL     1      -4.822  10.855  12.845  1.00  0.00     0.125 C
BRANCH  21  22
HETATM   22  C7  UNL     1      -5.372  11.422  11.590  1.00  0.00     0.233 C
HETATM   23  N3  UNL     1      -5.312  10.633  10.398  1.00  0.00    -0.062 NA
HETATM   24  O1  UNL     1      -5.885  12.583  11.566  1.00  0.00    -0.277 OA
ENDBRANCH  21  22
ENDBRANCH   8  21
BRANCH   1  25
HETATM   25  N1  UNL     1      -8.471  13.411  18.652  1.00  0.00    -0.380 N
ATOM     26  H12 UNL     1      -8.096  13.354  19.600  1.00  0.00     0.158 HD
ATOM     27  H11 UNL     1      -9.223  14.093  18.743  1.00  0.00     0.158 HD
ENDBRANCH   1  25
TORSDOF 6
ENDMDL