MODEL 3
REMARK VINA RESULT: -7.527860921      2.106      2.609
REMARK  7 active torsions:
REMARK  status: ('A' for Active; 'I' for Inactive)
REMARK    1  A    between atoms: C1_2  and  C2_3
REMARK       I    between atoms: C1_2  and  N3_14
REMARK    2  A    between atoms: C2_3  and  C3_4
REMARK    3  A    between atoms: C3_4  and  C4_5
REMARK    4  A    between atoms: C4_5  and  C5_6
REMARK    5  A    between atoms: N3_14  and  C7_16
REMARK    6  A    between atoms: C8_21  and  C9_22
REMARK    7  A    between atoms: C9_22  and  C10_23
ROOT
HETATM    1  C7  UNL     1      -3.739   8.898  12.833  1.00  0.00     0.700 A
HETATM    2  N4  UNL     1      -4.690   8.176  12.226  1.00  0.00    -0.130 N
ATOM      3  H4  UNL     1      -4.567   7.310  11.701  1.00  0.00     0.205 HD
HETATM    4  N5  UNL     1      -5.818   8.819  12.450  1.00  0.00    -0.274 N
ATOM      5  H5  UNL     1      -6.727   8.508  12.108  1.00  0.00     0.189 HD
HETATM    6  C8  UNL     1      -5.634   9.920  13.174  1.00  0.00     0.112 A
HETATM    7  N6  UNL     1      -4.291   9.957  13.413  1.00  0.00    -0.178 N
ATOM      8  H6  UNL     1      -3.798  10.674  13.946  1.00  0.00     0.185 HD
ENDROOT
BRANCH   1   9
HETATM    9  N3  UNL     1      -2.478   8.549  12.815  1.00  0.00    -0.158 N
HETATM   10  C1  UNL     1      -1.896   8.128  14.054  1.00  0.00     0.235 C
HETATM   11  O1  UNL     1      -1.322   8.932  14.815  1.00  0.00    -0.273 OA
ATOM     12  H3  UNL     1      -1.931   8.577  11.954  1.00  0.00     0.187 HD
BRANCH  10  13
HETATM   13  C2  UNL     1      -1.996   6.713  14.407  1.00  0.00     0.104 C
BRANCH  13  14
HETATM   14  C3  UNL     1      -2.904   6.371  15.529  1.00  0.00     0.017 C
BRANCH  14  15
HETATM   15  C4  UNL     1      -4.289   6.913  15.445  1.00  0.00     0.086 C
BRANCH  15  16
HETATM   16  C5  UNL     1      -5.232   5.747  15.322  1.00  0.00     0.141 A
HETATM   17  N1  UNL     1      -6.430   5.738  14.724  1.00  0.00    -0.281 N
HETATM   18  N2  UNL     1      -6.925   4.516  14.841  1.00  0.00    -0.268 N
ATOM     19  H1  UNL     1      -6.879   6.528  14.262  1.00  0.00     0.189 HD
HETATM   20  C6  UNL     1      -6.047   3.752  15.512  1.00  0.00     0.235 A
ATOM     21  H2  UNL     1      -7.828   4.205  14.481  1.00  0.00     0.190 HD
HETATM   22  S1  UNL     1      -6.236   2.165  15.893  1.00  0.00    -0.031 SA
HETATM   23  O2  UNL     1      -5.031   4.532  15.787  1.00  0.00    -0.269 OA
ENDBRANCH  15  16
ENDBRANCH  14  15
ENDBRANCH  13  14
ENDBRANCH  10  13
ENDBRANCH   1   9
BRANCH   6  24
HETATM   24  C9  UNL     1      -6.527  10.961  13.687  1.00  0.00     0.083 C
BRANCH  24  25
HETATM   25  C10 UNL     1      -6.577  11.077  15.173  1.00  0.00    -0.007 C
HETATM   26  C11 UNL     1      -7.263   9.804  15.679  1.00  0.00     0.005 C
HETATM   27  C12 UNL     1      -8.182  10.069  16.825  1.00  0.00     0.000 C
HETATM   28  C13 UNL     1      -7.457  10.981  17.811  1.00  0.00     0.000 C
HETATM   29  C14 UNL     1      -7.351  12.330  17.144  1.00  0.00     0.000 C
HETATM   30  C15 UNL     1      -7.453  12.223  15.640  1.00  0.00     0.005 C
ENDBRANCH  24  25
ENDBRANCH   6  24
TORSDOF 7
ENDMDL