MODEL 2
REMARK VINA RESULT: -7.222470433      0.823      1.196
REMARK  9 active torsions:
REMARK  status: ('A' for Active; 'I' for Inactive)
REMARK    1  A    between atoms: C2_2  and  O2_4
REMARK    2  A    between atoms: O2_4  and  C3_5
REMARK    3  A    between atoms: C3_5  and  C5_7
REMARK    4  A    between atoms: C5_7  and  C6_8
REMARK    5  A    between atoms: C5_7  and  N1_14
REMARK    6  A    between atoms: C6_8  and  C7_9
REMARK       I    between atoms: N1_14  and  C12_16
REMARK       I    between atoms: C12_16  and  N2_18
REMARK    7  A    between atoms: C15_21  and  C16_22
REMARK    8  A    between atoms: C16_22  and  O4_23
REMARK    9  A    between atoms: N3_25  and  O5_27
ROOT
HETATM    1  N1  UNL     1      -6.728   9.258  15.165  1.00  0.00    -0.336 N
ATOM      2  H1  UNL     1      -5.854   9.640  14.802  1.00  0.00     0.164 HD
HETATM    3  C12 UNL     1      -6.803   7.870  15.455  1.00  0.00     0.318 C
HETATM    4  O3  UNL     1      -7.896   7.435  15.902  1.00  0.00    -0.247 OA
HETATM    5  N2  UNL     1      -5.730   6.990  15.265  1.00  0.00    -0.333 N
HETATM    6  C13 UNL     1      -5.753   5.567  15.526  1.00  0.00     0.128 C
HETATM    7  C14 UNL     1      -4.374   5.052  15.184  1.00  0.00     0.034 C
HETATM    8  C15 UNL     1      -3.554   6.323  15.495  1.00  0.00     0.082 C
HETATM    9  C17 UNL     1      -4.416   7.339  14.783  1.00  0.00     0.140 C
ENDROOT
BRANCH   1  10
HETATM   10  C5  UNL     1      -7.850  10.148  15.367  1.00  0.00     0.115 C
BRANCH  10  11
HETATM   11  C3  UNL     1      -7.713  10.832  16.741  1.00  0.00     0.150 C
HETATM   12  C4  UNL     1      -8.702  10.271  17.728  1.00  0.00     0.042 C
BRANCH  11  13
HETATM   13  O2  UNL     1      -7.901  12.211  16.577  1.00  0.00    -0.315 OA
BRANCH  13  14
HETATM   14  C2  UNL     1      -7.523  13.132  17.511  1.00  0.00     0.255 C
HETATM   15  C1  UNL     1      -6.250  12.987  18.308  1.00  0.00     0.126 C
HETATM   16  O1  UNL     1      -8.211  14.147  17.760  1.00  0.00    -0.266 OA
ENDBRANCH  13  14
ENDBRANCH  11  13
ENDBRANCH  10  11
BRANCH  10  17
HETATM   17  C6  UNL     1      -7.983  11.175  14.291  1.00  0.00     0.032 C
BRANCH  17  18
HETATM   18  C7  UNL     1      -6.728  11.684  13.683  1.00  0.00    -0.013 C
HETATM   19  C8  UNL     1      -6.171  10.523  12.834  1.00  0.00     0.005 C
HETATM   20  C9  UNL     1      -5.186  11.206  11.913  1.00  0.00     0.000 C
HETATM   21  C10 UNL     1      -6.032  12.388  11.448  1.00  0.00     0.000 C
HETATM   22  C11 UNL     1      -6.870  12.759  12.670  1.00  0.00     0.005 C
ENDBRANCH  17  18
ENDBRANCH  10  17
ENDBRANCH   1  10
BRANCH   8  23
HETATM   23  C16 UNL     1      -2.191   6.205  15.029  1.00  0.00     0.141 C
HETATM   24  N3  UNL     1      -1.239   5.684  15.637  1.00  0.00    -0.251 N
ATOM     25  H3  UNL     1      -0.357   5.709  15.124  1.00  0.00     0.196 HD
BRANCH  23  26
HETATM   26  O4  UNL     1      -1.915   6.736  13.748  1.00  0.00    -0.348 OA
ATOM     27  H4  UNL     1      -2.191   6.213  13.005  1.00  0.00     0.219 HD
ENDBRANCH  23  26
BRANCH  24  28
HETATM   28  O5  UNL     1      -1.152   5.095  16.845  1.00  0.00    -0.288 OA
ATOM     29  H5  UNL     1      -1.361   4.217  17.143  1.00  0.00     0.244 HD
ENDBRANCH  24  28
ENDBRANCH   8  23
TORSDOF 9
ENDMDL