MODEL 5
REMARK VINA RESULT: -5.487741367      1.314      1.768
REMARK  9 active torsions:
REMARK  status: ('A' for Active; 'I' for Inactive)
REMARK    1  A    between atoms: C3_3  and  S1_4
REMARK    2  A    between atoms: S1_4  and  C4_5
REMARK    3  A    between atoms: C5_8  and  N2_9
REMARK    4  A    between atoms: N2_9  and  C6_10
REMARK    5  A    between atoms: N2_9  and  C8_12
REMARK    6  A    between atoms: C13_17  and  C14_18
REMARK    7  A    between atoms: C15_19  and  C17_21
REMARK    8  A    between atoms: C18_22  and  N3_23
REMARK    9  A    between atoms: C19_26  and  N4_27
ROOT
HETATM    1  C1  UNL     1      -9.483  10.212  18.527  1.00  0.00     0.013 C
HETATM    2  C2  UNL     1      -8.496  10.805  18.183  1.00  0.00    -0.107 C
HETATM    3  C3  UNL     1      -7.290  11.551  17.733  1.00  0.00     0.175 C
ENDROOT
BRANCH   3   4
HETATM    4  S1  UNL     1      -7.684  12.549  16.284  1.00  0.00    -0.082 SA
BRANCH   4   5
HETATM    5  C4  UNL     1      -7.021  11.737  14.839  1.00  0.00     0.148 A
HETATM    6  N1  UNL     1      -6.495  10.511  14.864  1.00  0.00    -0.322 N
HETATM    7  C5  UNL     1      -5.956   9.910  13.740  1.00  0.00     0.119 A
ATOM      8  H1  UNL     1      -6.491   9.997  15.745  1.00  0.00     0.169 HD
HETATM    9  C13 UNL     1      -5.967  10.590  12.589  1.00  0.00     0.053 A
HETATM   10  C19 UNL     1      -6.537  11.893  12.596  1.00  0.00     0.115 A
HETATM   11  N5  UNL     1      -7.047  12.444  13.691  1.00  0.00    -0.322 N
ATOM     12  H5  UNL     1      -7.449  13.380  13.664  1.00  0.00     0.169 HD
BRANCH   7  13
HETATM   13  N2  UNL     1      -5.443   8.612  13.915  1.00  0.00    -0.362 N
BRANCH  13  14
HETATM   14  C6  UNL     1      -6.363   7.509  13.796  1.00  0.00     0.120 C
HETATM   15  C7  UNL     1      -7.014   7.078  15.074  1.00  0.00     0.026 C
ENDBRANCH  13  14
BRANCH  13  16
HETATM   16  C8  UNL     1      -4.062   8.322  14.232  1.00  0.00     0.086 C
HETATM   17  C9  UNL     1      -3.837   7.022  14.931  1.00  0.00     0.025 C
HETATM   18  C10 UNL     1      -2.294   7.012  14.958  1.00  0.00     0.002 C
HETATM   19  C11 UNL     1      -1.951   7.433  13.558  1.00  0.00     0.002 C
HETATM   20  C12 UNL     1      -3.126   8.290  13.081  1.00  0.00     0.025 C
ENDBRANCH  13  16
ENDBRANCH   7  13
BRANCH   9  21
HETATM   21  C14 UNL     1      -5.419  10.151  11.334  1.00  0.00     0.035 C
HETATM   22  C15 UNL     1      -4.366  10.406  10.654  1.00  0.00    -0.006 C
HETATM   23  C16 UNL     1      -3.277  11.341  11.015  1.00  0.00     0.058 C
BRANCH  22  24
HETATM   24  C17 UNL     1      -4.212   9.682   9.369  1.00  0.00    -0.049 C
HETATM   25  C18 UNL     1      -4.071   9.117   8.316  1.00  0.00     0.008 C
BRANCH  25  26
HETATM   26  N3  UNL     1      -3.897   8.493   7.079  1.00  0.00    -0.359 N
ATOM     27  H32 UNL     1      -3.631   9.449   7.316  1.00  0.00     0.166 HD
ATOM     28  H31 UNL     1      -3.780   8.016   6.185  1.00  0.00     0.166 HD
ENDBRANCH  25  26
ENDBRANCH  22  24
ENDBRANCH   9  21
BRANCH  10  29
HETATM   29  N4  UNL     1      -6.556  12.543  11.496  1.00  0.00    -0.385 N
ATOM     30  H42 UNL     1      -5.687  12.928  11.123  1.00  0.00     0.157 HD
ATOM     31  H41 UNL     1      -7.453  12.659  11.025  1.00  0.00     0.157 HD
ENDBRANCH  10  29
ENDBRANCH   4   5
ENDBRANCH   3   4
TORSDOF 9
ENDMDL