MODEL 5
REMARK VINA RESULT: -3.049079486     12.573     16.300
REMARK  9 active torsions:
REMARK  status: ('A' for Active; 'I' for Inactive)
REMARK    1  A    between atoms: C2_2  and  C3_4
REMARK    2  A    between atoms: C3_4  and  C4_5
REMARK    3  A    between atoms: C4_5  and  C5_6
REMARK    4  A    between atoms: C5_6  and  C6_7
REMARK    5  A    between atoms: C8_9  and  C9_10
REMARK    6  A    between atoms: C10_11  and  C11_12
REMARK    7  A    between atoms: C14_15  and  O2_16
REMARK    8  A    between atoms: C17_20  and  O3_21
REMARK    9  A    between atoms: C20_25  and  O4_26
ROOT
HETATM    1  C11 UNL     1     -12.697   4.766   8.203  1.00  0.00     0.040 C
HETATM    2  C12 UNL     1     -14.078   5.391   8.201  1.00  0.00     0.028 C
HETATM    3  C13 UNL     1     -12.552   4.127   9.576  1.00  0.00     0.059 C
HETATM    4  C14 UNL     1     -12.955   2.737   9.719  1.00  0.00     0.072 C
HETATM    5  C15 UNL     1     -14.343   2.520  10.310  1.00  0.00     0.041 C
HETATM    6  C16 UNL     1     -14.429   1.006  10.272  1.00  0.00     0.035 C
HETATM    7  C17 UNL     1     -13.949   0.737   8.839  1.00  0.00     0.132 C
HETATM    8  C18 UNL     1     -12.914   1.813   8.574  1.00  0.00     0.046 C
HETATM    9  C19 UNL     1     -11.561   1.085   8.569  1.00  0.00     0.024 C
HETATM   10  C20 UNL     1     -13.115   2.411   7.207  1.00  0.00     0.202 C
HETATM   11  C21 UNL     1     -12.494   3.758   7.137  1.00  0.00     0.168 C
HETATM   12  O5  UNL     1     -11.808   4.030   6.184  1.00  0.00    -0.294 OA
ENDROOT
BRANCH   1  13
HETATM   13  C10 UNL     1     -11.727   5.878   8.082  1.00  0.00    -0.010 C
HETATM   14  C9  UNL     1     -11.677   6.828   7.208  1.00  0.00    -0.003 C
BRANCH  14  15
HETATM   15  C8  UNL     1     -12.531   7.110   6.090  1.00  0.00     0.002 C
HETATM   16  C6  UNL     1     -12.288   7.907   5.077  1.00  0.00    -0.084 C
HETATM   17  C7  UNL     1     -13.370   8.028   4.021  1.00  0.00     0.043 C
BRANCH  16  18
HETATM   18  C5  UNL     1     -11.069   8.690   4.878  1.00  0.00     0.034 C
BRANCH  18  19
HETATM   19  C4  UNL     1     -11.041   9.837   5.873  1.00  0.00     0.012 C
BRANCH  19  20
HETATM   20  C3  UNL     1     -11.604  11.079   5.222  1.00  0.00     0.078 C
BRANCH  20  21
HETATM   21  C2  UNL     1     -11.748  12.141   6.235  1.00  0.00     0.123 C
HETATM   22  C1  UNL     1     -12.863  13.111   6.125  1.00  0.00     0.091 C
HETATM   23  O1  UNL     1     -10.971  12.236   7.157  1.00  0.00    -0.298 OA
ENDBRANCH  20  21
ENDBRANCH  19  20
ENDBRANCH  18  19
ENDBRANCH  16  18
ENDBRANCH  14  15
ENDBRANCH   1  13
BRANCH   4  24
HETATM   24  O2  UNL     1     -12.109   2.166  10.715  1.00  0.00    -0.389 OA
ATOM     25  H2  UNL     1     -11.906   2.859  11.333  1.00  0.00     0.210 HD
ENDBRANCH   4  24
BRANCH  10  26
HETATM   26  O4  UNL     1     -14.422   2.380   6.760  1.00  0.00    -0.387 OA
ATOM     27  H4  UNL     1     -14.591   2.937   6.009  1.00  0.00     0.210 HD
ENDBRANCH  10  26
BRANCH   7  28
HETATM   28  O3  UNL     1     -13.428  -0.545   8.740  1.00  0.00    -0.395 OA
ATOM     29  H3  UNL     1     -12.483  -0.526   8.846  1.00  0.00     0.210 HD
ENDBRANCH   7  28
TORSDOF 9
ENDMDL