MODEL 5
REMARK VINA RESULT: -5.606803725      2.005      6.589
REMARK  9 active torsions:
REMARK  status: ('A' for Active; 'I' for Inactive)
REMARK    1  A    between atoms: C5_5  and  O1_6
REMARK    2  A    between atoms: C8_10  and  O2_11
REMARK    3  A    between atoms: C10_14  and  O3_15
REMARK    4  A    between atoms: O3_15  and  C11_16
REMARK    5  A    between atoms: C11_16  and  C12_17
REMARK    6  A    between atoms: C12_17  and  O4_18
REMARK    7  A    between atoms: O4_18  and  C13_19
REMARK    8  A    between atoms: C13_19  and  C14_20
REMARK    9  A    between atoms: C14_20  and  O5_21
ROOT
HETATM    1  C1  UNL     1      -3.528   5.922  15.893  1.00  0.00     0.010 C
HETATM    2  C2  UNL     1      -4.060   6.346  14.544  1.00  0.00    -0.012 C
HETATM    3  C3  UNL     1      -5.558   6.505  14.606  1.00  0.00     0.046 C
HETATM    4  C4  UNL     1      -5.955   7.930  14.729  1.00  0.00    -0.013 A
HETATM    5  C5  UNL     1      -6.908   8.299  15.615  1.00  0.00     0.079 A
HETATM    6  C6  UNL     1      -7.273   9.647  15.789  1.00  0.00    -0.015 A
HETATM    7  C7  UNL     1      -6.596  10.559  15.005  1.00  0.00    -0.011 A
HETATM    8  C8  UNL     1      -5.619  10.187  14.094  1.00  0.00     0.082 A
HETATM    9  C9  UNL     1      -5.272   8.882  13.926  1.00  0.00     0.014 A
HETATM   10  C10 UNL     1      -4.304   8.267  13.047  1.00  0.00     0.164 C
HETATM   11  C15 UNL     1      -3.320   7.550  14.021  1.00  0.00     0.042 C
HETATM   12  C16 UNL     1      -6.892  12.026  15.124  1.00  0.00     0.018 C
HETATM   13  C17 UNL     1      -7.784  12.524  14.025  1.00  0.00     0.015 C
HETATM   14  C18 UNL     1      -7.583  12.291  16.451  1.00  0.00     0.009 C
HETATM   15  C19 UNL     1      -8.776  11.403  16.587  1.00  0.00     0.005 C
HETATM   16  C20 UNL     1      -8.332   9.982  16.761  1.00  0.00     0.042 C
ENDROOT
BRANCH  10  17
HETATM   17  O3  UNL     1      -3.661   8.914  12.069  1.00  0.00    -0.351 OA
BRANCH  17  18
HETATM   18  C11 UNL     1      -4.251   9.015  10.862  1.00  0.00     0.159 C
BRANCH  18  19
HETATM   19  C12 UNL     1      -4.186  10.211  10.009  1.00  0.00     0.158 C
BRANCH  19  20
HETATM   20  O4  UNL     1      -4.616  11.415  10.416  1.00  0.00    -0.359 OA
BRANCH  20  21
HETATM   21  C13 UNL     1      -5.841  11.789  10.015  1.00  0.00     0.200 C
BRANCH  21  22
HETATM   22  C14 UNL     1      -6.606  12.578  11.079  1.00  0.00     0.190 C
BRANCH  22  23
HETATM   23  O5  UNL     1      -5.908  13.735  11.421  1.00  0.00    -0.399 OA
ATOM     24  H5  UNL     1      -6.457  14.500  11.298  1.00  0.00     0.209 HD
ENDBRANCH  22  23
ENDBRANCH  21  22
ENDBRANCH  20  21
ENDBRANCH  19  20
ENDBRANCH  18  19
ENDBRANCH  17  18
ENDBRANCH  10  17
BRANCH   8  25
HETATM   25  O2  UNL     1      -5.005  11.166  13.370  1.00  0.00    -0.359 OA
ATOM     26  H2  UNL     1      -5.195  12.071  13.585  1.00  0.00     0.217 HD
ENDBRANCH   8  25
BRANCH   5  27
HETATM   27  O1  UNL     1      -7.581   7.358  16.407  1.00  0.00    -0.360 OA
ATOM     28  H1  UNL     1      -8.530   7.336  16.457  1.00  0.00     0.217 HD
ENDBRANCH   5  27
TORSDOF 9
ENDMDL