MODEL 2
REMARK VINA RESULT: -5.971943120      1.909      4.514
REMARK  8 active torsions:
REMARK  status: ('A' for Active; 'I' for Inactive)
REMARK    1  A    between atoms: C2_2  and  C3_3
REMARK    2  A    between atoms: C2_2  and  C4_6
REMARK    3  A    between atoms: C3_3  and  O1_4
REMARK    4  A    between atoms: C4_6  and  C6_8
REMARK    5  A    between atoms: C11_13  and  O2_14
REMARK    6  A    between atoms: C15_19  and  C16_20
REMARK    7  A    between atoms: C19_23  and  O3_24
REMARK    8  A    between atoms: C20_26  and  O4_27
ROOT
HETATM    1  C6  UNL     1       9.667   7.012  20.854  1.00  0.00    -0.033 C
HETATM    2  C7  UNL     1       8.500   7.887  21.056  1.00  0.00    -0.056 C
HETATM    3  C8  UNL     1       8.605   9.300  20.517  1.00  0.00     0.048 C
HETATM    4  C9  UNL     1       7.793   7.790  22.333  1.00  0.00     0.006 C
HETATM    5  C10 UNL     1       6.888   6.900  22.768  1.00  0.00     0.014 C
HETATM    6  C11 UNL     1       6.229   5.716  22.250  1.00  0.00     0.109 C
HETATM    7  C12 UNL     1       6.810   5.113  20.995  1.00  0.00     0.082 C
HETATM    8  C13 UNL     1       8.254   4.842  21.003  1.00  0.00    -0.044 C
HETATM    9  C14 UNL     1       8.620   4.408  22.371  1.00  0.00     0.012 C
HETATM   10  C15 UNL     1       7.794   4.308  23.403  1.00  0.00    -0.045 C
HETATM   11  C19 UNL     1       6.343   4.616  23.315  1.00  0.00     0.186 C
HETATM   12  C20 UNL     1       9.245   5.648  20.307  1.00  0.00     0.180 C
ENDROOT
BRANCH   1  13
HETATM   13  C4  UNL     1      10.765   6.912  21.845  1.00  0.00     0.044 C
HETATM   14  C5  UNL     1      11.831   5.892  21.393  1.00  0.00     0.019 C
BRANCH  13  15
HETATM   15  C2  UNL     1      11.543   8.100  22.206  1.00  0.00    -0.058 C
HETATM   16  C1  UNL     1      12.576   8.544  21.462  1.00  0.00     0.017 C
BRANCH  15  17
HETATM   17  C3  UNL     1      11.412   8.799  23.502  1.00  0.00     0.198 C
BRANCH  17  18
HETATM   18  O1  UNL     1      10.528   9.900  23.415  1.00  0.00    -0.397 OA
ATOM     19  H1  UNL     1      10.969  10.720  23.604  1.00  0.00     0.209 HD
ENDBRANCH  17  18
ENDBRANCH  15  17
ENDBRANCH  13  15
ENDBRANCH   1  13
BRANCH  12  20
HETATM   20  O4  UNL     1       9.027   5.800  18.940  1.00  0.00    -0.382 OA
HETATM   21  C21 UNL     1      10.103   6.189  18.203  1.00  0.00     0.202 C
ENDBRANCH  12  20
BRANCH   6  22
HETATM   22  O2  UNL     1       4.862   5.927  21.981  1.00  0.00    -0.383 OA
ATOM     23  H2  UNL     1       4.545   5.403  21.255  1.00  0.00     0.211 HD
ENDBRANCH   6  22
BRANCH  10  24
HETATM   24  C16 UNL     1       8.299   3.854  24.741  1.00  0.00     0.009 C
HETATM   25  C17 UNL     1       9.596   4.522  25.129  1.00  0.00     0.014 C
HETATM   26  C18 UNL     1       7.274   4.133  25.800  1.00  0.00     0.014 C
ENDBRANCH  10  24
BRANCH  11  27
HETATM   27  O3  UNL     1       5.634   3.518  22.804  1.00  0.00    -0.388 OA
ATOM     28  H3  UNL     1       5.152   3.158  23.539  1.00  0.00     0.210 HD
ENDBRANCH  11  27
TORSDOF 8
ENDMDL