MODEL 2
REMARK VINA RESULT: -6.598540115      3.015      3.589
REMARK  6 active torsions:
REMARK  status: ('A' for Active; 'I' for Inactive)
REMARK    1  A    between atoms: C4_4  and  C5_5
REMARK       I    between atoms: C5_5  and  N1_7
REMARK    2  A    between atoms: N1_7  and  C6_9
REMARK    3  A    between atoms: C9_12  and  C11_14
REMARK    4  A    between atoms: C11_14  and  N2_15
REMARK    5  A    between atoms: N2_15  and  C12_18
REMARK    6  A    between atoms: C19_25  and  O2_26
ROOT
HETATM    1  C6  UNL     1       8.805   7.223  19.191  1.00  0.00     0.114 C
HETATM    2  C7  UNL     1       7.778   6.178  19.524  1.00  0.00     0.028 C
HETATM    3  C8  UNL     1       7.988   5.513  20.828  1.00  0.00     0.013 C
HETATM    4  C9  UNL     1       8.376   6.364  21.978  1.00  0.00    -0.014 C
HETATM    5  C10 UNL     1       9.193   5.507  22.923  1.00  0.00     0.017 C
HETATM    6  C17 UNL     1       9.178   7.582  21.627  1.00  0.00     0.022 C
HETATM    7  C18 UNL     1      10.661   7.313  21.505  1.00  0.00     0.013 C
HETATM    8  C19 UNL     1       8.737   8.234  20.342  1.00  0.00     0.145 C
ENDROOT
BRANCH   1   9
HETATM    9  N1  UNL     1       8.432   7.885  17.977  1.00  0.00    -0.348 N
HETATM   10  C5  UNL     1       9.221   7.747  16.821  1.00  0.00     0.270 C
HETATM   11  O1  UNL     1      10.256   7.044  16.849  1.00  0.00    -0.266 OA
ATOM     12  H1  UNL     1       7.589   8.458  17.950  1.00  0.00     0.163 HD
BRANCH  10  13
HETATM   13  C4  UNL     1       8.885   8.402  15.549  1.00  0.00     0.124 A
HETATM   14  C3  UNL     1       8.035   9.468  15.380  1.00  0.00     0.071 A
HETATM   15  C2  UNL     1       8.031   9.732  14.028  1.00  0.00     0.075 A
HETATM   16  C1  UNL     1       7.241  10.816  13.383  1.00  0.00     0.079 C
HETATM   17  O3  UNL     1       8.823   8.879  13.451  1.00  0.00    -0.242 OA
HETATM   18  N3  UNL     1       9.339   8.084  14.328  1.00  0.00    -0.256 N
ATOM     19  H3  UNL     1       9.993   7.329  14.123  1.00  0.00     0.195 HD
ENDBRANCH  10  13
ENDBRANCH   1   9
BRANCH   8  20
HETATM   20  O2  UNL     1       9.615   9.261  20.052  1.00  0.00    -0.393 OA
ATOM     21  H2  UNL     1       9.251  10.062  20.410  1.00  0.00     0.210 HD
ENDBRANCH   8  20
BRANCH   4  22
HETATM   22  C11 UNL     1       7.103   6.892  22.646  1.00  0.00     0.242 C
BRANCH  22  23
HETATM   23  N2  UNL     1       5.945   6.151  22.271  1.00  0.00    -0.070 N
ATOM     24  H22 UNL     1       5.457   6.609  21.501  1.00  0.00     0.277 HD
ATOM     25  H21 UNL     1       6.207   5.279  21.811  1.00  0.00     0.277 HD
BRANCH  23  26
HETATM   26  C12 UNL     1       5.046   5.900  23.370  1.00  0.00     0.186 C
HETATM   27  C13 UNL     1       5.760   5.346  24.589  1.00  0.00     0.033 C
HETATM   28  C14 UNL     1       6.107   3.953  24.120  1.00  0.00     0.002 C
HETATM   29  C15 UNL     1       5.067   3.564  23.108  1.00  0.00     0.002 C
HETATM   30  C16 UNL     1       4.134   4.744  23.016  1.00  0.00     0.033 C
ENDBRANCH  23  26
ENDBRANCH  22  23
ENDBRANCH   4  22
TORSDOF 6
ENDMDL