MODEL 5
REMARK VINA RESULT: -6.113562233      3.465      7.417
REMARK  5 active torsions:
REMARK  status: ('A' for Active; 'I' for Inactive)
REMARK    1  A    between atoms: N2_7  and  C5_9
REMARK    2  A    between atoms: C9_13  and  C10_14
REMARK    3  A    between atoms: C10_14  and  C11_15
REMARK    4  A    between atoms: C12_19  and  C14_22
REMARK    5  A    between atoms: C14_22  and  C15_23
ROOT
HETATM    1  C1  UNL     1       9.323   7.938  22.246  1.00  0.00     0.041 C
HETATM    2  C2  UNL     1       8.174   6.914  22.003  1.00  0.00     0.055 C
HETATM    3  C3  UNL     1       7.032   7.370  22.804  1.00  0.00     0.041 C
HETATM    4  N1  UNL     1       7.920   7.074  20.588  1.00  0.00    -0.360 N
ATOM      5  H1  UNL     1       7.044   7.441  20.217  1.00  0.00     0.162 HD
HETATM    6  C4  UNL     1       8.997   6.676  19.769  1.00  0.00     0.138 C
HETATM    7  N2  UNL     1       9.314   7.050  18.607  1.00  0.00    -0.366 N
ATOM      8  H2  UNL     1      10.147   6.619  18.205  1.00  0.00     0.162 HD
HETATM    9  S1  UNL     1       9.888   5.468  20.741  1.00  0.00    -0.066 SA
HETATM   10  C12 UNL     1       8.764   5.594  22.230  1.00  0.00     0.135 C
HETATM   11  C13 UNL     1       9.687   5.565  23.387  1.00  0.00     0.083 C
HETATM   12  N3  UNL     1      10.399   5.559  24.297  1.00  0.00    -0.195 NA
ENDROOT
BRANCH  10  13
HETATM   13  C14 UNL     1       7.959   4.374  22.161  1.00  0.00     0.115 C
BRANCH  13  14
HETATM   14  C15 UNL     1       6.764   4.229  22.965  1.00  0.00     0.083 A
HETATM   15  N4  UNL     1       6.689   4.140  24.294  1.00  0.00    -0.354 N
HETATM   16  C16 UNL     1       5.409   3.986  24.632  1.00  0.00     0.106 A
ATOM     17  H4  UNL     1       7.476   4.183  24.941  1.00  0.00     0.166 HD
HETATM   18  C17 UNL     1       4.661   3.977  23.498  1.00  0.00     0.106 A
HETATM   19  N5  UNL     1       5.518   4.127  22.493  1.00  0.00    -0.354 N
ATOM     20  H5  UNL     1       5.262   4.160  21.506  1.00  0.00     0.166 HD
ENDBRANCH  13  14
ENDBRANCH  10  13
BRANCH   7  21
HETATM   21  C5  UNL     1       8.640   8.006  17.789  1.00  0.00     0.088 C
HETATM   22  C6  UNL     1       9.218   7.873  16.374  1.00  0.00     0.025 C
HETATM   23  C7  UNL     1      10.679   8.238  16.662  1.00  0.00     0.002 C
HETATM   24  C8  UNL     1      10.518   9.435  17.549  1.00  0.00     0.007 C
HETATM   25  C9  UNL     1       9.159   9.385  18.164  1.00  0.00     0.018 C
BRANCH  25  26
HETATM   26  C10 UNL     1       8.313  10.484  17.572  1.00  0.00     0.119 C
BRANCH  26  27
HETATM   27  C11 UNL     1       7.740  11.255  18.706  1.00  0.00     0.172 C
HETATM   28  O1  UNL     1       7.403  10.717  19.798  1.00  0.00    -0.648 OA
HETATM   29  O2  UNL     1       7.535  12.638  18.631  1.00  0.00    -0.648 OA
ENDBRANCH  26  27
ENDBRANCH  25  26
ENDBRANCH   7  21
TORSDOF 5
ENDMDL