MODEL 3
REMARK VINA RESULT: -6.358615803      3.511      6.420
REMARK  8 active torsions:
REMARK  status: ('A' for Active; 'I' for Inactive)
REMARK    1  A    between atoms: C2_2  and  O1_3
REMARK    2  A    between atoms: C2_2  and  C3_5
REMARK    3  A    between atoms: C3_5  and  C4_6
REMARK    4  A    between atoms: C4_6  and  C5_7
REMARK    5  A    between atoms: C4_6  and  O2_11
REMARK    6  A    between atoms: O2_11  and  C6_12
REMARK    7  A    between atoms: C11_18  and  C12_19
REMARK    8  A    between atoms: C12_19  and  O4_20
ROOT
HETATM    1  C6  UNL     1       8.135   6.614  19.176  1.00  0.00     0.266 C
HETATM    2  O3  UNL     1       6.856   6.087  19.482  1.00  0.00    -0.354 OA
HETATM    3  C7  UNL     1       6.809   5.863  20.870  1.00  0.00     0.139 A
HETATM    4  C8  UNL     1       7.450   6.831  21.715  1.00  0.00     0.027 A
HETATM    5  C9  UNL     1       7.742   6.932  23.154  1.00  0.00     0.009 C
HETATM    6  C10 UNL     1       8.963   7.767  23.341  1.00  0.00     0.013 C
HETATM    7  C11 UNL     1      10.174   7.616  22.588  1.00  0.00    -0.011 C
HETATM    8  C13 UNL     1      10.199   8.121  21.169  1.00  0.00     0.018 C
HETATM    9  C14 UNL     1      10.254   6.756  20.626  1.00  0.00     0.005 C
HETATM   10  C15 UNL     1       9.093   6.064  20.116  1.00  0.00     0.057 C
HETATM   11  C16 UNL     1       8.169   5.694  21.234  1.00  0.00     0.001 A
HETATM   12  C17 UNL     1       8.755   4.682  22.060  1.00  0.00     0.014 C
HETATM   13  C18 UNL     1      10.097   5.100  22.560  1.00  0.00     0.011 C
HETATM   14  C19 UNL     1      10.656   6.338  22.047  1.00  0.00    -0.030 C
HETATM   15  C20 UNL     1      12.198   6.254  22.059  1.00  0.00     0.016 C
ENDROOT
BRANCH   1  16
HETATM   16  O2  UNL     1       8.129   7.972  18.956  1.00  0.00    -0.350 OA
BRANCH  16  17
HETATM   17  C4  UNL     1       7.932   8.351  17.640  1.00  0.00     0.164 C
BRANCH  17  18
HETATM   18  C3  UNL     1       8.400   9.728  17.312  1.00  0.00     0.068 C
BRANCH  18  19
HETATM   19  C2  UNL     1       7.339  10.549  16.616  1.00  0.00     0.116 C
HETATM   20  C1  UNL     1       7.695  10.717  15.146  1.00  0.00     0.039 C
BRANCH  19  21
HETATM   21  O1  UNL     1       6.098   9.924  16.658  1.00  0.00    -0.396 OA
ATOM     22  H1  UNL     1       5.974   9.625  17.550  1.00  0.00     0.210 HD
ENDBRANCH  19  21
ENDBRANCH  18  19
ENDBRANCH  17  18
BRANCH  17  23
HETATM   23  C5  UNL     1       8.583   7.428  16.672  1.00  0.00     0.085 C
HETATM   24  N1  UNL     1       7.938   6.998  15.656  1.00  0.00    -0.409 N
ATOM     25  H12 UNL     1       6.973   7.300  15.523  1.00  0.00     0.155 HD
ATOM     26  H11 UNL     1       8.385   6.366  14.992  1.00  0.00     0.155 HD
ENDBRANCH  17  23
ENDBRANCH  16  17
ENDBRANCH   1  16
BRANCH   7  27
HETATM   27  C12 UNL     1      11.302   8.310  23.399  1.00  0.00     0.174 C
BRANCH  27  28
HETATM   28  O4  UNL     1      11.244   9.675  23.261  1.00  0.00    -0.400 OA
ATOM     29  H4  UNL     1      10.982  10.091  24.074  1.00  0.00     0.209 HD
ENDBRANCH  27  28
ENDBRANCH   7  27
TORSDOF 8
ENDMDL