MODEL 1
REMARK VINA RESULT: -6.334832472      0.000      0.000
REMARK  9 active torsions:
REMARK  status: ('A' for Active; 'I' for Inactive)
REMARK    1  A    between atoms: C5_5  and  C6_6
REMARK    2  A    between atoms: C6_6  and  O1_7
REMARK    3  A    between atoms: O1_7  and  C7_8
REMARK       I    between atoms: C7_8  and  N1_10
REMARK    4  A    between atoms: N1_10  and  C8_12
REMARK    5  A    between atoms: C8_12  and  C11_15
REMARK    6  A    between atoms: C11_15  and  O3_16
REMARK    7  A    between atoms: C13_19  and  N2_20
REMARK       I    between atoms: N2_20  and  C14_22
REMARK    8  A    between atoms: C14_22  and  O5_24
REMARK    9  A    between atoms: O5_24  and  C15_25
ROOT
HETATM    1  C1  UNL     1       8.661   7.759  23.244  1.00  0.00     0.011 C
HETATM    2  C2  UNL     1       9.914   7.194  22.672  1.00  0.00    -0.002 C
HETATM    3  C3  UNL     1      10.533   8.114  21.608  1.00  0.00     0.014 C
HETATM    4  C4  UNL     1      11.106   6.809  21.036  1.00  0.00     0.019 C
HETATM    5  C5  UNL     1       9.744   6.260  21.495  1.00  0.00    -0.012 C
HETATM    6  C12 UNL     1       8.830   6.965  20.546  1.00  0.00     0.037 C
HETATM    7  C13 UNL     1       9.338   8.408  20.756  1.00  0.00     0.092 C
ENDROOT
BRANCH   5   8
HETATM    8  C6  UNL     1       9.635   4.839  21.737  1.00  0.00     0.190 C
BRANCH   8   9
HETATM    9  O1  UNL     1       8.383   4.262  21.428  1.00  0.00    -0.303 OA
BRANCH   9  10
HETATM   10  C7  UNL     1       7.321   4.411  22.302  1.00  0.00     0.361 C
HETATM   11  O2  UNL     1       7.489   3.997  23.486  1.00  0.00    -0.238 OA
HETATM   12  N1  UNL     1       6.083   5.006  21.895  1.00  0.00    -0.326 N
ATOM     13  H1  UNL     1       5.967   5.335  20.937  1.00  0.00     0.165 HD
BRANCH  12  14
HETATM   14  C8  UNL     1       5.001   5.141  22.840  1.00  0.00     0.049 C
HETATM   15  C9  UNL     1       5.450   5.790  24.128  1.00  0.00     0.040 C
HETATM   16  C10 UNL     1       3.846   5.927  22.295  1.00  0.00     0.040 C
BRANCH  14  17
HETATM   17  C11 UNL     1       4.486   3.747  23.196  1.00  0.00     0.194 C
BRANCH  17  18
HETATM   18  O3  UNL     1       4.581   3.519  24.568  1.00  0.00    -0.398 OA
ATOM     19  H3  UNL     1       4.577   2.588  24.757  1.00  0.00     0.209 HD
ENDBRANCH  17  18
ENDBRANCH  14  17
ENDBRANCH  12  14
ENDBRANCH   9  10
ENDBRANCH   8   9
ENDBRANCH   5   8
BRANCH   7  20
HETATM   20  N2  UNL     1       9.634   9.050  19.526  1.00  0.00    -0.332 N
HETATM   21  C14 UNL     1       8.733  10.006  18.991  1.00  0.00     0.361 C
HETATM   22  O4  UNL     1       7.663  10.296  19.600  1.00  0.00    -0.238 OA
ATOM     23  H2  UNL     1      10.495   8.825  19.027  1.00  0.00     0.165 HD
BRANCH  21  24
HETATM   24  O5  UNL     1       8.970  10.658  17.805  1.00  0.00    -0.294 OA
BRANCH  24  25
HETATM   25  C15 UNL     1       8.876  10.078  16.534  1.00  0.00     0.061 C
HETATM   26  C16 UNL     1       8.196   8.742  16.519  1.00  0.00     0.046 C
HETATM   27  C17 UNL     1      10.270   9.982  15.922  1.00  0.00     0.046 C
HETATM   28  C18 UNL     1       8.063  11.025  15.661  1.00  0.00     0.046 C
ENDBRANCH  24  25
ENDBRANCH  21  24
ENDBRANCH   7  20
TORSDOF 9
ENDMDL