MODEL 3
REMARK VINA RESULT: -6.308096174      2.553      7.704
REMARK  10 active torsions:
REMARK  status: ('A' for Active; 'I' for Inactive)
REMARK    1  A    between atoms: C2_2  and  N1_3
REMARK    2  A    between atoms: C3_4  and  O1_5
REMARK    3  A    between atoms: C6_9  and  O2_10
REMARK    4  A    between atoms: C8_13  and  O3_14
REMARK    5  A    between atoms: C8_13  and  C9_16
REMARK    6  A    between atoms: C9_16  and  N2_17
REMARK    7  A    between atoms: N2_17  and  C10_18
REMARK    8  A    between atoms: N2_17  and  C14_24
REMARK    9  A    between atoms: C10_18  and  O4_19
REMARK   10  A    between atoms: C10_18  and  C11_21
ROOT
HETATM    1  N1  UNL     1       7.339   5.942  22.247  1.00  0.00    -0.283 N
HETATM    2  C3  UNL     1       8.676   6.048  22.444  1.00  0.00     0.159 A
HETATM    3  C4  UNL     1       9.305   6.138  21.197  1.00  0.00     0.026 A
HETATM    4  C5  UNL     1       8.347   6.082  20.236  1.00  0.00     0.011 A
HETATM    5  C6  UNL     1       7.138   5.963  20.926  1.00  0.00     0.155 A
HETATM    6  C7  UNL     1       8.678   6.044  18.802  1.00  0.00     0.087 C
HETATM    7  C8  UNL     1      10.013   6.547  18.426  1.00  0.00     0.096 C
HETATM    8  C19 UNL     1      10.971   6.552  19.564  1.00  0.00     0.013 C
HETATM    9  C20 UNL     1      10.687   6.378  20.816  1.00  0.00     0.015 C
ENDROOT
BRANCH   7  10
HETATM   10  O3  UNL     1      10.531   5.622  17.496  1.00  0.00    -0.384 OA
ATOM     11  H3  UNL     1      11.476   5.667  17.578  1.00  0.00     0.211 HD
ENDBRANCH   7  10
BRANCH   7  12
HETATM   12  C9  UNL     1      10.084   7.946  17.885  1.00  0.00     0.167 C
BRANCH  12  13
HETATM   13  N2  UNL     1       8.969   8.361  17.013  1.00  0.00    -0.357 N
BRANCH  13  14
HETATM   14  C10 UNL     1       8.946   7.787  15.760  1.00  0.00     0.118 C
BRANCH  14  15
HETATM   15  O4  UNL     1       7.870   7.002  15.570  1.00  0.00    -0.349 OA
ATOM     16  H4  UNL     1       7.729   6.790  14.655  1.00  0.00     0.219 HD
ENDBRANCH  14  15
BRANCH  14  17
HETATM   17  C11 UNL     1       9.753   7.766  14.553  1.00  0.00     0.060 A
HETATM   18  C12 UNL     1       9.705   9.156  13.842  1.00  0.00     0.013 A
HETATM   19  C13 UNL     1      10.956   8.466  14.167  1.00  0.00     0.013 A
ENDBRANCH  14  17
ENDBRANCH  13  14
BRANCH  13  20
HETATM   20  C14 UNL     1       8.070   9.305  17.569  1.00  0.00     0.086 C
HETATM   21  C15 UNL     1       8.316   9.758  18.969  1.00  0.00     0.025 C
HETATM   22  C16 UNL     1       7.815  11.159  19.114  1.00  0.00     0.002 C
HETATM   23  C17 UNL     1       7.180  11.519  17.823  1.00  0.00     0.002 C
HETATM   24  C18 UNL     1       7.726  10.533  16.805  1.00  0.00     0.025 C
ENDBRANCH  13  20
ENDBRANCH  12  13
ENDBRANCH   7  12
BRANCH   5  25
HETATM   25  O2  UNL     1       5.932   5.883  20.269  1.00  0.00    -0.345 OA
ATOM     26  H2  UNL     1       5.657   5.211  19.657  1.00  0.00     0.219 HD
ENDBRANCH   5  25
BRANCH   2  27
HETATM   27  O1  UNL     1       9.347   6.067  23.656  1.00  0.00    -0.345 OA
ATOM     28  H1  UNL     1      10.287   6.083  23.793  1.00  0.00     0.219 HD
ENDBRANCH   2  27
BRANCH   1  29
HETATM   29  C2  UNL     1       6.425   5.835  23.327  1.00  0.00     0.091 C
HETATM   30  C1  UNL     1       5.859   4.730  23.733  1.00  0.00     0.030 C
ENDBRANCH   1  29
TORSDOF 10
ENDMDL