MODEL 2
REMARK VINA RESULT: -6.874379403      1.978      2.887
REMARK  7 active torsions:
REMARK  status: ('A' for Active; 'I' for Inactive)
REMARK    1  A    between atoms: C2_2  and  C3_3
REMARK    2  A    between atoms: C3_3  and  C4_4
REMARK    3  A    between atoms: C4_4  and  C5_5
REMARK    4  A    between atoms: C5_5  and  O1_6
REMARK    5  A    between atoms: C5_5  and  C6_8
REMARK    6  A    between atoms: C15_18  and  C16_19
REMARK    7  A    between atoms: C16_19  and  O3_20
ROOT
HETATM    1  C6  UNL     1       7.953   6.561  21.998  1.00  0.00     0.052 C
HETATM    2  C7  UNL     1       9.003   7.261  22.799  1.00  0.00     0.011 C
HETATM    3  C8  UNL     1       9.460   8.480  21.968  1.00  0.00     0.013 C
HETATM    4  C9  UNL     1       8.353   8.530  20.972  1.00  0.00     0.053 C
HETATM    5  C10 UNL     1       8.484   9.425  19.835  1.00  0.00    -0.061 A
HETATM    6  C11 UNL     1       8.331  10.553  19.146  1.00  0.00    -0.006 A
HETATM    7  C12 UNL     1       9.049   9.357  18.573  1.00  0.00     0.024 A
HETATM    8  C13 UNL     1      10.446   9.753  18.129  1.00  0.00     0.027 C
HETATM    9  C14 UNL     1       8.221   8.749  17.451  1.00  0.00     0.147 C
HETATM   10  O2  UNL     1       8.659   9.194  16.185  1.00  0.00    -0.376 OA
HETATM   11  C15 UNL     1       8.560   7.908  15.600  1.00  0.00     0.154 C
HETATM   12  C17 UNL     1       8.656   7.387  17.037  1.00  0.00     0.074 C
HETATM   13  C18 UNL     1       7.585   6.411  17.429  1.00  0.00     0.220 C
HETATM   14  O4  UNL     1       7.838   5.957  18.699  1.00  0.00    -0.240 OA
HETATM   15  O5  UNL     1       7.362   6.749  19.651  1.00  0.00    -0.229 OA
HETATM   16  C19 UNL     1       8.303   7.072  20.583  1.00  0.00     0.106 C
HETATM   17  C20 UNL     1       9.659   6.467  20.311  1.00  0.00     0.050 C
ENDROOT
BRANCH   1  18
HETATM   18  C5  UNL     1       7.787   5.130  22.126  1.00  0.00     0.125 C
BRANCH  18  19
HETATM   19  C4  UNL     1       6.369   4.721  22.423  1.00  0.00     0.032 C
BRANCH  19  20
HETATM   20  C3  UNL     1       5.618   5.846  23.031  1.00  0.00     0.002 C
BRANCH  20  21
HETATM   21  C2  UNL     1       5.517   5.690  24.527  1.00  0.00    -0.004 C
HETATM   22  C1  UNL     1       5.169   4.223  24.775  1.00  0.00     0.005 C
ENDBRANCH  20  21
ENDBRANCH  19  20
ENDBRANCH  18  19
BRANCH  18  23
HETATM   23  O1  UNL     1       8.569   4.517  23.114  1.00  0.00    -0.395 OA
ATOM     24  H1  UNL     1       9.423   4.388  22.719  1.00  0.00     0.210 HD
ENDBRANCH  18  23
ENDBRANCH   1  18
BRANCH  11  25
HETATM   25  C16 UNL     1       9.739   7.546  14.748  1.00  0.00     0.196 C
BRANCH  25  26
HETATM   26  O3  UNL     1       9.509   7.745  13.404  1.00  0.00    -0.398 OA
ATOM     27  H3  UNL     1      10.167   8.295  12.995  1.00  0.00     0.209 HD
ENDBRANCH  25  26
ENDBRANCH  11  25
TORSDOF 7
ENDMDL