MODEL 3
REMARK VINA RESULT: -7.286479960      2.447      5.358
REMARK  6 active torsions:
REMARK  status: ('A' for Active; 'I' for Inactive)
REMARK    1  A    between atoms: N1_1  and  C1_4
REMARK    2  A    between atoms: C3_8  and  C4_9
REMARK    3  A    between atoms: C4_9  and  C5_10
REMARK    4  A    between atoms: C5_10  and  C6_11
REMARK    5  A    between atoms: C11_19  and  N4_20
REMARK    6  A    between atoms: C15_24  and  C16_25
ROOT
HETATM    1  C1  UNL     1       9.795   6.428  18.209  1.00  0.00     0.116 A
HETATM    2  C2  UNL     1       8.479   6.028  18.246  1.00  0.00     0.136 A
HETATM    3  N2  UNL     1       7.767   6.154  19.364  1.00  0.00    -0.363 N
ATOM      4  H2  UNL     1       6.791   5.860  19.400  1.00  0.00     0.165 HD
HETATM    5  C3  UNL     1       8.382   6.688  20.466  1.00  0.00     0.053 A
HETATM    6  C11 UNL     1       9.679   7.091  20.449  1.00  0.00     0.128 A
HETATM    7  N6  UNL     1      10.386   6.949  19.286  1.00  0.00    -0.326 N
ATOM      8  H6  UNL     1      11.363   7.241  19.243  1.00  0.00     0.169 HD
ENDROOT
BRANCH   6   9
HETATM    9  N4  UNL     1      10.390   7.695  21.530  1.00  0.00    -0.355 N
HETATM   10  C12 UNL     1       9.936   8.968  22.074  1.00  0.00     0.125 C
HETATM   11  C13 UNL     1      10.650   9.103  23.408  1.00  0.00     0.022 C
HETATM   12  C14 UNL     1      11.959   8.420  23.085  1.00  0.00     0.033 C
HETATM   13  C15 UNL     1      11.542   7.255  22.280  1.00  0.00     0.136 C
BRANCH  13  14
HETATM   14  C16 UNL     1      11.208   6.028  23.062  1.00  0.00     0.032 A
HETATM   15  C17 UNL     1      10.584   6.050  24.270  1.00  0.00     0.027 A
HETATM   16  C18 UNL     1      10.336   4.867  24.924  1.00  0.00     0.003 A
HETATM   17  C19 UNL     1      10.720   3.679  24.356  1.00  0.00     0.017 A
HETATM   18  C20 UNL     1      11.358   3.708  23.117  1.00  0.00     0.088 A
HETATM   19  N5  UNL     1      11.588   4.871  22.496  1.00  0.00    -0.367 N
ATOM     20  H5  UNL     1      12.055   4.878  21.590  1.00  0.00     0.165 HD
ENDBRANCH  13  14
ENDBRANCH   6   9
BRANCH   5  21
HETATM   21  C4  UNL     1       7.542   6.716  21.727  1.00  0.00     0.061 C
BRANCH  21  22
HETATM   22  C5  UNL     1       6.632   5.530  21.771  1.00  0.00     0.011 C
BRANCH  22  23
HETATM   23  C6  UNL     1       6.843   4.600  22.936  1.00  0.00    -0.011 C
HETATM   24  C7  UNL     1       5.917   3.419  22.686  1.00  0.00     0.032 C
HETATM   25  C8  UNL     1       4.505   3.778  23.174  1.00  0.00     0.232 C
HETATM   26  N3  UNL     1       4.657   3.893  24.622  1.00  0.00    -0.075 N
HETATM   27  C9  UNL     1       5.415   5.058  24.966  1.00  0.00     0.232 C
ATOM     28  H32 UNL     1       3.755   3.877  25.099  1.00  0.00     0.277 HD
ATOM     29  H31 UNL     1       5.061   3.049  25.027  1.00  0.00     0.277 HD
HETATM   30  C10 UNL     1       6.722   5.195  24.263  1.00  0.00     0.032 C
ENDBRANCH  22  23
ENDBRANCH  21  22
ENDBRANCH   5  21
BRANCH   1  31
HETATM   31  N1  UNL     1      10.465   6.284  17.088  1.00  0.00    -0.384 N
ATOM     32  H12 UNL     1      11.090   7.022  16.762  1.00  0.00     0.157 HD
ATOM     33  H11 UNL     1      10.348   5.422  16.556  1.00  0.00     0.157 HD
ENDBRANCH   1  31
TORSDOF 6
ENDMDL