MODEL 3
REMARK VINA RESULT: -5.929214865      3.195      7.906
REMARK  8 active torsions:
REMARK  status: ('A' for Active; 'I' for Inactive)
REMARK    1  A    between atoms: O1_2  and  C2_3
REMARK    2  A    between atoms: C2_3  and  C3_4
REMARK    3  A    between atoms: C3_4  and  C4_5
REMARK    4  A    between atoms: C7_9  and  C8_10
REMARK    5  A    between atoms: C9_11  and  C10_12
REMARK    6  A    between atoms: C10_12  and  O3_15
REMARK    7  A    between atoms: C16_20  and  O4_21
REMARK    8  A    between atoms: C20_26  and  O5_27
ROOT
HETATM    1  C4  UNL     1       9.800   7.303  18.523  1.00  0.00     0.092 C
HETATM    2  C5  UNL     1       8.819   6.333  19.169  1.00  0.00     0.163 C
HETATM    3  O2  UNL     1       8.328   5.488  18.391  1.00  0.00    -0.292 OA
HETATM    4  C6  UNL     1       8.380   6.262  20.568  1.00  0.00    -0.001 C
HETATM    5  C7  UNL     1       7.124   5.912  20.688  1.00  0.00     0.011 C
HETATM    6  C13 UNL     1       9.245   6.536  21.733  1.00  0.00     0.010 C
HETATM    7  C14 UNL     1       8.696   7.640  22.607  1.00  0.00     0.023 C
HETATM    8  C15 UNL     1       9.226   5.256  22.588  1.00  0.00     0.023 C
HETATM    9  C16 UNL     1      10.680   6.757  21.430  1.00  0.00     0.141 C
HETATM   10  C17 UNL     1      11.138   7.766  20.496  1.00  0.00     0.006 C
HETATM   11  C18 UNL     1      11.659   8.963  21.286  1.00  0.00     0.020 C
HETATM   12  C19 UNL     1      12.382   7.280  19.717  1.00  0.00     0.020 C
HETATM   13  C20 UNL     1      10.131   8.338  19.515  1.00  0.00     0.140 C
ENDROOT
BRANCH   5  14
HETATM   14  C8  UNL     1       6.335   5.738  21.898  1.00  0.00    -0.000 C
HETATM   15  C9  UNL     1       5.942   4.547  22.312  1.00  0.00     0.010 C
BRANCH  15  16
HETATM   16  C10 UNL     1       5.148   4.405  23.537  1.00  0.00     0.068 C
HETATM   17  C11 UNL     1       3.671   4.329  23.137  1.00  0.00     0.050 C
HETATM   18  C12 UNL     1       5.259   5.643  24.438  1.00  0.00     0.050 C
BRANCH  16  19
HETATM   19  O3  UNL     1       5.505   3.287  24.288  1.00  0.00    -0.387 OA
ATOM     20  H3  UNL     1       4.848   3.049  24.931  1.00  0.00     0.211 HD
ENDBRANCH  16  19
ENDBRANCH  15  16
ENDBRANCH   5  14
BRANCH   1  21
HETATM   21  C3  UNL     1       9.116   7.701  17.260  1.00  0.00     0.041 C
BRANCH  21  22
HETATM   22  C2  UNL     1       8.031   8.696  17.321  1.00  0.00     0.168 C
BRANCH  22  23
HETATM   23  O1  UNL     1       8.444   9.995  17.005  1.00  0.00    -0.396 OA
HETATM   24  C1  UNL     1       7.691  10.990  17.554  1.00  0.00     0.201 C
ENDBRANCH  22  23
ENDBRANCH  21  22
ENDBRANCH   1  21
BRANCH   9  25
HETATM   25  O4  UNL     1      11.270   5.519  21.043  1.00  0.00    -0.394 OA
ATOM     26  H4  UNL     1      11.629   5.091  21.811  1.00  0.00     0.210 HD
ENDBRANCH   9  25
BRANCH  13  27
HETATM   27  O5  UNL     1      10.690   9.482  18.960  1.00  0.00    -0.394 OA
ATOM     28  H5  UNL     1      10.893  10.155  19.600  1.00  0.00     0.210 HD
ENDBRANCH  13  27
TORSDOF 8
ENDMDL