MODEL 2
REMARK VINA RESULT: -6.618600189      1.591      2.541
REMARK  7 active torsions:
REMARK  status: ('A' for Active; 'I' for Inactive)
REMARK    1  A    between atoms: C2_2  and  C3_3
REMARK    2  A    between atoms: C5_6  and  N1_7
REMARK       I    between atoms: N1_7  and  C6_9
REMARK    3  A    between atoms: C6_9  and  C7_11
REMARK    4  A    between atoms: C7_11  and  C8_12
REMARK    5  A    between atoms: C15_23  and  C16_24
REMARK    6  A    between atoms: C16_24  and  C17_25
REMARK    7  A    between atoms: C17_25  and  O3_28
ROOT
HETATM    1  C3  UNL     1      10.517   8.257  17.792  1.00  0.00     0.087 C
HETATM    2  C4  UNL     1      10.496   6.793  17.397  1.00  0.00     0.049 C
HETATM    3  O1  UNL     1      10.435   8.328  19.179  1.00  0.00    -0.309 OA
HETATM    4  C5  UNL     1       9.063   8.195  19.493  1.00  0.00     0.223 C
HETATM    5  N3  UNL     1       8.354   8.509  18.462  1.00  0.00    -0.348 N
ATOM      6  H3  UNL     1       7.334   8.497  18.426  1.00  0.00     0.163 HD
HETATM    7  C15 UNL     1       9.223   8.883  17.362  1.00  0.00     0.122 C
ENDROOT
BRANCH   4   8
HETATM    8  N1  UNL     1       8.524   7.780  20.745  1.00  0.00    -0.293 N
HETATM    9  C6  UNL     1       7.519   6.775  20.838  1.00  0.00     0.226 C
HETATM   10  O2  UNL     1       7.120   6.262  19.758  1.00  0.00    -0.273 OA
ATOM     11  H1  UNL     1       8.868   8.216  21.600  1.00  0.00     0.172 HD
BRANCH   9  12
HETATM   12  C7  UNL     1       7.003   6.392  22.171  1.00  0.00     0.128 C
BRANCH  12  13
HETATM   13  C8  UNL     1       6.364   5.037  22.200  1.00  0.00     0.093 C
HETATM   14  N2  UNL     1       7.165   4.038  22.819  1.00  0.00    -0.416 N
HETATM   15  C9  UNL     1       7.633   4.354  24.120  1.00  0.00     0.114 C
ATOM     16  H2  UNL     1       7.388   3.155  22.358  1.00  0.00     0.153 HD
HETATM   17  C10 UNL     1       6.617   4.900  25.054  1.00  0.00     0.020 C
HETATM   18  C11 UNL     1       5.406   5.514  24.462  1.00  0.00     0.012 C
HETATM   19  C12 UNL     1       5.083   5.097  23.050  1.00  0.00    -0.027 C
HETATM   20  C13 UNL     1       4.494   3.704  23.103  1.00  0.00     0.017 C
HETATM   21  C14 UNL     1       4.080   6.016  22.422  1.00  0.00     0.017 C
ENDBRANCH  12  13
ENDBRANCH   9  12
ENDBRANCH   4   8
BRANCH   1  22
HETATM   22  C2  UNL     1      11.728   8.885  17.197  1.00  0.00     0.036 C
HETATM   23  C1  UNL     1      11.724  10.374  17.178  1.00  0.00     0.008 C
ENDBRANCH   1  22
BRANCH   7  24
HETATM   24  C16 UNL     1       8.775   8.304  16.047  1.00  0.00     0.065 C
BRANCH  24  25
HETATM   25  C17 UNL     1       8.626   9.342  14.975  1.00  0.00     0.052 C
HETATM   26  C18 UNL     1       9.807   9.406  14.040  1.00  0.00     0.045 C
HETATM   27  C19 UNL     1       8.339  10.711  15.496  1.00  0.00     0.045 C
BRANCH  25  28
HETATM   28  O3  UNL     1       7.521   8.958  14.188  1.00  0.00    -0.391 OA
ATOM     29  H3  UNL     1       7.791   8.196  13.689  1.00  0.00     0.210 HD
ENDBRANCH  25  28
ENDBRANCH  24  25
ENDBRANCH   7  24
TORSDOF 7
ENDMDL