MODEL 2
REMARK VINA RESULT: -6.309219833      2.761      7.559
REMARK  9 active torsions:
REMARK  status: ('A' for Active; 'I' for Inactive)
REMARK    1  A    between atoms: N1_2  and  C2_4
REMARK    2  A    between atoms: C2_4  and  N2_6
REMARK    3  A    between atoms: N3_9  and  C5_10
REMARK    4  A    between atoms: C5_10  and  C6_11
REMARK       I    between atoms: C6_11  and  N4_13
REMARK    5  A    between atoms: N4_13  and  C7_15
REMARK    6  A    between atoms: C7_15  and  C8_16
REMARK    7  A    between atoms: C8_16  and  N5_17
REMARK    8  A    between atoms: N6_20  and  C11_21
REMARK    9  A    between atoms: C11_21  and  C12_22
ROOT
HETATM    1  C12 UNL     1      21.894   4.946  10.293  1.00  0.00     0.143 C
HETATM    2  C13 UNL     1      23.134   4.571  11.007  1.00  0.00     0.060 C
HETATM    3  N7  UNL     1      24.100   4.266  11.578  1.00  0.00    -0.197 NA
ENDROOT
BRANCH   1   4
HETATM    4  C11 UNL     1      20.760   4.517  11.172  1.00  0.00     0.131 C
BRANCH   4   5
HETATM    5  N6  UNL     1      19.757   3.726  10.539  1.00  0.00    -0.408 N
HETATM    6  C10 UNL     1      20.166   2.468  10.019  1.00  0.00     0.147 C
HETATM    7  C9  UNL     1      19.776   1.273  10.811  1.00  0.00     0.291 C
HETATM    8  N5  UNL     1      18.482   1.431  11.443  1.00  0.00     0.093 N
HETATM    9  C15 UNL     1      17.734   2.503  10.803  1.00  0.00     0.291 C
HETATM   10  C14 UNL     1      18.470   3.778  11.151  1.00  0.00     0.147 C
BRANCH   8  11
HETATM   11  C8  UNL     1      17.767   0.174  11.391  1.00  0.00     0.292 C
BRANCH  11  12
HETATM   12  C7  UNL     1      17.147  -0.222  12.681  1.00  0.00     0.153 C
BRANCH  12  13
HETATM   13  N4  UNL     1      17.005   0.911  13.580  1.00  0.00    -0.355 N
HETATM   14  C6  UNL     1      16.645   0.807  14.945  1.00  0.00     0.256 C
HETATM   15  O1  UNL     1      16.432  -0.374  15.394  1.00  0.00    -0.267 OA
ATOM     16  H4  UNL     1      17.176   1.842  13.203  1.00  0.00     0.162 HD
BRANCH  14  17
HETATM   17  C5  UNL     1      16.503   1.941  15.871  1.00  0.00     0.164 C
BRANCH  17  18
HETATM   18  N3  UNL     1      16.511   3.233  15.353  1.00  0.00    -0.362 N
HETATM   19  C4  UNL     1      17.712   3.909  15.089  1.00  0.00     0.083 C
HETATM   20  C3  UNL     1      17.471   5.406  14.938  1.00  0.00     0.169 C
HETATM   21  N2  UNL     1      16.384   5.564  14.006  1.00  0.00    -0.352 N
HETATM   22  C17 UNL     1      15.128   4.928  14.327  1.00  0.00     0.145 C
HETATM   23  C16 UNL     1      15.327   4.003  15.515  1.00  0.00     0.147 C
BRANCH  21  24
HETATM   24  C2  UNL     1      16.556   6.319  12.817  1.00  0.00     0.169 C
HETATM   25  S1  UNL     1      17.869   7.264  12.614  1.00  0.00    -0.041 SA
BRANCH  24  26
HETATM   26  N1  UNL     1      15.575   6.266  11.769  1.00  0.00    -0.371 N
HETATM   27  C1  UNL     1      14.886   7.464  11.347  1.00  0.00     0.148 C
ATOM     28  H1  UNL     1      15.364   5.375  11.320  1.00  0.00     0.161 HD
ENDBRANCH  24  26
ENDBRANCH  21  24
ENDBRANCH  17  18
ENDBRANCH  14  17
ENDBRANCH  12  13
ENDBRANCH  11  12
ENDBRANCH   8  11
ENDBRANCH   4   5
ENDBRANCH   1   4
TORSDOF 9
ENDMDL