MODEL 4
REMARK VINA RESULT: -6.484374786      1.721      5.136
REMARK  10 active torsions:
REMARK  status: ('A' for Active; 'I' for Inactive)
REMARK    1  A    between atoms: N2_5  and  C4_6
REMARK    2  A    between atoms: C4_6  and  C5_7
REMARK    3  A    between atoms: C5_7  and  N3_8
REMARK    4  A    between atoms: N3_8  and  C6_10
REMARK    5  A    between atoms: C6_10  and  N4_12
REMARK    6  A    between atoms: N4_12  and  C7_14
REMARK    7  A    between atoms: C7_14  and  C8_15
REMARK    8  A    between atoms: C8_15  and  C9_16
REMARK    9  A    between atoms: C9_16  and  N5_17
REMARK   10  A    between atoms: N6_23  and  C14_25
ROOT
HETATM    1  C14 UNL     1      16.345   6.322  12.394  1.00  0.00     0.184 C
HETATM    2  C15 UNL     1      16.178   5.808  11.012  1.00  0.00     0.105 C
HETATM    3  N7  UNL     1      16.040   5.390   9.938  1.00  0.00    -0.191 NA
ENDROOT
BRANCH   1   4
HETATM    4  N6  UNL     1      16.158   5.352  13.377  1.00  0.00    -0.342 N
HETATM    5  C4  UNL     1      16.834   4.826  14.287  1.00  0.00     0.119 C
ATOM      6  H6  UNL     1      15.214   4.967  13.345  1.00  0.00     0.167 HD
BRANCH   5   7
HETATM    7  N2  UNL     1      16.118   3.812  15.054  1.00  0.00    -0.363 N
HETATM    8  C3  UNL     1      14.950   4.117  15.791  1.00  0.00     0.143 C
HETATM    9  C2  UNL     1      14.310   2.905  16.426  1.00  0.00     0.136 C
HETATM   10  N1  UNL     1      15.196   1.923  16.920  1.00  0.00    -0.414 N
HETATM   11  C1  UNL     1      15.140   1.640  18.317  1.00  0.00     0.143 C
HETATM   12  C17 UNL     1      16.527   1.926  16.418  1.00  0.00     0.136 C
HETATM   13  C16 UNL     1      16.650   2.475  15.033  1.00  0.00     0.143 C
ENDBRANCH   5   7
BRANCH   5  14
HETATM   14  C5  UNL     1      18.218   5.098  14.597  1.00  0.00     0.138 C
BRANCH  14  15
HETATM   15  N3  UNL     1      19.243   4.265  14.045  1.00  0.00    -0.340 N
ATOM     16  H3  UNL     1      19.341   3.291  14.332  1.00  0.00     0.167 HD
BRANCH  15  17
HETATM   17  C6  UNL     1      20.137   4.846  13.067  1.00  0.00     0.171 C
HETATM   18  S1  UNL     1      20.038   6.487  12.892  1.00  0.00    -0.041 SA
BRANCH  17  19
HETATM   19  N4  UNL     1      21.045   4.126  12.293  1.00  0.00    -0.367 N
ATOM     20  H4  UNL     1      21.779   3.644  12.813  1.00  0.00     0.161 HD
BRANCH  19  21
HETATM   21  C7  UNL     1      21.096   3.968  10.876  1.00  0.00     0.123 C
BRANCH  21  22
HETATM   22  C8  UNL     1      20.045   3.071  10.285  1.00  0.00     0.039 C
BRANCH  22  23
HETATM   23  C9  UNL     1      20.070   1.734  11.058  1.00  0.00     0.123 C
BRANCH  23  24
HETATM   24  N5  UNL     1      18.759   1.435  11.442  1.00  0.00    -0.389 N
HETATM   25  C10 UNL     1      17.754   2.403  11.478  1.00  0.00     0.084 C
HETATM   26  C11 UNL     1      16.414   1.773  11.134  1.00  0.00     0.212 C
HETATM   27  O1  UNL     1      16.101   0.695  11.945  1.00  0.00    -0.385 OA
HETATM   28  C12 UNL     1      17.164  -0.127  12.242  1.00  0.00     0.187 C
HETATM   29  C13 UNL     1      18.258   0.121  11.192  1.00  0.00     0.148 C
ENDBRANCH  23  24
ENDBRANCH  22  23
ENDBRANCH  21  22
ENDBRANCH  19  21
ENDBRANCH  17  19
ENDBRANCH  15  17
ENDBRANCH  14  15
ENDBRANCH   5  14
ENDBRANCH   1   4
TORSDOF 10
ENDMDL