MODEL 1
REMARK VINA RESULT: -8.022197067      0.000      0.000
REMARK  8 active torsions:
REMARK  status: ('A' for Active; 'I' for Inactive)
REMARK    1  A    between atoms: C2_5  and  C3_6
REMARK    2  A    between atoms: C2_5  and  N5_21
REMARK    3  A    between atoms: C3_6  and  S1_7
REMARK    4  A    between atoms: S1_7  and  C4_9
REMARK    5  A    between atoms: C4_9  and  C5_10
REMARK       I    between atoms: C5_10  and  N3_12
REMARK    6  A    between atoms: C8_15  and  C9_16
REMARK    7  A    between atoms: N5_21  and  C12_23
REMARK    8  A    between atoms: C12_23  and  C13_24
ROOT
HETATM    1  N1  UNL     1      22.781   6.262  11.561  1.00  0.00    -0.172 NA
HETATM    2  C1  UNL     1      22.313   5.211  11.654  1.00  0.00     0.183 C
HETATM    3  N2  UNL     1      21.759   3.926  11.785  1.00  0.00    -0.282 N
ATOM      4  H2  UNL     1      22.374   3.113  11.817  1.00  0.00     0.179 HD
HETATM    5  C2  UNL     1      20.467   3.763  11.866  1.00  0.00     0.097 C
ENDROOT
BRANCH   5   6
HETATM    6  C3  UNL     1      19.536   4.915  11.824  1.00  0.00     0.185 C
BRANCH   6   7
HETATM    7  S1  UNL     1      18.629   4.991  13.374  1.00  0.00     0.030 S
HETATM    8  O1  UNL     1      19.514   4.116  14.526  1.00  0.00    -0.257 OA
BRANCH   7   9
HETATM    9  C4  UNL     1      17.069   4.204  13.071  1.00  0.00     0.212 C
BRANCH   9  10
HETATM   10  C5  UNL     1      16.056   4.607  14.079  1.00  0.00     0.231 C
HETATM   11  O2  UNL     1      15.697   5.812  14.166  1.00  0.00    -0.272 OA
HETATM   12  N3  UNL     1      15.504   3.618  14.937  1.00  0.00    -0.351 N
HETATM   13  C6  UNL     1      15.921   2.225  14.828  1.00  0.00     0.126 C
HETATM   14  C11 UNL     1      14.522   3.897  15.955  1.00  0.00     0.126 C
HETATM   15  C7  UNL     1      16.624   1.901  16.127  1.00  0.00     0.033 C
HETATM   16  C8  UNL     1      15.597   1.985  17.224  1.00  0.00     0.078 C
HETATM   17  C10 UNL     1      14.828   3.259  17.271  1.00  0.00     0.033 C
BRANCH  16  18
HETATM   18  C9  UNL     1      14.776   0.774  17.218  1.00  0.00     0.235 C
HETATM   19  N4  UNL     1      15.302  -0.549  17.290  1.00  0.00    -0.062 NA
HETATM   20  O3  UNL     1      13.528   0.872  17.147  1.00  0.00    -0.277 OA
ENDBRANCH  16  18
ENDBRANCH   9  10
ENDBRANCH   7   9
ENDBRANCH   6   7
ENDBRANCH   5   6
BRANCH   5  21
HETATM   21  N5  UNL     1      19.983   2.430  11.998  1.00  0.00    -0.376 N
ATOM     22  H5  UNL     1      19.939   1.958  12.902  1.00  0.00     0.160 HD
BRANCH  21  23
HETATM   23  C12 UNL     1      19.553   1.781  10.764  1.00  0.00     0.153 C
BRANCH  23  24
HETATM   24  C13 UNL     1      18.179   1.217  11.049  1.00  0.00     0.139 C
HETATM   25  C14 UNL     1      18.085  -0.129  10.364  1.00  0.00     0.035 C
HETATM   26  C15 UNL     1      17.142  -0.872  11.287  1.00  0.00     0.029 C
HETATM   27  C16 UNL     1      17.117  -0.045  12.546  1.00  0.00     0.168 C
HETATM   28  O4  UNL     1      18.069   0.962  12.414  1.00  0.00    -0.384 OA
ENDBRANCH  23  24
ENDBRANCH  21  23
ENDBRANCH   5  21
TORSDOF 8
ENDMDL