MODEL 2
REMARK VINA RESULT: -7.480120201      1.115      3.191
REMARK  7 active torsions:
REMARK  status: ('A' for Active; 'I' for Inactive)
REMARK    1  A    between atoms: C2_2  and  C3_3
REMARK    2  A    between atoms: C3_3  and  C4_4
REMARK    3  A    between atoms: C4_4  and  N1_5
REMARK    4  A    between atoms: C4_4  and  C15_23
REMARK       I    between atoms: N1_5  and  C5_7
REMARK    5  A    between atoms: C5_7  and  C6_9
REMARK    6  A    between atoms: C6_9  and  N2_10
REMARK    7  A    between atoms: N2_10  and  C7_11
REMARK       I    between atoms: N2_10  and  C9_13
REMARK       I    between atoms: C15_23  and  N5_25
ROOT
HETATM    1  N2  UNL     1      18.067   2.507  10.923  1.00  0.00    -0.322 N
HETATM    2  C9  UNL     1      16.816   1.882  11.268  1.00  0.00     0.325 C
HETATM    3  O2  UNL     1      15.945   2.577  11.845  1.00  0.00    -0.256 OA
HETATM    4  C10 UNL     1      16.634   0.509  10.937  1.00  0.00     0.162 C
HETATM    5  N3  UNL     1      16.475  -0.622  10.654  1.00  0.00    -0.186 NA
ENDROOT
BRANCH   1   6
HETATM    6  C6  UNL     1      18.270   3.928  11.250  1.00  0.00     0.120 C
HETATM    7  C11 UNL     1      17.153   4.690  10.582  1.00  0.00     0.060 C
HETATM    8  C12 UNL     1      17.385   6.168  10.615  1.00  0.00     0.116 C
HETATM    9  N4  UNL     1      18.626   6.529  10.013  1.00  0.00    -0.421 N
HETATM   10  C13 UNL     1      19.498   5.450   9.680  1.00  0.00     0.116 C
ATOM     11  H4  UNL     1      18.876   7.500   9.832  1.00  0.00     0.153 HD
HETATM   12  C14 UNL     1      19.580   4.389  10.728  1.00  0.00     0.060 C
BRANCH   6  13
HETATM   13  C5  UNL     1      18.186   4.090  12.743  1.00  0.00     0.247 C
HETATM   14  N1  UNL     1      17.084   4.668  13.390  1.00  0.00    -0.345 N
ATOM     15  H1  UNL     1      16.295   5.003  12.836  1.00  0.00     0.163 HD
HETATM   16  O1  UNL     1      19.161   3.685  13.448  1.00  0.00    -0.271 OA
BRANCH  14  17
HETATM   17  C4  UNL     1      17.047   4.797  14.841  1.00  0.00     0.180 C
BRANCH  17  18
HETATM   18  C3  UNL     1      16.982   6.256  15.235  1.00  0.00     0.061 C
BRANCH  18  19
HETATM   19  C2  UNL     1      18.065   7.064  14.632  1.00  0.00    -0.034 C
HETATM   20  C1  UNL     1      18.652   8.057  15.270  1.00  0.00     0.007 C
ENDBRANCH  18  19
ENDBRANCH  17  18
BRANCH  17  21
HETATM   21  C15 UNL     1      15.876   4.026  15.308  1.00  0.00     0.243 C
HETATM   22  O3  UNL     1      14.747   4.624  15.190  1.00  0.00    -0.271 OA
HETATM   23  N5  UNL     1      15.858   2.745  15.849  1.00  0.00    -0.346 N
HETATM   24  C16 UNL     1      14.626   2.130  16.278  1.00  0.00     0.152 C
HETATM   25  C19 UNL     1      17.054   1.956  15.990  1.00  0.00     0.152 C
HETATM   26  C17 UNL     1      14.842   0.916  17.118  1.00  0.00     0.187 C
HETATM   27  O4  UNL     1      15.806   0.067  16.667  1.00  0.00    -0.388 OA
HETATM   28  C18 UNL     1      16.618   0.513  15.664  1.00  0.00     0.187 C
ENDBRANCH  17  21
ENDBRANCH  14  17
ENDBRANCH   6  13
ENDBRANCH   1   6
BRANCH   1  29
HETATM   29  C7  UNL     1      19.058   1.719  10.270  1.00  0.00     0.124 C
HETATM   30  C8  UNL     1      19.906   0.925  11.246  1.00  0.00     0.026 C
ENDBRANCH   1  29
TORSDOF 7
ENDMDL