MODEL 2
REMARK VINA RESULT: -7.818641479      2.479      5.624
REMARK  7 active torsions:
REMARK  status: ('A' for Active; 'I' for Inactive)
REMARK    1  A    between atoms: C2_2  and  C4_4
REMARK    2  A    between atoms: C4_4  and  C5_5
REMARK    3  A    between atoms: C5_5  and  N1_6
REMARK    4  A    between atoms: C5_5  and  C17_26
REMARK       I    between atoms: N1_6  and  C6_8
REMARK    5  A    between atoms: C6_8  and  C7_10
REMARK    6  A    between atoms: C12_16  and  N2_17
REMARK       I    between atoms: N2_17  and  C13_19
REMARK    7  A    between atoms: C13_19  and  C14_21
REMARK       I    between atoms: C17_26  and  N3_28
ROOT
HETATM    1  C7  UNL     1      17.901   3.450  10.784  1.00  0.00     0.130 C
HETATM    2  C8  UNL     1      19.295   3.832  10.267  1.00  0.00     0.137 C
HETATM    3  C9  UNL     1      19.752   2.408   9.884  1.00  0.00     0.041 C
HETATM    4  C10 UNL     1      19.614   1.896  11.330  1.00  0.00     0.036 C
HETATM    5  C11 UNL     1      20.433   2.971  12.003  1.00  0.00     0.174 C
HETATM    6  O2  UNL     1      20.160   4.133  11.289  1.00  0.00    -0.384 OA
HETATM    7  C12 UNL     1      18.157   2.218  11.582  1.00  0.00     0.106 C
ENDROOT
BRANCH   1   8
HETATM    8  C6  UNL     1      17.336   4.592  11.486  1.00  0.00     0.227 C
HETATM    9  N1  UNL     1      17.931   5.873  11.565  1.00  0.00    -0.347 N
ATOM     10  H1  UNL     1      18.823   6.027  11.095  1.00  0.00     0.163 HD
HETATM   11  O1  UNL     1      16.215   4.477  12.098  1.00  0.00    -0.273 OA
BRANCH   9  12
HETATM   12  C5  UNL     1      17.314   6.997  12.297  1.00  0.00     0.177 C
BRANCH  12  13
HETATM   13  C4  UNL     1      18.466   7.623  13.037  1.00  0.00     0.038 C
BRANCH  13  14
HETATM   14  C2  UNL     1      18.689   7.234  14.436  1.00  0.00    -0.020 C
HETATM   15  C1  UNL     1      18.955   8.333  15.412  1.00  0.00     0.009 C
HETATM   16  C3  UNL     1      17.432   6.505  14.940  1.00  0.00     0.009 C
ENDBRANCH  13  14
ENDBRANCH  12  13
BRANCH  12  17
HETATM   17  C17 UNL     1      16.893   7.980  11.268  1.00  0.00     0.241 C
HETATM   18  O6  UNL     1      17.867   8.629  10.743  1.00  0.00    -0.271 OA
HETATM   19  N3  UNL     1      15.614   8.267  10.820  1.00  0.00    -0.359 N
HETATM   20  C18 UNL     1      15.391   9.304   9.822  1.00  0.00     0.152 C
HETATM   21  C19 UNL     1      14.470   7.537  11.304  1.00  0.00     0.152 C
ENDBRANCH  12  17
ENDBRANCH   9  12
ENDBRANCH   1   8
BRANCH   7  22
HETATM   22  N2  UNL     1      17.844   2.292  12.973  1.00  0.00    -0.351 N
HETATM   23  C13 UNL     1      17.065   1.288  13.582  1.00  0.00     0.273 C
HETATM   24  O3  UNL     1      16.615   0.299  12.933  1.00  0.00    -0.268 OA
ATOM     25  H2  UNL     1      18.187   3.075  13.529  1.00  0.00     0.163 HD
BRANCH  23  26
HETATM   26  C14 UNL     1      16.725   1.331  15.027  1.00  0.00     0.353 C
HETATM   27  O4  UNL     1      16.126   0.153  15.456  1.00  0.00    -0.351 OA
HETATM   28  C15 UNL     1      15.677   0.506  16.727  1.00  0.00     0.197 C
HETATM   29  C16 UNL     1      15.398   1.993  16.606  1.00  0.00     0.197 C
HETATM   30  O5  UNL     1      15.735   2.280  15.285  1.00  0.00    -0.351 OA
ENDBRANCH  23  26
ENDBRANCH   7  22
TORSDOF 7
ENDMDL