MODEL 5
REMARK VINA RESULT: -6.256363360      3.076      6.732
REMARK  7 active torsions:
REMARK  status: ('A' for Active; 'I' for Inactive)
REMARK    1  A    between atoms: C2_2  and  C3_3
REMARK    2  A    between atoms: C2_2  and  N5_26
REMARK    3  A    between atoms: C3_3  and  N1_4
REMARK    4  A    between atoms: C3_3  and  C11_18
REMARK       I    between atoms: N1_4  and  C4_6
REMARK       I    between atoms: C4_6  and  N2_8
REMARK    5  A    between atoms: N2_8  and  C5_10
REMARK    6  A    between atoms: C5_10  and  C6_11
REMARK    7  A    between atoms: C6_11  and  N3_12
REMARK       I    between atoms: C11_18  and  N4_20
ROOT
HETATM    1  C3  UNL     1      17.876   3.901  12.574  1.00  0.00     0.211 C
ENDROOT
BRANCH   1   2
HETATM    2  C2  UNL     1      18.458   4.458  13.870  1.00  0.00     0.250 C
HETATM    3  C1  UNL     1      17.911   3.844  15.108  1.00  0.00     0.045 C
BRANCH   2   4
HETATM    4  N5  UNL     1      18.411   5.881  13.842  1.00  0.00     0.095 N
HETATM    5  C16 UNL     1      17.584   6.569  14.787  1.00  0.00     0.275 C
HETATM    6  C17 UNL     1      18.554   7.758  14.664  1.00  0.00     0.060 C
HETATM    7  C18 UNL     1      19.540   6.632  14.309  1.00  0.00     0.275 C
ENDBRANCH   2   4
ENDBRANCH   1   2
BRANCH   1   8
HETATM    8  N1  UNL     1      18.208   4.943  11.578  1.00  0.00    -0.328 N
HETATM    9  C4  UNL     1      17.437   5.072  10.418  1.00  0.00     0.316 C
HETATM   10  O1  UNL     1      16.450   4.284  10.224  1.00  0.00    -0.247 OA
HETATM   11  N2  UNL     1      17.707   6.043   9.439  1.00  0.00    -0.341 N
ATOM     12  H2  UNL     1      18.496   6.668   9.601  1.00  0.00     0.164 HD
ATOM     13  H1  UNL     1      18.998   5.568  11.736  1.00  0.00     0.165 HD
BRANCH  11  14
HETATM   14  C5  UNL     1      16.955   6.223   8.230  1.00  0.00     0.154 C
BRANCH  14  15
HETATM   15  C6  UNL     1      15.934   7.328   8.297  1.00  0.00     0.292 C
BRANCH  15  16
HETATM   16  N3  UNL     1      14.748   6.881   8.943  1.00  0.00     0.094 N
HETATM   17  C7  UNL     1      13.534   7.092   8.202  1.00  0.00     0.298 C
HETATM   18  C8  UNL     1      13.074   8.525   8.281  1.00  0.00     0.198 C
HETATM   19  O2  UNL     1      13.819   9.322   9.114  1.00  0.00    -0.388 OA
HETATM   20  C9  UNL     1      14.163   8.778  10.324  1.00  0.00     0.198 C
HETATM   21  C10 UNL     1      14.553   7.336  10.292  1.00  0.00     0.298 C
ENDBRANCH  15  16
ENDBRANCH  14  15
ENDBRANCH  11  14
ENDBRANCH   1   8
BRANCH   1  22
HETATM   22  C11 UNL     1      18.580   2.653  12.194  1.00  0.00     0.245 C
HETATM   23  O3  UNL     1      19.841   2.736  12.092  1.00  0.00    -0.271 OA
HETATM   24  N4  UNL     1      17.974   1.415  11.940  1.00  0.00    -0.346 N
HETATM   25  C12 UNL     1      18.782   0.225  11.609  1.00  0.00     0.152 C
HETATM   26  C15 UNL     1      16.543   1.176  11.938  1.00  0.00     0.152 C
HETATM   27  C13 UNL     1      18.508  -0.012  10.124  1.00  0.00     0.187 C
HETATM   28  O4  UNL     1      17.238   0.376   9.781  1.00  0.00    -0.388 OA
HETATM   29  C14 UNL     1      16.287   0.230  10.773  1.00  0.00     0.187 C
ENDBRANCH   1  22
TORSDOF 7
ENDMDL