MODEL 4
REMARK VINA RESULT: -7.952899890      3.353      6.470
REMARK  9 active torsions:
REMARK  status: ('A' for Active; 'I' for Inactive)
REMARK    1  A    between atoms: C2_3  and  N2_4
REMARK    2  A    between atoms: N2_4  and  O1_5
REMARK       I    between atoms: N2_4  and  C3_7
REMARK    3  A    between atoms: C3_7  and  C4_9
REMARK    4  A    between atoms: C4_9  and  N3_10
REMARK    5  A    between atoms: C4_9  and  C11_22
REMARK    6  A    between atoms: N3_10  and  C5_13
REMARK    7  A    between atoms: C5_13  and  C6_14
REMARK       I    between atoms: C6_14  and  N4_16
REMARK       I    between atoms: C11_22  and  N5_24
REMARK    8  A    between atoms: N5_24  and  C12_26
REMARK    9  A    between atoms: C12_26  and  C13_27
ROOT
HETATM    1  N1  UNL     1      18.627  -2.590  11.658  1.00  0.00    -0.195 NA
HETATM    2  C1  UNL     1      17.992  -1.738  11.195  1.00  0.00     0.081 C
HETATM    3  C2  UNL     1      17.191  -0.639  10.625  1.00  0.00     0.282 C
ENDROOT
BRANCH   3   4
HETATM    4  N2  UNL     1      17.763   0.634  11.025  1.00  0.00    -0.213 N
HETATM    5  C3  UNL     1      16.938   1.742  11.317  1.00  0.00     0.284 C
HETATM    6  O2  UNL     1      15.692   1.597  11.251  1.00  0.00    -0.268 OA
BRANCH   4   7
HETATM    7  O1  UNL     1      19.108   0.686  11.117  1.00  0.00    -0.284 OA
ATOM      8  H1  UNL     1      19.595   0.389  10.357  1.00  0.00     0.245 HD
ENDBRANCH   4   7
BRANCH   5   9
HETATM    9  C4  UNL     1      17.491   3.064  11.697  1.00  0.00     0.370 C
BRANCH   9  10
HETATM   10  N3  UNL     1      18.721   2.832  12.438  1.00  0.00    -0.045 N
ATOM     11  H32 UNL     1      18.515   2.667  13.424  1.00  0.00     0.279 HD
ATOM     12  H31 UNL     1      19.120   1.928  12.187  1.00  0.00     0.279 HD
BRANCH  10  13
HETATM   13  C5  UNL     1      19.700   3.859  12.305  1.00  0.00     0.336 C
BRANCH  13  14
HETATM   14  C6  UNL     1      19.637   4.738  13.495  1.00  0.00     0.245 C
HETATM   15  O3  UNL     1      19.520   4.239  14.637  1.00  0.00    -0.272 OA
HETATM   16  N4  UNL     1      19.702   6.161  13.407  1.00  0.00    -0.347 N
HETATM   17  C7  UNL     1      19.836   6.738  12.086  1.00  0.00     0.152 C
HETATM   18  C10 UNL     1      19.641   7.015  14.562  1.00  0.00     0.152 C
HETATM   19  C8  UNL     1      18.854   7.892  12.009  1.00  0.00     0.187 C
HETATM   20  O4  UNL     1      19.033   8.780  13.042  1.00  0.00    -0.388 OA
HETATM   21  C9  UNL     1      18.819   8.247  14.289  1.00  0.00     0.187 C
ENDBRANCH  13  14
ENDBRANCH  10  13
ENDBRANCH   9  10
BRANCH   9  22
HETATM   22  C11 UNL     1      16.574   3.771  12.687  1.00  0.00     0.261 C
HETATM   23  O5  UNL     1      16.331   4.973  12.467  1.00  0.00    -0.270 OA
HETATM   24  N5  UNL     1      16.030   3.112  13.790  1.00  0.00    -0.338 N
ATOM     25  H5  UNL     1      16.269   2.125  13.877  1.00  0.00     0.167 HD
BRANCH  24  26
HETATM   26  C12 UNL     1      15.195   3.629  14.797  1.00  0.00     0.068 C
BRANCH  26  27
HETATM   27  C13 UNL     1      15.310   3.270  16.210  1.00  0.00     0.024 C
HETATM   28  C14 UNL     1      16.282   2.054  16.249  1.00  0.00     0.010 C
HETATM   29  C15 UNL     1      16.053   1.194  17.450  1.00  0.00     0.001 C
HETATM   30  C16 UNL     1      14.700   0.514  17.421  1.00  0.00     0.000 C
HETATM   31  C17 UNL     1      13.692   1.447  16.821  1.00  0.00     0.001 C
HETATM   32  C18 UNL     1      14.167   2.883  17.044  1.00  0.00     0.010 C
ENDBRANCH  26  27
ENDBRANCH  24  26
ENDBRANCH   9  22
ENDBRANCH   5   9
ENDBRANCH   3   4
TORSDOF 9
ENDMDL