MODEL 1
REMARK VINA RESULT: -7.702918144      0.000      0.000
REMARK  8 active torsions:
REMARK  status: ('A' for Active; 'I' for Inactive)
REMARK    1  A    between atoms: C2_2  and  C3_4
REMARK    2  A    between atoms: C5_8  and  C6_9
REMARK    3  A    between atoms: C7_10  and  C8_11
REMARK    4  A    between atoms: C8_11  and  C10_13
REMARK    5  A    between atoms: C11_15  and  C12_16
REMARK    6  A    between atoms: C12_16  and  O5_17
REMARK    7  A    between atoms: C12_16  and  C13_19
REMARK       I    between atoms: C13_19  and  N1_21
REMARK    8  A    between atoms: N1_21  and  C14_23
ROOT
HETATM    1  C3  UNL     1      17.957   4.418  12.903  1.00  0.00     0.164 C
HETATM    2  C4  UNL     1      18.569   4.261  14.247  1.00  0.00     0.271 C
HETATM    3  O2  UNL     1      19.805   4.243  14.563  1.00  0.00    -0.264 OA
HETATM    4  O3  UNL     1      17.560   4.125  15.204  1.00  0.00    -0.311 OA
HETATM    5  C5  UNL     1      16.465   3.577  14.494  1.00  0.00     0.162 C
HETATM    6  C11 UNL     1      16.475   4.535  13.279  1.00  0.00     0.078 C
ENDROOT
BRANCH   6   7
HETATM    7  C12 UNL     1      16.242   5.958  13.658  1.00  0.00     0.218 C
BRANCH   7   8
HETATM    8  O5  UNL     1      17.340   6.757  13.451  1.00  0.00    -0.386 OA
ATOM      9  H5  UNL     1      17.153   7.682  13.562  1.00  0.00     0.210 HD
ENDBRANCH   7   8
BRANCH   7  10
HETATM   10  C13 UNL     1      15.128   6.477  12.811  1.00  0.00     0.247 C
HETATM   11  O6  UNL     1      13.928   6.345  13.198  1.00  0.00    -0.271 OA
HETATM   12  N1  UNL     1      15.377   7.114  11.580  1.00  0.00    -0.353 N
ATOM     13  H1  UNL     1      16.349   7.209  11.286  1.00  0.00     0.163 HD
BRANCH  12  14
HETATM   14  C14 UNL     1      14.367   7.639  10.710  1.00  0.00     0.112 C
HETATM   15  C15 UNL     1      14.542   9.155  10.659  1.00  0.00     0.055 C
HETATM   16  C16 UNL     1      14.492   9.549   9.219  1.00  0.00     0.238 C
HETATM   17  N2  UNL     1      14.126   8.384   8.475  1.00  0.00    -0.073 N
HETATM   18  C17 UNL     1      12.692   8.326   8.219  1.00  0.00     0.272 C
HETATM   19  C18 UNL     1      14.782   8.444   7.182  1.00  0.00     0.272 C
HETATM   20  C19 UNL     1      14.562   7.246   9.262  1.00  0.00     0.261 C
ENDBRANCH  12  14
ENDBRANCH   7  10
ENDBRANCH   6   7
BRANCH   1  21
HETATM   21  C2  UNL     1      18.105   3.202  12.086  1.00  0.00     0.137 C
HETATM   22  C1  UNL     1      17.188   2.892  10.934  1.00  0.00     0.091 C
HETATM   23  O1  UNL     1      18.977   2.379  12.297  1.00  0.00    -0.297 OA
ENDBRANCH   1  21
BRANCH   5  24
HETATM   24  C6  UNL     1      15.184   3.635  15.192  1.00  0.00     0.003 C
HETATM   25  C7  UNL     1      14.848   2.971  16.227  1.00  0.00    -0.017 C
BRANCH  25  26
HETATM   26  C8  UNL     1      15.547   1.981  17.045  1.00  0.00     0.065 C
HETATM   27  C9  UNL     1      14.959   1.940  18.473  1.00  0.00     0.021 C
BRANCH  26  28
HETATM   28  C10 UNL     1      15.702   0.622  16.535  1.00  0.00     0.239 C
HETATM   29  O4  UNL     1      15.332  -0.362  17.203  1.00  0.00    -0.306 OA
ENDBRANCH  26  28
ENDBRANCH  25  26
ENDBRANCH   5  24
TORSDOF 8
ENDMDL