MODEL 3
REMARK VINA RESULT: -7.669296711      2.066      5.265
REMARK  7 active torsions:
REMARK  status: ('A' for Active; 'I' for Inactive)
REMARK    1  A    between atoms: C2_2  and  C3_3
REMARK    2  A    between atoms: C3_3  and  N1_4
REMARK       I    between atoms: N2_7  and  C6_8
REMARK    3  A    between atoms: C6_8  and  C7_10
REMARK    4  A    between atoms: C7_10  and  N3_11
REMARK    5  A    between atoms: C10_17  and  C11_18
REMARK       I    between atoms: C11_18  and  N5_20
REMARK    6  A    between atoms: N5_20  and  C12_22
REMARK    7  A    between atoms: C12_22  and  C13_23
ROOT
HETATM    1  N3  UNL     1      18.645   5.910  12.938  1.00  0.00     0.138 N
HETATM    2  C8  UNL     1      19.871   6.598  13.181  1.00  0.00     0.504 C
HETATM    3  N4  UNL     1      19.546   7.823  13.881  1.00  0.00    -0.046 N
ATOM      4  H41 UNL     1      19.497   8.646  13.282  1.00  0.00     0.279 HD
ATOM      5  H42 UNL     1      20.291   8.169  14.486  1.00  0.00     0.279 HD
HETATM    6  C9  UNL     1      18.333   7.525  14.563  1.00  0.00     0.280 C
HETATM    7  C10 UNL     1      17.622   6.478  13.741  1.00  0.00     0.342 C
ENDROOT
BRANCH   1   8
HETATM    8  C7  UNL     1      18.335   5.645  11.585  1.00  0.00     0.378 C
BRANCH   8   9
HETATM    9  C6  UNL     1      19.178   4.646  10.918  1.00  0.00     0.248 C
HETATM   10  N2  UNL     1      19.088   3.250  11.166  1.00  0.00    -0.347 N
HETATM   11  C5  UNL     1      18.149   2.675  12.116  1.00  0.00     0.156 C
HETATM   12  C18 UNL     1      19.945   2.309  10.474  1.00  0.00     0.156 C
HETATM   13  C4  UNL     1      17.249   1.642  11.476  1.00  0.00     0.292 C
HETATM   14  N1  UNL     1      18.006   0.915  10.504  1.00  0.00     0.095 N
HETATM   15  C19 UNL     1      19.415   0.907  10.774  1.00  0.00     0.292 C
HETATM   16  O1  UNL     1      20.029   5.036  10.080  1.00  0.00    -0.271 OA
BRANCH  14  17
HETATM   17  C3  UNL     1      17.546  -0.439  10.305  1.00  0.00     0.299 C
BRANCH  17  18
HETATM   18  C2  UNL     1      17.658  -1.282  11.509  1.00  0.00    -0.007 C
HETATM   19  C1  UNL     1      18.268  -2.470  11.503  1.00  0.00     0.008 C
ENDBRANCH  17  18
ENDBRANCH  14  17
ENDBRANCH   8   9
ENDBRANCH   1   8
BRANCH   7  20
HETATM   20  C11 UNL     1      17.031   5.463  14.721  1.00  0.00     0.256 C
HETATM   21  O2  UNL     1      15.997   5.806  15.323  1.00  0.00    -0.271 OA
HETATM   22  N5  UNL     1      17.626   4.224  14.923  1.00  0.00    -0.338 N
ATOM     23  H5  UNL     1      18.456   4.048  14.356  1.00  0.00     0.167 HD
BRANCH  22  24
HETATM   24  C12 UNL     1      17.266   3.183  15.780  1.00  0.00     0.070 C
BRANCH  24  25
HETATM   25  C13 UNL     1      16.216   2.205  15.464  1.00  0.00     0.048 C
HETATM   26  C14 UNL     1      14.987   2.627  16.340  1.00  0.00     0.014 C
HETATM   27  C15 UNL     1      14.267   1.392  16.794  1.00  0.00     0.027 C
HETATM   28  C16 UNL     1      15.091   0.377  17.496  1.00  0.00     0.167 C
HETATM   29  O3  UNL     1      16.399   0.412  17.042  1.00  0.00    -0.390 OA
HETATM   30  C17 UNL     1      16.412   0.751  15.682  1.00  0.00     0.177 C
ENDBRANCH  24  25
ENDBRANCH  22  24
ENDBRANCH   7  20
TORSDOF 7
ENDMDL