MODEL 1
REMARK VINA RESULT: -6.885202985      0.000      0.000
REMARK  8 active torsions:
REMARK  status: ('A' for Active; 'I' for Inactive)
REMARK    1  A    between atoms: C2_2  and  O1_4
REMARK    2  A    between atoms: O1_4  and  C4_5
REMARK       I    between atoms: C4_5  and  N1_7
REMARK    3  A    between atoms: N3_15  and  C10_16
REMARK    4  A    between atoms: C10_16  and  O3_17
REMARK    5  A    between atoms: C10_16  and  N4_19
REMARK    6  A    between atoms: N4_19  and  C12_21
REMARK    7  A    between atoms: C12_21  and  C13_22
REMARK    8  A    between atoms: C13_22  and  O4_23
ROOT
HETATM    1  C4  UNL     1      16.812   0.867  14.889  1.00  0.00     0.363 C
HETATM    2  O2  UNL     1      16.972  -0.204  15.546  1.00  0.00    -0.238 OA
HETATM    3  N1  UNL     1      16.955   0.892  13.452  1.00  0.00    -0.325 N
HETATM    4  C5  UNL     1      17.276  -0.313  12.783  1.00  0.00     0.147 C
HETATM    5  C6  UNL     1      17.789  -0.164  11.386  1.00  0.00     0.133 C
HETATM    6  N2  UNL     1      19.169   0.105  11.248  1.00  0.00    -0.420 N
ATOM      7  H2  UNL     1      19.833  -0.661  11.139  1.00  0.00     0.153 HD
HETATM    8  C7  UNL     1      19.621   1.450  11.266  1.00  0.00     0.115 C
HETATM    9  C8  UNL     1      18.928   2.408  10.367  1.00  0.00     0.039 C
HETATM   10  C9  UNL     1      18.435   3.678  11.032  1.00  0.00     0.128 C
HETATM   11  N3  UNL     1      18.658   3.755  12.431  1.00  0.00    -0.346 N
HETATM   12  C14 UNL     1      17.714   3.130  13.381  1.00  0.00     0.146 C
HETATM   13  C15 UNL     1      16.748   2.183  12.825  1.00  0.00     0.148 C
ENDROOT
BRANCH  11  14
HETATM   14  C10 UNL     1      19.723   4.398  13.041  1.00  0.00     0.216 C
BRANCH  14  15
HETATM   15  O3  UNL     1      19.860   4.146  14.323  1.00  0.00    -0.333 OA
ATOM     16  H3  UNL     1      20.444   4.736  14.786  1.00  0.00     0.220 HD
ENDBRANCH  14  15
BRANCH  14  17
HETATM   17  N4  UNL     1      20.679   5.273  12.525  1.00  0.00    -0.350 N
HETATM   18  C11 UNL     1      20.801   6.684  12.728  1.00  0.00     0.153 C
BRANCH  17  19
HETATM   19  C12 UNL     1      21.753   4.708  11.640  1.00  0.00     0.151 C
BRANCH  19  20
HETATM   20  C13 UNL     1      23.043   5.435  11.907  1.00  0.00     0.183 C
BRANCH  20  21
HETATM   21  O4  UNL     1      24.019   4.483  12.193  1.00  0.00    -0.399 OA
ATOM     22  H4  UNL     1      23.739   3.658  11.817  1.00  0.00     0.209 HD
ENDBRANCH  20  21
ENDBRANCH  19  20
ENDBRANCH  17  19
ENDBRANCH  14  17
ENDBRANCH  11  14
BRANCH   1  23
HETATM   23  O1  UNL     1      16.497   1.997  15.627  1.00  0.00    -0.299 OA
BRANCH  23  24
HETATM   24  C2  UNL     1      15.216   2.281  16.126  1.00  0.00     0.125 C
HETATM   25  C1  UNL     1      14.930   3.744  15.900  1.00  0.00     0.040 C
HETATM   26  C3  UNL     1      15.103   1.941  17.598  1.00  0.00     0.040 C
ENDBRANCH  23  24
ENDBRANCH   1  23
TORSDOF 8
ENDMDL