MODEL 1
REMARK VINA RESULT: -6.718676368      0.000      0.000
REMARK  3 active torsions:
REMARK  status: ('A' for Active; 'I' for Inactive)
REMARK    1  A    between atoms: C5_6  and  N2_7
REMARK       I    between atoms: N2_7  and  C6_9
REMARK    2  A    between atoms: C6_9  and  C7_11
REMARK    3  A    between atoms: C9_13  and  N3_14
ROOT
HETATM    1  C7  UNL     1      18.810   3.577  12.489  1.00  0.00     0.279 C
HETATM    2  C8  UNL     1      20.136   4.346  12.536  1.00  0.00     0.069 C
HETATM    3  C9  UNL     1      20.993   3.613  11.527  1.00  0.00     0.107 C
HETATM    4  C16 UNL     1      20.070   2.598  10.919  1.00  0.00     0.258 C
HETATM    5  N4  UNL     1      19.195   2.254  12.039  1.00  0.00    -0.060 N
ATOM      6  H41 UNL     1      18.427   1.620  11.820  1.00  0.00     0.278 HD
ATOM      7  H42 UNL     1      19.606   1.648  12.749  1.00  0.00     0.278 HD
ENDROOT
BRANCH   1   8
HETATM    8  C6  UNL     1      18.201   3.462  13.824  1.00  0.00     0.248 C
HETATM    9  N2  UNL     1      16.982   2.738  14.032  1.00  0.00    -0.353 N
ATOM     10  H2  UNL     1      16.521   2.291  13.239  1.00  0.00     0.163 HD
HETATM   11  O1  UNL     1      18.749   4.004  14.818  1.00  0.00    -0.271 OA
BRANCH   9  12
HETATM   12  C5  UNL     1      16.394   2.633  15.349  1.00  0.00     0.102 C
HETATM   13  C4  UNL     1      15.245   3.585  15.450  1.00  0.00     0.028 C
HETATM   14  C3  UNL     1      14.400   3.318  16.664  1.00  0.00     0.021 C
HETATM   15  C2  UNL     1      14.066   1.879  16.851  1.00  0.00     0.116 C
HETATM   16  N1  UNL     1      15.167   0.988  16.732  1.00  0.00    -0.415 N
HETATM   17  C1  UNL     1      15.791   0.598  17.952  1.00  0.00     0.143 C
HETATM   18  C17 UNL     1      16.037   1.209  15.629  1.00  0.00     0.141 C
ENDBRANCH   9  12
ENDBRANCH   1   8
BRANCH   3  19
HETATM   19  N3  UNL     1      21.623   4.478  10.590  1.00  0.00    -0.402 N
HETATM   20  C10 UNL     1      22.269   3.874   9.488  1.00  0.00     0.143 C
HETATM   21  C11 UNL     1      23.760   3.928   9.469  1.00  0.00     0.188 C
HETATM   22  O2  UNL     1      24.285   5.123   9.892  1.00  0.00    -0.377 OA
HETATM   23  C12 UNL     1      23.795   5.545  11.113  1.00  0.00     0.077 A
HETATM   24  C13 UNL     1      24.572   5.236  12.371  1.00  0.00     0.042 A
HETATM   25  C14 UNL     1      24.608   6.594  11.788  1.00  0.00     0.042 A
HETATM   26  C15 UNL     1      22.311   5.529  11.241  1.00  0.00     0.155 C
ENDBRANCH   3  19
TORSDOF 3
ENDMDL