MODEL 3
REMARK VINA RESULT: -7.788763143      4.169      5.981
REMARK  4 active torsions:
REMARK  status: ('A' for Active; 'I' for Inactive)
REMARK    1  A    between atoms: C1_2  and  C2_3
REMARK    2  A    between atoms: C2_3  and  N1_4
REMARK    3  A    between atoms: C2_3  and  C11_18
REMARK       I    between atoms: N1_4  and  C3_6
REMARK       I    between atoms: C3_6  and  N2_8
REMARK       I    between atoms: C11_18  and  N3_20
REMARK    4  A    between atoms: N3_20  and  C12_22
ROOT
HETATM    1  N1  UNL     1      17.128   5.255  12.417  1.00  0.00    -0.322 N
ATOM      2  H1  UNL     1      16.646   6.027  12.877  1.00  0.00     0.165 HD
HETATM    3  C3  UNL     1      17.203   5.244  11.001  1.00  0.00     0.343 C
HETATM    4  O2  UNL     1      17.793   4.299  10.423  1.00  0.00    -0.245 OA
HETATM    5  N2  UNL     1      16.633   6.268  10.203  1.00  0.00    -0.207 N
HETATM    6  C4  UNL     1      16.657   6.345   8.755  1.00  0.00     0.168 C
HETATM    7  C5  UNL     1      15.576   7.417   8.519  1.00  0.00     0.040 C
HETATM    8  C6  UNL     1      14.271   6.709   8.617  1.00  0.00     0.011 C
HETATM    9  C7  UNL     1      13.082   7.525   8.890  1.00  0.00     0.027 C
HETATM   10  C8  UNL     1      13.118   8.943   8.471  1.00  0.00     0.167 C
HETATM   11  O3  UNL     1      14.302   9.600   8.650  1.00  0.00    -0.389 OA
HETATM   12  C9  UNL     1      14.786   9.272   9.938  1.00  0.00     0.202 C
HETATM   13  C10 UNL     1      15.867   8.279   9.746  1.00  0.00     0.182 C
HETATM   14  O4  UNL     1      15.977   7.330  10.726  1.00  0.00    -0.266 OA
ENDROOT
BRANCH   1  15
HETATM   15  C2  UNL     1      17.707   4.213  13.231  1.00  0.00     0.239 C
BRANCH  15  16
HETATM   16  C1  UNL     1      18.586   4.716  14.304  1.00  0.00     0.266 C
HETATM   17  O1  UNL     1      19.448   4.084  14.864  1.00  0.00    -0.304 OA
ENDBRANCH  15  16
BRANCH  15  18
HETATM   18  C11 UNL     1      16.668   3.307  13.782  1.00  0.00     0.247 C
HETATM   19  O5  UNL     1      15.706   2.930  13.060  1.00  0.00    -0.271 OA
HETATM   20  N3  UNL     1      16.719   2.838  15.121  1.00  0.00    -0.354 N
ATOM     21  H3  UNL     1      17.490   3.131  15.722  1.00  0.00     0.162 HD
BRANCH  20  22
HETATM   22  C12 UNL     1      15.705   1.957  15.654  1.00  0.00     0.084 C
HETATM   23  C13 UNL     1      16.387   0.835  16.409  1.00  0.00     0.025 C
HETATM   24  C14 UNL     1      15.374   0.479  17.470  1.00  0.00     0.002 C
HETATM   25  C15 UNL     1      14.874   1.835  17.912  1.00  0.00     0.002 C
HETATM   26  C16 UNL     1      14.865   2.694  16.685  1.00  0.00     0.025 C
ENDBRANCH  20  22
ENDBRANCH  15  18
ENDBRANCH   1  15
TORSDOF 4
ENDMDL