MODEL 3
REMARK VINA RESULT: -6.859530338      2.007      2.614
REMARK  6 active torsions:
REMARK  status: ('A' for Active; 'I' for Inactive)
REMARK    1  A    between atoms: O1_1  and  C1_3
REMARK    2  A    between atoms: C1_3  and  C2_4
REMARK    3  A    between atoms: C1_3  and  N1_7
REMARK    4  A    between atoms: C2_4  and  O2_5
REMARK       I    between atoms: N2_11  and  C6_12
REMARK    5  A    between atoms: C6_12  and  C7_14
REMARK    6  A    between atoms: C7_14  and  C8_15
ROOT
HETATM    1  N1  UNL     1      16.369   2.194  15.130  1.00  0.00    -0.362 N
HETATM    2  C3  UNL     1      15.204   3.053  15.184  1.00  0.00     0.126 C
HETATM    3  C4  UNL     1      15.510   4.503  15.188  1.00  0.00     0.040 C
HETATM    4  C5  UNL     1      16.943   4.825  14.828  1.00  0.00     0.127 C
HETATM    5  N2  UNL     1      17.247   4.426  13.462  1.00  0.00    -0.349 N
HETATM    6  C6  UNL     1      17.775   5.428  12.649  1.00  0.00     0.236 C
HETATM    7  O3  UNL     1      17.956   6.566  13.244  1.00  0.00    -0.272 OA
HETATM    8  C15 UNL     1      17.036   3.091  12.986  1.00  0.00     0.145 C
HETATM    9  C16 UNL     1      17.399   2.139  14.140  1.00  0.00     0.144 C
ENDROOT
BRANCH   6  10
HETATM   10  C7  UNL     1      18.153   5.380  11.237  1.00  0.00     0.115 C
HETATM   11  C12 UNL     1      18.617   6.698  10.661  1.00  0.00     0.055 C
HETATM   12  C13 UNL     1      17.774   7.008   9.454  1.00  0.00     0.234 C
HETATM   13  N3  UNL     1      17.154   5.758   9.117  1.00  0.00    -0.073 N
HETATM   14  C14 UNL     1      16.868   5.188  10.400  1.00  0.00     0.258 C
ATOM     15  H32 UNL     1      16.348   5.836   8.495  1.00  0.00     0.277 HD
ATOM     16  H31 UNL     1      17.704   5.162   8.498  1.00  0.00     0.277 HD
BRANCH  10  17
HETATM   17  C8  UNL     1      19.113   4.307  10.901  1.00  0.00     0.072 A
HETATM   18  C9  UNL     1      20.340   4.118  11.502  1.00  0.00     0.036 A
HETATM   19  C10 UNL     1      20.935   3.018  10.914  1.00  0.00     0.027 A
HETATM   20  C11 UNL     1      20.031   2.582   9.969  1.00  0.00     0.142 A
HETATM   21  O4  UNL     1      18.989   3.376  10.010  1.00  0.00    -0.326 OA
ENDBRANCH  10  17
ENDBRANCH   6  10
BRANCH   1  22
HETATM   22  C1  UNL     1      16.484   1.305  16.203  1.00  0.00     0.137 C
BRANCH  22  23
HETATM   23  O1  UNL     1      17.642   0.759  16.433  1.00  0.00    -0.348 OA
ATOM     24  H1  UNL     1      17.846   0.049  15.836  1.00  0.00     0.219 HD
ENDBRANCH  22  23
BRANCH  22  25
HETATM   25  C2  UNL     1      15.444   0.877  17.150  1.00  0.00     0.247 C
BRANCH  25  26
HETATM   26  O2  UNL     1      15.397  -0.460  17.454  1.00  0.00    -0.393 OA
ATOM     27  H2  UNL     1      15.512  -0.695  18.367  1.00  0.00     0.210 HD
ENDBRANCH  25  26
ENDBRANCH  22  25
ENDBRANCH   1  22
TORSDOF 6
ENDMDL