MODEL 2
REMARK VINA RESULT: -6.337812487      2.740      3.467
REMARK  3 active torsions:
REMARK  status: ('A' for Active; 'I' for Inactive)
REMARK    1  A    between atoms: C1_2  and  C2_3
REMARK       I    between atoms: C1_2  and  N3_10
REMARK    2  A    between atoms: C2_3  and  N1_4
REMARK    3  A    between atoms: N3_10  and  C6_12
REMARK       I    between atoms: N4_15  and  C9_16
REMARK       I    between atoms: C9_16  and  N5_18
ROOT
HETATM    1  C6  UNL     1      17.639   2.331  12.266  1.00  0.00     0.087 C
HETATM    2  C7  UNL     1      18.925   1.892  11.601  1.00  0.00     0.045 C
HETATM    3  C8  UNL     1      19.787   3.121  11.386  1.00  0.00     0.129 C
HETATM    4  N4  UNL     1      19.133   4.032  10.424  1.00  0.00    -0.334 N
HETATM    5  C9  UNL     1      19.896   4.502   9.355  1.00  0.00     0.320 C
HETATM    6  O2  UNL     1      21.131   4.132   9.245  1.00  0.00    -0.247 OA
HETATM    7  N5  UNL     1      19.481   5.377   8.320  1.00  0.00    -0.331 N
HETATM    8  C10 UNL     1      20.400   5.790   7.250  1.00  0.00     0.155 C
HETATM    9  C11 UNL     1      19.848   5.437   5.887  1.00  0.00     0.252 C
HETATM   10  N6  UNL     1      18.409   5.609   5.827  1.00  0.00    -0.072 N
ATOM     11  H61 UNL     1      17.902   4.730   5.927  1.00  0.00     0.277 HD
ATOM     12  H62 UNL     1      18.079   5.851   4.893  1.00  0.00     0.277 HD
HETATM   13  C12 UNL     1      18.040   6.578   6.814  1.00  0.00     0.252 C
HETATM   14  C13 UNL     1      18.152   5.936   8.213  1.00  0.00     0.155 C
HETATM   15  C14 UNL     1      17.755   4.317  10.730  1.00  0.00     0.129 C
HETATM   16  C15 UNL     1      17.418   3.816  12.150  1.00  0.00     0.045 C
ENDROOT
BRANCH   1  17
HETATM   17  N3  UNL     1      17.605   1.987  13.663  1.00  0.00    -0.355 N
HETATM   18  C1  UNL     1      17.129   0.738  14.137  1.00  0.00     0.237 C
HETATM   19  O1  UNL     1      16.712  -0.115  13.309  1.00  0.00    -0.272 OA
ATOM     20  H3  UNL     1      17.938   2.672  14.342  1.00  0.00     0.162 HD
BRANCH  18  21
HETATM   21  C2  UNL     1      17.121   0.448  15.583  1.00  0.00     0.250 C
BRANCH  21  22
HETATM   22  N1  UNL     1      15.968   1.053  16.218  1.00  0.00    -0.295 N
HETATM   23  C3  UNL     1      15.201   0.453  17.152  1.00  0.00     0.112 A
HETATM   24  C4  UNL     1      14.181   1.326  17.543  1.00  0.00     0.037 A
HETATM   25  C5  UNL     1      14.396   2.459  16.788  1.00  0.00     0.108 A
HETATM   26  N2  UNL     1      15.469   2.242  16.019  1.00  0.00    -0.310 N
ATOM     27  H2  UNL     1      15.849   2.921  15.359  1.00  0.00     0.186 HD
ENDBRANCH  21  22
ENDBRANCH  18  21
ENDBRANCH   1  17
TORSDOF 3
ENDMDL