MODEL 1
REMARK VINA RESULT: -7.757576696      0.000      0.000
REMARK  3 active torsions:
REMARK  status: ('A' for Active; 'I' for Inactive)
REMARK       I    between atoms: C1_2  and  N2_4
REMARK    1  A    between atoms: N2_4  and  O2_5
REMARK       I    between atoms: N2_4  and  C2_7
REMARK       I    between atoms: C2_7  and  N3_9
REMARK    2  A    between atoms: C9_16  and  S1_17
REMARK    3  A    between atoms: S1_17  and  N4_19
ROOT
HETATM    1  N1  UNL     1      16.214  -0.035  17.080  1.00  0.00    -0.037 NA
HETATM    2  C1  UNL     1      16.823   0.878  16.193  1.00  0.00     0.363 C
HETATM    3  O1  UNL     1      17.326   1.910  16.688  1.00  0.00    -0.248 OA
HETATM    4  N2  UNL     1      16.894   0.687  14.767  1.00  0.00    -0.121 N
HETATM    5  C2  UNL     1      17.519   1.651  13.968  1.00  0.00     0.353 C
HETATM    6  O3  UNL     1      17.992   2.682  14.592  1.00  0.00    -0.244 OA
HETATM    7  N3  UNL     1      17.715   1.674  12.582  1.00  0.00    -0.321 N
HETATM    8  C3  UNL     1      17.298   0.582  11.744  1.00  0.00     0.129 C
HETATM    9  C4  UNL     1      18.421   0.386  10.712  1.00  0.00     0.020 C
HETATM   10  C5  UNL     1      19.747   0.839  11.233  1.00  0.00     0.004 C
HETATM   11  C6  UNL     1      19.722   2.331  11.498  1.00  0.00     0.033 C
HETATM   12  C7  UNL     1      18.326   2.776  11.873  1.00  0.00     0.054 A
HETATM   13  C8  UNL     1      17.536   3.371  10.746  1.00  0.00     0.054 A
HETATM   14  C9  UNL     1      18.033   4.174  11.991  1.00  0.00     0.126 A
ENDROOT
BRANCH  14  15
HETATM   15  S1  UNL     1      16.717   4.917  12.878  1.00  0.00     0.098 S
HETATM   16  O4  UNL     1      16.183   6.358  12.147  1.00  0.00    -0.241 OA
BRANCH  15  17
HETATM   17  N4  UNL     1      17.304   5.374  14.435  1.00  0.00    -0.233 NA
HETATM   18  C10 UNL     1      18.513   6.131  14.381  1.00  0.00     0.105 C
HETATM   19  C11 UNL     1      18.243   7.489  14.949  1.00  0.00     0.017 C
HETATM   20  C12 UNL     1      16.965   7.349  15.714  1.00  0.00     0.017 C
HETATM   21  C13 UNL     1      16.343   6.084  15.211  1.00  0.00     0.105 C
ENDBRANCH  15  17
ENDBRANCH  14  15
BRANCH   4  22
HETATM   22  O2  UNL     1      16.321  -0.457  14.340  1.00  0.00    -0.275 OA
ATOM     23  H2  UNL     1      16.890  -0.995  13.802  1.00  0.00     0.245 HD
ENDBRANCH   4  22
TORSDOF 3
ENDMDL