MODEL 4
REMARK VINA RESULT: -7.921002727      2.055      6.332
REMARK  3 active torsions:
REMARK  status: ('A' for Active; 'I' for Inactive)
REMARK    1  A    between atoms: C1_2  and  C2_4
REMARK    2  A    between atoms: C2_4  and  N1_5
REMARK    3  A    between atoms: C2_4  and  C8_14
REMARK       I    between atoms: N1_5  and  C3_7
REMARK       I    between atoms: C3_7  and  N2_9
REMARK       I    between atoms: C8_14  and  N3_16
ROOT
HETATM    1  C2  UNL     1      17.134   1.693  12.048  1.00  0.00     0.280 C
ENDROOT
BRANCH   1   2
HETATM    2  C1  UNL     1      17.042   0.425  11.246  1.00  0.00     0.206 C
HETATM    3  O1  UNL     1      17.155   0.359  10.013  1.00  0.00    -0.646 OA
HETATM    4  O2  UNL     1      16.809  -0.780  11.925  1.00  0.00    -0.646 OA
ENDBRANCH   1   2
BRANCH   1   5
HETATM    5  N1  UNL     1      16.808   1.452  13.426  1.00  0.00    -0.320 N
HETATM    6  C3  UNL     1      16.012   2.260  14.252  1.00  0.00     0.319 C
HETATM    7  O3  UNL     1      15.493   3.305  13.824  1.00  0.00    -0.247 OA
HETATM    8  N2  UNL     1      15.791   1.869  15.627  1.00  0.00    -0.334 N
HETATM    9  C4  UNL     1      14.995   2.646  16.546  1.00  0.00     0.127 C
HETATM   10  C7  UNL     1      16.317   0.672  16.269  1.00  0.00     0.127 C
HETATM   11  C5  UNL     1      15.204   1.978  17.889  1.00  0.00     0.022 C
HETATM   12  C6  UNL     1      15.380   0.528  17.454  1.00  0.00     0.022 C
ATOM     13  H1  UNL     1      17.195   0.607  13.847  1.00  0.00     0.165 HD
ENDBRANCH   1   5
BRANCH   1  14
HETATM   14  C8  UNL     1      18.421   2.365  11.889  1.00  0.00     0.255 C
HETATM   15  O4  UNL     1      19.452   1.667  12.152  1.00  0.00    -0.270 OA
HETATM   16  N3  UNL     1      18.656   3.691  11.484  1.00  0.00    -0.319 N
HETATM   17  C9  UNL     1      17.581   4.593  11.206  1.00  0.00     0.155 C
HETATM   18  C14 UNL     1      20.040   4.142  11.343  1.00  0.00     0.254 C
HETATM   19  C10 UNL     1      17.867   5.488  10.020  1.00  0.00     0.188 C
HETATM   20  O5  UNL     1      19.073   5.191   9.403  1.00  0.00    -0.380 OA
HETATM   21  C11 UNL     1      20.166   5.157  10.235  1.00  0.00     0.172 C
HETATM   22  C12 UNL     1      20.466   6.422  10.960  1.00  0.00     0.062 C
HETATM   23  C13 UNL     1      20.976   5.942  12.296  1.00  0.00     0.173 C
HETATM   24  O6  UNL     1      20.457   4.691  12.517  1.00  0.00    -0.364 OA
ENDBRANCH   1  14
TORSDOF 3
ENDMDL