MODEL 3
REMARK VINA RESULT: -7.663548055      2.869      5.206
REMARK  4 active torsions:
REMARK  status: ('A' for Active; 'I' for Inactive)
REMARK       I    between atoms: C1_2  and  N1_3
REMARK    1  A    between atoms: C1_2  and  C7_12
REMARK    2  A    between atoms: N1_3  and  C2_5
REMARK    3  A    between atoms: C7_12  and  C8_13
REMARK    4  A    between atoms: C7_12  and  N5_21
REMARK       I    between atoms: C8_13  and  N3_15
ROOT
HETATM    1  C7  UNL     1      17.522   3.306  12.407  1.00  0.00     0.274 C
ENDROOT
BRANCH   1   2
HETATM    2  C1  UNL     1      16.946   2.142  13.167  1.00  0.00     0.255 C
HETATM    3  O1  UNL     1      16.167   1.362  12.586  1.00  0.00    -0.270 OA
HETATM    4  N1  UNL     1      17.249   1.890  14.521  1.00  0.00    -0.311 N
ATOM      5  H1  UNL     1      18.237   1.846  14.773  1.00  0.00     0.170 HD
BRANCH   4   6
HETATM    6  C2  UNL     1      16.405   1.711  15.457  1.00  0.00     0.107 A
HETATM    7  C3  UNL     1      15.401   2.579  15.826  1.00  0.00     0.048 A
HETATM    8  C4  UNL     1      14.525   2.314  16.849  1.00  0.00     0.005 A
HETATM    9  C5  UNL     1      14.634   1.141  17.550  1.00  0.00     0.017 A
HETATM   10  C6  UNL     1      15.642   0.286  17.168  1.00  0.00     0.089 A
HETATM   11  N2  UNL     1      16.495   0.546  16.170  1.00  0.00    -0.352 N
ATOM     12  H2  UNL     1      17.221  -0.132  15.938  1.00  0.00     0.166 HD
ENDBRANCH   4   6
ENDBRANCH   1   2
BRANCH   1  13
HETATM   13  C8  UNL     1      18.735   2.879  11.712  1.00  0.00     0.268 C
HETATM   14  O2  UNL     1      19.493   1.987  12.216  1.00  0.00    -0.269 OA
HETATM   15  N3  UNL     1      19.161   3.410  10.454  1.00  0.00    -0.259 N
HETATM   16  C9  UNL     1      20.354   2.877   9.873  1.00  0.00     0.174 C
HETATM   17  N4  UNL     1      18.476   4.422   9.805  1.00  0.00    -0.110 NA
HETATM   18  C10 UNL     1      20.735   3.418   8.532  1.00  0.00     0.191 C
HETATM   19  O3  UNL     1      19.771   4.143   7.872  1.00  0.00    -0.372 OA
HETATM   20  C11 UNL     1      19.234   5.069   8.770  1.00  0.00     0.302 C
ENDBRANCH   1  13
BRANCH   1  21
HETATM   21  N5  UNL     1      17.593   4.418  13.256  1.00  0.00    -0.352 N
HETATM   22  C12 UNL     1      18.825   4.883  13.686  1.00  0.00     0.065 A
HETATM   23  C13 UNL     1      18.537   6.195  14.366  1.00  0.00     0.050 A
HETATM   24  C14 UNL     1      17.045   6.382  14.302  1.00  0.00     0.050 A
HETATM   25  C15 UNL     1      16.504   5.207  13.519  1.00  0.00     0.065 A
ENDBRANCH   1  21
TORSDOF 4
ENDMDL