MODEL 4
REMARK VINA RESULT: -6.429854294      1.898      2.675
REMARK  3 active torsions:
REMARK  status: ('A' for Active; 'I' for Inactive)
REMARK       I    between atoms: N2_3  and  C2_5
REMARK    1  A    between atoms: C2_5  and  C3_7
REMARK    2  A    between atoms: C5_9  and  N3_10
REMARK       I    between atoms: N3_10  and  C6_12
REMARK       I    between atoms: C6_12  and  N4_14
REMARK    3  A    between atoms: C9_17  and  N5_18
ROOT
HETATM    1  N1  UNL     1      16.536   0.035  16.389  1.00  0.00    -0.172 NA
HETATM    2  C1  UNL     1      16.844   0.591  15.397  1.00  0.00     0.184 C
HETATM    3  N2  UNL     1      17.195   1.259  14.222  1.00  0.00    -0.263 N
ATOM      4  H2  UNL     1      17.442   2.248  14.271  1.00  0.00     0.181 HD
HETATM    5  C2  UNL     1      17.219   0.602  12.953  1.00  0.00     0.236 C
HETATM    6  O1  UNL     1      16.908  -0.616  12.931  1.00  0.00    -0.272 OA
ENDROOT
BRANCH   5   7
HETATM    7  C3  UNL     1      17.584   1.279  11.705  1.00  0.00     0.103 A
HETATM    8  C4  UNL     1      19.013   1.243  11.306  1.00  0.00     0.042 A
HETATM    9  C5  UNL     1      18.318   2.571  11.717  1.00  0.00     0.100 A
BRANCH   9  10
HETATM   10  N3  UNL     1      18.151   3.518  10.644  1.00  0.00    -0.338 N
HETATM   11  C6  UNL     1      18.873   4.719  10.631  1.00  0.00     0.318 C
HETATM   12  O2  UNL     1      19.679   4.931  11.604  1.00  0.00    -0.247 OA
HETATM   13  N4  UNL     1      18.716   5.652   9.586  1.00  0.00    -0.334 N
HETATM   14  C7  UNL     1      19.457   6.899   9.530  1.00  0.00     0.129 C
HETATM   15  C15 UNL     1      17.790   5.384   8.513  1.00  0.00     0.129 C
HETATM   16  C8  UNL     1      18.486   8.047   9.638  1.00  0.00     0.056 C
HETATM   17  C9  UNL     1      17.142   7.684   9.015  1.00  0.00     0.226 C
HETATM   18  C14 UNL     1      17.439   6.725   7.882  1.00  0.00     0.056 C
ATOM     19  H3  UNL     1      17.500   3.312   9.886  1.00  0.00     0.164 HD
BRANCH  17  20
HETATM   20  N5  UNL     1      16.312   6.984   9.977  1.00  0.00     0.097 N
HETATM   21  C10 UNL     1      16.350   7.669  11.273  1.00  0.00     0.299 C
HETATM   22  C11 UNL     1      15.135   7.202  12.038  1.00  0.00     0.198 C
HETATM   23  O3  UNL     1      14.041   7.920  11.542  1.00  0.00    -0.388 OA
HETATM   24  C12 UNL     1      14.199   8.184  10.193  1.00  0.00     0.198 C
HETATM   25  C13 UNL     1      14.931   7.046   9.546  1.00  0.00     0.299 C
ENDBRANCH  17  20
ENDBRANCH   9  10
ENDBRANCH   5   7
TORSDOF 3
ENDMDL