MODEL 3
REMARK VINA RESULT: -7.216622194      1.795      6.923
REMARK  4 active torsions:
REMARK  status: ('A' for Active; 'I' for Inactive)
REMARK    1  A    between atoms: O1_1  and  C1_3
REMARK    2  A    between atoms: C1_3  and  C2_4
REMARK    3  A    between atoms: C4_6  and  N1_7
REMARK    4  A    between atoms: N3_20  and  C13_21
ROOT
HETATM    1  C2  UNL     1      17.301   2.470  12.446  1.00  0.00     0.017 C
HETATM    2  C3  UNL     1      18.337   2.973  11.530  1.00  0.00     0.050 C
HETATM    3  C4  UNL     1      18.967   2.044  10.574  1.00  0.00     0.234 C
HETATM    4  C8  UNL     1      18.975   0.604  10.934  1.00  0.00     0.076 C
HETATM    5  C9  UNL     1      17.826  -0.207  10.363  1.00  0.00     0.241 C
HETATM    6  N2  UNL     1      17.947  -1.035  11.575  1.00  0.00    -0.070 N
ATOM      7  H21 UNL     1      18.506  -1.888  11.597  1.00  0.00     0.277 HD
ATOM      8  H22 UNL     1      17.170  -1.591  11.933  1.00  0.00     0.277 HD
HETATM    9  C10 UNL     1      18.389   0.216  12.230  1.00  0.00     0.200 C
HETATM   10  C11 UNL     1      17.228   1.024  12.704  1.00  0.00     0.057 C
HETATM   11  C12 UNL     1      17.141   0.861  14.219  1.00  0.00     0.280 C
HETATM   12  N3  UNL     1      17.424   2.118  14.805  1.00  0.00     0.094 N
HETATM   13  C18 UNL     1      17.497   3.123  13.823  1.00  0.00     0.285 C
ENDROOT
BRANCH  12  14
HETATM   14  C13 UNL     1      16.594   2.376  15.930  1.00  0.00     0.227 C
HETATM   15  C14 UNL     1      15.245   2.877  15.422  1.00  0.00     0.062 C
HETATM   16  C15 UNL     1      14.377   3.018  16.674  1.00  0.00     0.169 C
HETATM   17  O3  UNL     1      14.095   1.782  17.228  1.00  0.00    -0.391 OA
HETATM   18  C16 UNL     1      14.893   0.757  16.773  1.00  0.00     0.169 C
HETATM   19  C17 UNL     1      16.351   1.124  16.769  1.00  0.00     0.062 C
ENDBRANCH  12  14
BRANCH   1  20
HETATM   20  C1  UNL     1      15.899   2.932  12.012  1.00  0.00     0.176 C
BRANCH  20  21
HETATM   21  O1  UNL     1      15.377   2.061  11.059  1.00  0.00    -0.400 OA
ATOM     22  H1  UNL     1      15.892   2.099  10.262  1.00  0.00     0.209 HD
ENDBRANCH  20  21
ENDBRANCH   1  20
BRANCH   3  23
HETATM   23  N1  UNL     1      20.365   2.430  10.421  1.00  0.00     0.118 N
HETATM   24  C5  UNL     1      20.654   3.152   9.232  1.00  0.00     0.301 C
HETATM   25  C6  UNL     1      21.752   4.084   9.694  1.00  0.00     0.200 C
HETATM   26  O2  UNL     1      22.044   3.782  11.005  1.00  0.00    -0.361 OA
HETATM   27  C7  UNL     1      20.946   3.074  11.535  1.00  0.00     0.441 C
ENDBRANCH   3  23
TORSDOF 4
ENDMDL