MODEL 2
REMARK VINA RESULT: -7.664021973      1.181      1.541
REMARK  7 active torsions:
REMARK  status: ('A' for Active; 'I' for Inactive)
REMARK    1  A    between atoms: C1_2  and  C2_3
REMARK       I    between atoms: C1_2  and  N4_24
REMARK    2  A    between atoms: C2_3  and  N1_4
REMARK       I    between atoms: N1_4  and  C3_5
REMARK    3  A    between atoms: C3_5  and  C4_7
REMARK       I    between atoms: C4_7  and  N2_9
REMARK    4  A    between atoms: N3_13  and  C8_14
REMARK    5  A    between atoms: C8_14  and  C9_15
REMARK    6  A    between atoms: C9_15  and  C10_16
REMARK    7  A    between atoms: N4_24  and  C16_26
ROOT
HETATM    1  C4  UNL     1      -0.505   0.681  84.963  1.00  0.00     0.326 C
HETATM    2  O3  UNL     1      -0.599  -0.594  84.767  1.00  0.00    -0.261 OA
HETATM    3  N2  UNL     1      -0.302   1.549  83.885  1.00  0.00    -0.341 N
HETATM    4  C5  UNL     1      -0.075   2.934  84.045  1.00  0.00     0.128 C
HETATM    5  C6  UNL     1       0.350   3.753  82.904  1.00  0.00     0.050 C
HETATM    6  C7  UNL     1       0.423   3.072  81.587  1.00  0.00     0.274 C
HETATM    7  N3  UNL     1       1.470   2.079  81.646  1.00  0.00     0.090 N
HETATM    8  C14 UNL     1       0.914   0.763  81.900  1.00  0.00     0.292 C
HETATM    9  C15 UNL     1      -0.398   0.838  82.594  1.00  0.00     0.156 C
ENDROOT
BRANCH   1  10
HETATM   10  C3  UNL     1      -0.642   1.075  86.403  1.00  0.00     0.379 C
HETATM   11  N1  UNL     1      -1.703   1.602  86.853  1.00  0.00    -0.398 NA
HETATM   12  O2  UNL     1       0.425   0.819  87.068  1.00  0.00    -0.246 OA
BRANCH  11  13
HETATM   13  C2  UNL     1      -2.940   2.217  87.380  1.00  0.00     0.325 C
BRANCH  13  14
HETATM   14  C1  UNL     1      -2.856   3.666  87.281  1.00  0.00     0.248 C
HETATM   15  O1  UNL     1      -3.301   4.372  88.246  1.00  0.00    -0.271 OA
HETATM   16  N4  UNL     1      -2.305   4.315  86.163  1.00  0.00    -0.354 N
ATOM     17  H4  UNL     1      -1.950   3.750  85.391  1.00  0.00     0.162 HD
BRANCH  16  18
HETATM   18  C16 UNL     1      -2.223   5.753  86.067  1.00  0.00     0.084 A
HETATM   19  C17 UNL     1      -2.160   6.208  84.591  1.00  0.00     0.027 A
HETATM   20  C18 UNL     1      -1.028   6.407  85.521  1.00  0.00     0.027 A
ENDBRANCH  16  18
ENDBRANCH  13  14
ENDBRANCH  11  13
ENDBRANCH   1  10
BRANCH   7  21
HETATM   21  C8  UNL     1       2.327   2.064  80.474  1.00  0.00     0.275 C
BRANCH  21  22
HETATM   22  C9  UNL     1       2.253   3.455  79.896  1.00  0.00     0.064 C
BRANCH  22  23
HETATM   23  C10 UNL     1       3.418   4.330  80.207  1.00  0.00     0.146 C
HETATM   24  C11 UNL     1       4.644   3.487  80.402  1.00  0.00     0.199 C
HETATM   25  O4  UNL     1       5.687   4.375  80.670  1.00  0.00    -0.387 OA
HETATM   26  C12 UNL     1       5.490   4.953  81.900  1.00  0.00     0.193 C
HETATM   27  C13 UNL     1       4.071   5.189  82.272  1.00  0.00     0.194 C
HETATM   28  O5  UNL     1       3.197   5.239  81.211  1.00  0.00    -0.382 OA
ENDBRANCH  22  23
ENDBRANCH  21  22
ENDBRANCH   7  21
TORSDOF 7
ENDMDL