MODEL 3
REMARK VINA RESULT: -8.029482098      2.051      2.748
REMARK  7 active torsions:
REMARK  status: ('A' for Active; 'I' for Inactive)
REMARK    1  A    between atoms: C2_2  and  C3_3
REMARK       I    between atoms: C3_3  and  N1_5
REMARK    2  A    between atoms: N1_5  and  C4_7
REMARK    3  A    between atoms: C4_7  and  C5_8
REMARK    4  A    between atoms: C6_9  and  N2_10
REMARK       I    between atoms: N3_19  and  C14_20
REMARK       I    between atoms: C14_20  and  N4_22
REMARK    5  A    between atoms: N4_22  and  C15_24
REMARK    6  A    between atoms: C15_24  and  C16_25
REMARK    7  A    between atoms: C16_25  and  C17_27
ROOT
HETATM    1  C5  UNL     1      -1.037   6.092  83.694  1.00  0.00     0.129 C
HETATM    2  C6  UNL     1      -1.908   7.284  83.450  1.00  0.00     0.111 C
HETATM    3  C11 UNL     1      -1.727   8.346  84.530  1.00  0.00     0.029 C
HETATM    4  C12 UNL     1      -2.244   7.694  85.820  1.00  0.00     0.022 C
HETATM    5  C13 UNL     1      -1.223   6.581  86.117  1.00  0.00     0.128 C
HETATM    6  N3  UNL     1      -1.373   5.633  85.046  1.00  0.00    -0.326 N
HETATM    7  C14 UNL     1      -1.838   4.321  85.286  1.00  0.00     0.319 C
HETATM    8  O3  UNL     1      -1.979   3.506  84.300  1.00  0.00    -0.247 OA
HETATM    9  N4  UNL     1      -2.178   3.793  86.556  1.00  0.00    -0.335 N
ATOM     10  H4  UNL     1      -2.086   4.395  87.374  1.00  0.00     0.164 HD
ENDROOT
BRANCH   1  11
HETATM   11  C4  UNL     1       0.423   6.331  83.606  1.00  0.00     0.150 C
BRANCH  11  12
HETATM   12  N1  UNL     1       1.070   5.437  82.650  1.00  0.00    -0.356 N
HETATM   13  C3  UNL     1       1.710   4.263  83.160  1.00  0.00     0.240 C
HETATM   14  O1  UNL     1       1.711   4.015  84.406  1.00  0.00    -0.269 OA
ATOM     15  H1  UNL     1       1.066   5.643  81.651  1.00  0.00     0.162 HD
BRANCH  13  16
HETATM   16  C2  UNL     1       2.380   3.312  82.292  1.00  0.00     0.064 C
HETATM   17  C1  UNL     1       1.907   2.097  82.074  1.00  0.00     0.017 C
ENDBRANCH  13  16
ENDBRANCH  11  12
ENDBRANCH   1  11
BRANCH   2  18
HETATM   18  N2  UNL     1      -1.849   7.902  82.183  1.00  0.00    -0.345 N
HETATM   19  C7  UNL     1      -1.601   9.304  81.820  1.00  0.00     0.127 C
HETATM   20  C8  UNL     1      -2.401   9.468  80.525  1.00  0.00     0.029 C
HETATM   21  C9  UNL     1      -2.147   8.154  79.853  1.00  0.00     0.104 C
HETATM   22  C10 UNL     1      -2.049   7.204  80.953  1.00  0.00     0.220 C
HETATM   23  O2  UNL     1      -2.136   5.939  80.790  1.00  0.00    -0.273 OA
ENDBRANCH   2  18
BRANCH   9  24
HETATM   24  C15 UNL     1      -2.649   2.445  86.744  1.00  0.00     0.214 C
BRANCH  24  25
HETATM   25  C16 UNL     1      -1.660   1.673  87.512  1.00  0.00     0.242 C
HETATM   26  O4  UNL     1      -1.712   1.666  88.762  1.00  0.00    -0.284 OA
BRANCH  25  27
HETATM   27  C17 UNL     1      -0.597   0.896  86.866  1.00  0.00     0.248 C
HETATM   28  O5  UNL     1       0.592   1.315  86.976  1.00  0.00    -0.642 OA
HETATM   29  O6  UNL     1      -0.857  -0.249  86.161  1.00  0.00    -0.642 OA
ENDBRANCH  25  27
ENDBRANCH  24  25
ENDBRANCH   9  24
TORSDOF 7
ENDMDL