MODEL 2
REMARK VINA RESULT: -7.370380282      2.723      5.807
REMARK  8 active torsions:
REMARK  status: ('A' for Active; 'I' for Inactive)
REMARK    1  A    between atoms: N2_5  and  C3_6
REMARK    2  A    between atoms: C10_14  and  C11_15
REMARK    3  A    between atoms: C11_15  and  C12_16
REMARK    4  A    between atoms: N3_18  and  C14_19
REMARK    5  A    between atoms: C16_22  and  O3_23
REMARK    6  A    between atoms: O3_23  and  C17_24
REMARK    7  A    between atoms: C17_24  and  C18_25
REMARK    8  A    between atoms: C18_25  and  N4_26
ROOT
HETATM    1  C12 UNL     1       1.012   5.156  81.110  1.00  0.00     0.061 A
HETATM    2  C13 UNL     1       1.048   6.477  80.685  1.00  0.00     0.121 A
HETATM    3  N3  UNL     1       1.386   6.550  79.396  1.00  0.00    -0.307 N
HETATM    4  C15 UNL     1       1.578   5.296  78.947  1.00  0.00     0.137 A
HETATM    5  C16 UNL     1       1.360   4.415  79.961  1.00  0.00     0.104 A
ENDROOT
BRANCH   1   6
HETATM    6  C11 UNL     1       0.686   4.676  82.364  1.00  0.00    -0.093 C
BRANCH   6   7
HETATM    7  C10 UNL     1       0.385   4.235  83.493  1.00  0.00     0.107 A
HETATM    8  C2  UNL     1       1.191   4.673  84.617  1.00  0.00     0.063 A
HETATM    9  C1  UNL     1       2.222   5.482  84.543  1.00  0.00     0.046 C
HETATM   10  N1  UNL     1       0.695   4.112  85.709  1.00  0.00    -0.290 N
HETATM   11  N2  UNL     1      -0.341   3.362  85.417  1.00  0.00    -0.219 N
ATOM     12  H1  UNL     1       1.068   4.245  86.649  1.00  0.00     0.187 HD
HETATM   13  C9  UNL     1      -0.540   3.423  84.096  1.00  0.00     0.287 A
HETATM   14  O1  UNL     1      -1.469   2.806  83.491  1.00  0.00    -0.265 OA
BRANCH  11  15
HETATM   15  C3  UNL     1      -1.167   2.607  86.312  1.00  0.00     0.060 A
HETATM   16  C4  UNL     1      -2.373   3.121  86.751  1.00  0.00     0.031 A
HETATM   17  C5  UNL     1      -3.128   2.332  87.600  1.00  0.00     0.002 A
HETATM   18  C6  UNL     1      -2.717   1.081  88.006  1.00  0.00     0.000 A
HETATM   19  C7  UNL     1      -1.501   0.557  87.567  1.00  0.00     0.002 A
HETATM   20  C8  UNL     1      -0.754   1.357  86.717  1.00  0.00     0.031 A
ENDBRANCH  11  15
ENDBRANCH   6   7
ENDBRANCH   1   6
BRANCH   5  21
HETATM   21  O3  UNL     1       1.437   3.043  79.992  1.00  0.00    -0.346 OA
BRANCH  21  22
HETATM   22  C17 UNL     1       2.506   2.212  80.239  1.00  0.00     0.197 C
BRANCH  22  23
HETATM   23  C18 UNL     1       2.504   1.505  81.551  1.00  0.00     0.176 C
BRANCH  23  24
HETATM   24  N4  UNL     1       1.293   0.723  81.707  1.00  0.00    -0.286 N
HETATM   25  C19 UNL     1       1.278  -0.584  82.002  1.00  0.00     0.130 A
HETATM   26  C20 UNL     1      -0.062  -0.934  82.054  1.00  0.00     0.127 A
HETATM   27  N5  UNL     1      -0.758   0.188  81.788  1.00  0.00    -0.296 N
HETATM   28  N6  UNL     1       0.067   1.188  81.578  1.00  0.00    -0.241 N
ATOM     29  H5  UNL     1      -1.775   0.251  81.754  1.00  0.00     0.187 HD
ATOM     30  H6  UNL     1      -0.194   2.148  81.356  1.00  0.00     0.208 HD
ENDBRANCH  23  24
ENDBRANCH  22  23
ENDBRANCH  21  22
ENDBRANCH   5  21
BRANCH   3  31
HETATM   31  C14 UNL     1       1.525   7.740  78.607  1.00  0.00     0.359 C
HETATM   32  O2  UNL     1       0.651   8.612  78.681  1.00  0.00    -0.283 OA
ENDBRANCH   3  31
TORSDOF 8
ENDMDL