MODEL 2
REMARK VINA RESULT: -7.872355239      1.439      1.681
REMARK  7 active torsions:
REMARK  status: ('A' for Active; 'I' for Inactive)
REMARK    1  A    between atoms: C1_2  and  C2_3
REMARK    2  A    between atoms: C2_3  and  N1_4
REMARK    3  A    between atoms: C2_3  and  C11_17
REMARK       I    between atoms: N1_4  and  C3_6
REMARK    4  A    between atoms: C3_6  and  C4_8
REMARK    5  A    between atoms: C5_9  and  C6_10
REMARK    6  A    between atoms: C14_21  and  N3_22
REMARK       I    between atoms: N3_22  and  C15_24
REMARK    7  A    between atoms: C15_24  and  C16_26
ROOT
HETATM    1  C2  UNL     1       1.885   2.860  81.581  1.00  0.00     0.153 C
ENDROOT
BRANCH   1   2
HETATM    2  C1  UNL     1       2.475   2.558  80.231  1.00  0.00     0.256 C
HETATM    3  O1  UNL     1       2.212   3.224  79.267  1.00  0.00    -0.305 OA
ENDBRANCH   1   2
BRANCH   1   4
HETATM    4  N1  UNL     1       0.683   3.611  81.375  1.00  0.00    -0.346 N
HETATM    5  C3  UNL     1       0.644   5.056  81.688  1.00  0.00     0.241 C
HETATM    6  O2  UNL     1       1.709   5.501  82.122  1.00  0.00    -0.269 OA
ATOM      7  H1  UNL     1      -0.150   3.148  81.010  1.00  0.00     0.163 HD
BRANCH   5   8
HETATM    8  C4  UNL     1      -0.547   5.787  81.480  1.00  0.00     0.075 C
HETATM    9  C5  UNL     1      -1.341   6.594  82.037  1.00  0.00     0.018 C
BRANCH   9  10
HETATM   10  C6  UNL     1      -1.441   7.246  83.307  1.00  0.00    -0.021 A
HETATM   11  C7  UNL     1      -2.368   6.760  84.263  1.00  0.00     0.014 A
HETATM   12  C8  UNL     1      -2.494   7.336  85.490  1.00  0.00     0.018 A
HETATM   13  C9  UNL     1      -1.746   8.406  85.877  1.00  0.00     0.087 A
HETATM   14  N2  UNL     1      -0.868   8.880  84.998  1.00  0.00    -0.374 N
HETATM   15  C10 UNL     1      -0.722   8.322  83.765  1.00  0.00     0.099 A
ATOM     16  H2  UNL     1      -0.291   9.680  85.253  1.00  0.00     0.164 HD
ENDBRANCH   9  10
ENDBRANCH   5   8
ENDBRANCH   1   4
BRANCH   1  17
HETATM   17  C11 UNL     1       1.592   1.535  82.224  1.00  0.00     0.052 C
HETATM   18  C12 UNL     1       1.419   0.376  81.270  1.00  0.00     0.090 C
HETATM   19  C13 UNL     1       0.312  -0.102  82.134  1.00  0.00     0.150 C
HETATM   20  O3  UNL     1      -0.223  -1.163  82.350  1.00  0.00    -0.296 OA
HETATM   21  C14 UNL     1       0.150   1.290  82.618  1.00  0.00     0.161 C
BRANCH  21  22
HETATM   22  N3  UNL     1      -0.108   1.414  84.039  1.00  0.00    -0.347 N
HETATM   23  C15 UNL     1      -0.904   2.439  84.591  1.00  0.00     0.247 C
HETATM   24  O4  UNL     1      -1.418   3.291  83.837  1.00  0.00    -0.271 OA
ATOM     25  H3  UNL     1       0.304   0.726  84.669  1.00  0.00     0.163 HD
BRANCH  23  26
HETATM   26  C16 UNL     1      -1.138   2.524  86.041  1.00  0.00     0.224 C
HETATM   27  C17 UNL     1      -0.386   1.496  86.839  1.00  0.00     0.052 C
HETATM   28  C18 UNL     1      -1.265   1.364  88.081  1.00  0.00     0.114 C
HETATM   29  C19 UNL     1      -2.618   1.494  87.480  1.00  0.00     0.259 C
HETATM   30  O5  UNL     1      -3.662   0.941  87.923  1.00  0.00    -0.265 OA
HETATM   31  O6  UNL     1      -2.500   2.316  86.376  1.00  0.00    -0.306 OA
ENDBRANCH  23  26
ENDBRANCH  21  22
ENDBRANCH   1  17
TORSDOF 7
ENDMDL