MODEL 5
REMARK VINA RESULT: -7.278443264      2.408      4.136
REMARK  7 active torsions:
REMARK  status: ('A' for Active; 'I' for Inactive)
REMARK    1  A    between atoms: C2_3  and  C3_4
REMARK    2  A    between atoms: C2_3  and  N2_9
REMARK    3  A    between atoms: C3_4  and  C4_5
REMARK    4  A    between atoms: C4_5  and  C5_6
REMARK       I    between atoms: N2_9  and  C6_11
REMARK    5  A    between atoms: C6_11  and  C7_13
REMARK       I    between atoms: N3_18  and  C12_19
REMARK    6  A    between atoms: C12_19  and  C13_21
REMARK       I    between atoms: N4_25  and  C17_26
REMARK    7  A    between atoms: C17_26  and  C18_28
ROOT
HETATM    1  N1  UNL     1      -2.428   5.857  85.371  1.00  0.00    -0.195 NA
HETATM    2  C1  UNL     1      -2.069   4.814  85.721  1.00  0.00     0.084 C
HETATM    3  C2  UNL     1      -1.631   3.466  86.169  1.00  0.00     0.192 C
ENDROOT
BRANCH   3   4
HETATM    4  C3  UNL     1      -2.689   2.817  86.978  1.00  0.00     0.051 C
BRANCH   4   5
HETATM    5  C4  UNL     1      -2.121   2.111  88.165  1.00  0.00     0.116 C
BRANCH   5   6
HETATM    6  C5  UNL     1      -1.496   0.817  87.907  1.00  0.00     0.172 C
HETATM    7  O1  UNL     1      -2.021  -0.316  87.997  1.00  0.00    -0.648 OA
HETATM    8  O2  UNL     1      -0.148   0.822  87.509  1.00  0.00    -0.648 OA
ENDBRANCH   5   6
ENDBRANCH   4   5
ENDBRANCH   3   4
BRANCH   3   9
HETATM    9  N2  UNL     1      -1.233   2.669  85.019  1.00  0.00    -0.342 N
HETATM   10  C6  UNL     1       0.036   2.740  84.418  1.00  0.00     0.241 C
HETATM   11  O3  UNL     1       0.878   3.539  84.900  1.00  0.00    -0.271 OA
ATOM     12  H2  UNL     1      -1.914   2.020  84.626  1.00  0.00     0.163 HD
BRANCH  10  13
HETATM   13  C7  UNL     1       0.427   1.932  83.261  1.00  0.00     0.180 C
HETATM   14  C8  UNL     1      -0.466   0.670  83.140  1.00  0.00     0.042 C
HETATM   15  C9  UNL     1      -0.489   0.585  81.664  1.00  0.00     0.013 A
HETATM   16  C10 UNL     1      -1.343   1.036  80.650  1.00  0.00     0.032 A
HETATM   17  C11 UNL     1      -0.985   2.085  81.510  1.00  0.00     0.092 A
HETATM   18  N3  UNL     1       0.217   2.625  81.999  1.00  0.00    -0.332 N
HETATM   19  C12 UNL     1       1.051   3.596  81.442  1.00  0.00     0.244 C
HETATM   20  O4  UNL     1       2.112   3.930  82.074  1.00  0.00    -0.271 OA
BRANCH  19  21
HETATM   21  C13 UNL     1       0.806   4.284  80.156  1.00  0.00     0.179 C
HETATM   22  C14 UNL     1      -0.288   5.323  80.269  1.00  0.00     0.037 C
HETATM   23  C15 UNL     1       0.441   6.496  80.905  1.00  0.00     0.022 C
HETATM   24  C16 UNL     1       1.850   6.350  80.428  1.00  0.00     0.127 C
HETATM   25  N4  UNL     1       1.952   5.073  79.781  1.00  0.00    -0.333 N
HETATM   26  C17 UNL     1       3.018   4.664  78.913  1.00  0.00     0.282 C
HETATM   27  O5  UNL     1       2.985   3.503  78.392  1.00  0.00    -0.265 OA
BRANCH  26  28
HETATM   28  C18 UNL     1       4.156   5.500  78.577  1.00  0.00     0.332 C
HETATM   29  O6  UNL     1       5.223   5.557  79.249  1.00  0.00    -0.297 OA
ENDBRANCH  26  28
ENDBRANCH  19  21
ENDBRANCH  10  13
ENDBRANCH   3   9
TORSDOF 7
ENDMDL