MODEL 2
REMARK VINA RESULT: -7.627865096      2.913      6.470
REMARK  8 active torsions:
REMARK  status: ('A' for Active; 'I' for Inactive)
REMARK    1  A    between atoms: C1_2  and  C2_3
REMARK       I    between atoms: C1_2  and  N3_20
REMARK    2  A    between atoms: C2_3  and  O2_4
REMARK    3  A    between atoms: O2_4  and  C3_5
REMARK    4  A    between atoms: C3_5  and  C4_7
REMARK    5  A    between atoms: C4_7  and  N1_8
REMARK       I    between atoms: N1_8  and  C5_10
REMARK    6  A    between atoms: C5_10  and  C6_12
REMARK       I    between atoms: C6_12  and  N2_14
REMARK    7  A    between atoms: N3_20  and  N4_22
REMARK    8  A    between atoms: C11_24  and  N5_25
ROOT
HETATM    1  O2  UNL     1      -0.486   0.013  82.347  1.00  0.00    -0.311 OA
ENDROOT
BRANCH   1   2
HETATM    2  C2  UNL     1      -0.965   1.279  82.037  1.00  0.00     0.283 C
BRANCH   2   3
HETATM    3  C1  UNL     1      -0.585   2.359  82.964  1.00  0.00     0.260 C
HETATM    4  O1  UNL     1      -1.045   3.513  82.675  1.00  0.00    -0.269 OA
HETATM    5  N3  UNL     1       0.227   2.151  84.102  1.00  0.00    -0.267 N
ATOM      6  H3  UNL     1       0.580   1.219  84.318  1.00  0.00     0.190 HD
BRANCH   5   7
HETATM    7  N4  UNL     1       0.547   3.246  84.939  1.00  0.00    -0.294 N
HETATM    8  C11 UNL     1      -0.051   3.376  86.081  1.00  0.00     0.195 C
ATOM      9  H4  UNL     1       1.245   3.929  84.645  1.00  0.00     0.187 HD
BRANCH   8  10
HETATM   10  N5  UNL     1      -1.018   2.421  86.477  1.00  0.00    -0.376 N
HETATM   11  C12 UNL     1      -0.630   1.136  87.016  1.00  0.00     0.123 C
HETATM   12  C13 UNL     1      -1.688   0.759  88.036  1.00  0.00     0.020 C
HETATM   13  C14 UNL     1      -2.244   2.010  88.701  1.00  0.00     0.003 C
HETATM   14  C15 UNL     1      -2.994   2.890  87.755  1.00  0.00     0.020 C
HETATM   15  C16 UNL     1      -2.430   2.706  86.352  1.00  0.00     0.123 C
ENDBRANCH   8  10
ENDBRANCH   5   7
ENDBRANCH   2   3
ENDBRANCH   1   2
BRANCH   1  16
HETATM   16  C3  UNL     1       0.599  -0.593  81.760  1.00  0.00     0.277 C
HETATM   17  O3  UNL     1       0.830  -1.799  82.008  1.00  0.00    -0.263 OA
BRANCH  16  18
HETATM   18  C4  UNL     1       1.440   0.217  80.861  1.00  0.00     0.234 C
BRANCH  18  19
HETATM   19  N1  UNL     1       2.310   1.140  81.530  1.00  0.00    -0.344 N
HETATM   20  C5  UNL     1       2.360   2.508  81.175  1.00  0.00     0.309 C
HETATM   21  O4  UNL     1       1.608   2.878  80.239  1.00  0.00    -0.262 OA
ATOM     22  H1  UNL     1       2.909   0.800  82.282  1.00  0.00     0.163 HD
BRANCH  20  23
HETATM   23  C6  UNL     1       3.244   3.409  81.876  1.00  0.00     0.311 C
HETATM   24  O5  UNL     1       2.933   3.745  83.053  1.00  0.00    -0.262 OA
HETATM   25  N2  UNL     1       4.428   3.934  81.326  1.00  0.00    -0.340 N
HETATM   26  C7  UNL     1       5.227   4.838  82.142  1.00  0.00     0.152 C
HETATM   27  C10 UNL     1       4.818   3.569  79.984  1.00  0.00     0.152 C
HETATM   28  C8  UNL     1       6.589   5.043  81.563  1.00  0.00     0.187 C
HETATM   29  O6  UNL     1       6.393   5.394  80.210  1.00  0.00    -0.388 OA
HETATM   30  C9  UNL     1       6.144   4.183  79.564  1.00  0.00     0.187 C
ENDBRANCH  20  23
ENDBRANCH  18  19
ENDBRANCH  16  18
ENDBRANCH   1  16
TORSDOF 8
ENDMDL