MODEL 1
REMARK VINA RESULT: -7.395272309      0.000      0.000
REMARK  10 active torsions:
REMARK  status: ('A' for Active; 'I' for Inactive)
REMARK       I    between atoms: C1_2  and  N1_3
REMARK    1  A    between atoms: C1_2  and  C2_7
REMARK    2  A    between atoms: N1_3  and  O2_5
REMARK    3  A    between atoms: C7_12  and  O3_13
REMARK    4  A    between atoms: O3_13  and  C8_14
REMARK    5  A    between atoms: C8_14  and  N2_15
REMARK    6  A    between atoms: C11_18  and  C12_19
REMARK    7  A    between atoms: C12_19  and  N3_20
REMARK    8  A    between atoms: C15_23  and  C16_24
REMARK    9  A    between atoms: C16_24  and  N4_25
REMARK   10  A    between atoms: N4_25  and  O4_27
ROOT
HETATM    1  N2  UNL     1       1.630   6.027  84.053  1.00  0.00    -0.344 N
HETATM    2  C9  UNL     1       0.701   5.078  84.257  1.00  0.00     0.093 A
HETATM    3  C10 UNL     1       0.273   4.215  83.269  1.00  0.00     0.026 A
HETATM    4  C11 UNL     1       0.809   4.312  82.002  1.00  0.00    -0.037 A
HETATM    5  C18 UNL     1       1.761   5.281  81.783  1.00  0.00     0.026 A
HETATM    6  C19 UNL     1       2.162   6.134  82.821  1.00  0.00     0.093 A
ENDROOT
BRANCH   1   7
HETATM    7  C8  UNL     1       2.057   6.920  85.123  1.00  0.00     0.305 C
BRANCH   7   8
HETATM    8  O3  UNL     1       1.016   7.744  85.545  1.00  0.00    -0.331 OA
BRANCH   8   9
HETATM    9  C7  UNL     1       0.779   8.962  84.977  1.00  0.00     0.086 A
HETATM   10  C2  UNL     1      -0.224   9.175  84.084  1.00  0.00     0.067 A
HETATM   11  C3  UNL     1      -0.409  10.464  83.538  1.00  0.00     0.020 A
HETATM   12  C4  UNL     1       0.426  11.478  83.917  1.00  0.00     0.001 A
HETATM   13  C5  UNL     1       1.436  11.294  84.806  1.00  0.00     0.003 A
HETATM   14  C6  UNL     1       1.605  10.035  85.331  1.00  0.00     0.038 A
BRANCH  10  15
HETATM   15  C1  UNL     1      -1.130   8.138  83.653  1.00  0.00     0.277 C
HETATM   16  O1  UNL     1      -1.073   7.811  82.404  1.00  0.00    -0.265 OA
HETATM   17  N1  UNL     1      -2.045   7.478  84.478  1.00  0.00    -0.233 N
ATOM     18  H1  UNL     1      -2.142   7.686  85.472  1.00  0.00     0.197 HD
BRANCH  17  19
HETATM   19  O2  UNL     1      -2.818   6.505  83.829  1.00  0.00    -0.287 OA
ATOM     20  H2  UNL     1      -3.688   6.386  84.192  1.00  0.00     0.244 HD
ENDBRANCH  17  19
ENDBRANCH  10  15
ENDBRANCH   8   9
ENDBRANCH   7   8
ENDBRANCH   1   7
BRANCH   4  21
HETATM   21  C12 UNL     1       0.361   3.396  80.946  1.00  0.00     0.171 C
BRANCH  21  22
HETATM   22  N3  UNL     1       0.336   2.014  81.292  1.00  0.00    -0.305 N
HETATM   23  C13 UNL     1       1.491   1.381  81.489  1.00  0.00     0.098 A
HETATM   24  C14 UNL     1       1.505   0.054  81.827  1.00  0.00     0.048 A
HETATM   25  C15 UNL     1       0.303  -0.607  81.956  1.00  0.00     0.054 A
HETATM   26  N5  UNL     1      -0.854   0.047  81.753  1.00  0.00    -0.307 N
HETATM   27  C17 UNL     1      -0.814   1.349  81.424  1.00  0.00     0.327 A
ATOM     28  H5  UNL     1      -1.747  -0.437  81.848  1.00  0.00     0.170 HD
HETATM   29  O5  UNL     1      -1.950   1.891  81.250  1.00  0.00    -0.246 OA
BRANCH  25  30
HETATM   30  C16 UNL     1       0.284  -2.031  82.316  1.00  0.00     0.143 C
BRANCH  30  31
HETATM   31  N4  UNL     1       1.254  -2.813  82.070  1.00  0.00    -0.278 N
ATOM     32  H4  UNL     1       2.155  -2.388  81.852  1.00  0.00     0.193 HD
BRANCH  31  33
HETATM   33  O4  UNL     1       1.188  -4.174  82.072  1.00  0.00    -0.290 OA
ATOM     34  H4  UNL     1       1.883  -4.756  82.357  1.00  0.00     0.244 HD
ENDBRANCH  31  33
ENDBRANCH  30  31
ENDBRANCH  25  30
ENDBRANCH  21  22
ENDBRANCH   4  21
TORSDOF 10
ENDMDL