MODEL 4
REMARK VINA RESULT: -7.854241676      1.620      4.830
REMARK  7 active torsions:
REMARK  status: ('A' for Active; 'I' for Inactive)
REMARK    1  A    between atoms: C1_2  and  C2_4
REMARK    2  A    between atoms: C2_4  and  N1_5
REMARK       I    between atoms: N1_5  and  C3_7
REMARK    3  A    between atoms: C3_7  and  C4_9
REMARK    4  A    between atoms: C4_9  and  C5_10
REMARK    5  A    between atoms: C4_9  and  C10_17
REMARK    6  A    between atoms: C5_10  and  N2_11
REMARK       I    between atoms: C10_17  and  N3_19
REMARK    7  A    between atoms: N4_22  and  C13_23
ROOT
HETATM    1  C4  UNL     1      -1.149   2.891  84.455  1.00  0.00     0.198 C
ENDROOT
BRANCH   1   2
HETATM    2  C3  UNL     1      -0.703   2.233  83.180  1.00  0.00     0.233 C
HETATM    3  N1  UNL     1       0.338   1.285  83.245  1.00  0.00    -0.350 N
ATOM      4  H1  UNL     1       0.770   1.067  84.143  1.00  0.00     0.163 HD
HETATM    5  O3  UNL     1      -1.245   2.519  82.081  1.00  0.00    -0.273 OA
BRANCH   3   6
HETATM    6  C2  UNL     1       0.799   0.624  82.047  1.00  0.00     0.235 C
BRANCH   6   7
HETATM    7  C1  UNL     1       1.940   1.340  81.463  1.00  0.00     0.191 C
HETATM    8  O1  UNL     1       2.139   1.475  80.218  1.00  0.00    -0.647 OA
HETATM    9  O2  UNL     1       2.914   1.940  82.272  1.00  0.00    -0.647 OA
ENDBRANCH   6   7
ENDBRANCH   3   6
ENDBRANCH   1   2
BRANCH   1  10
HETATM   10  C5  UNL     1      -1.081   1.870  85.547  1.00  0.00     0.296 C
BRANCH  10  11
HETATM   11  N2  UNL     1      -1.341   2.383  86.853  1.00  0.00     0.093 N
HETATM   12  C6  UNL     1      -2.722   2.750  87.049  1.00  0.00     0.298 C
HETATM   13  C7  UNL     1      -3.583   1.539  87.295  1.00  0.00     0.198 C
HETATM   14  O4  UNL     1      -2.849   0.381  87.440  1.00  0.00    -0.388 OA
HETATM   15  C8  UNL     1      -1.901   0.573  88.447  1.00  0.00     0.198 C
HETATM   16  C9  UNL     1      -0.861   1.533  87.887  1.00  0.00     0.298 C
ENDBRANCH  10  11
ENDBRANCH   1  10
BRANCH   1  17
HETATM   17  C10 UNL     1      -0.190   4.015  84.705  1.00  0.00     0.236 C
HETATM   18  O5  UNL     1       1.030   3.715  84.846  1.00  0.00    -0.272 OA
HETATM   19  N3  UNL     1      -0.561   5.372  84.791  1.00  0.00    -0.324 N
HETATM   20  C11 UNL     1      -1.901   5.895  84.679  1.00  0.00     0.158 C
HETATM   21  C18 UNL     1       0.313   6.499  85.003  1.00  0.00     0.400 C
HETATM   22  C12 UNL     1      -1.700   7.290  84.130  1.00  0.00     0.294 C
HETATM   23  N4  UNL     1      -0.298   7.607  84.319  1.00  0.00     0.112 N
BRANCH  23  24
HETATM   24  C13 UNL     1      -0.116   8.850  85.041  1.00  0.00     0.225 C
HETATM   25  C14 UNL     1      -0.492  10.060  84.249  1.00  0.00     0.036 C
HETATM   26  C15 UNL     1       0.435  11.158  84.730  1.00  0.00     0.002 C
HETATM   27  C16 UNL     1       1.726  10.431  84.939  1.00  0.00     0.002 C
HETATM   28  C17 UNL     1       1.327   9.068  85.420  1.00  0.00     0.036 C
ENDBRANCH  23  24
ENDBRANCH   1  17
TORSDOF 7
ENDMDL