MODEL 4
REMARK VINA RESULT: -6.301574204      2.512      4.601
REMARK  8 active torsions:
REMARK  status: ('A' for Active; 'I' for Inactive)
REMARK    1  A    between atoms: S1_2  and  C2_4
REMARK    2  A    between atoms: C2_4  and  C3_5
REMARK    3  A    between atoms: C6_10  and  N1_11
REMARK       I    between atoms: N1_11  and  C7_13
REMARK    4  A    between atoms: C7_13  and  C8_15
REMARK    5  A    between atoms: C8_15  and  C9_16
REMARK    6  A    between atoms: C8_15  and  N2_18
REMARK       I    between atoms: N2_18  and  C10_20
REMARK    7  A    between atoms: C10_20  and  C11_22
REMARK    8  A    between atoms: C13_24  and  O5_25
ROOT
HETATM    1  N1  UNL     1       0.786   3.604  82.501  1.00  0.00    -0.353 N
ATOM      2  H1  UNL     1      -0.144   3.999  82.647  1.00  0.00     0.163 HD
HETATM    3  C7  UNL     1       0.948   2.219  82.675  1.00  0.00     0.247 C
HETATM    4  O2  UNL     1       2.074   1.693  82.504  1.00  0.00    -0.271 OA
ENDROOT
BRANCH   3   5
HETATM    5  C8  UNL     1      -0.164   1.309  83.060  1.00  0.00     0.238 C
BRANCH   5   6
HETATM    6  C9  UNL     1      -0.054  -0.019  82.454  1.00  0.00     0.266 C
HETATM    7  O3  UNL     1      -0.400  -1.017  83.035  1.00  0.00    -0.304 OA
ENDBRANCH   5   6
BRANCH   5   8
HETATM    8  N2  UNL     1      -0.203   1.145  84.498  1.00  0.00    -0.342 N
HETATM    9  C10 UNL     1      -0.900   2.099  85.272  1.00  0.00     0.225 C
HETATM   10  O4  UNL     1      -1.467   3.063  84.705  1.00  0.00    -0.273 OA
ATOM     11  H2  UNL     1       0.264   0.356  84.944  1.00  0.00     0.163 HD
BRANCH   9  12
HETATM   12  C11 UNL     1      -1.001   2.025  86.751  1.00  0.00     0.109 A
HETATM   13  C12 UNL     1      -2.443   2.169  87.251  1.00  0.00     0.049 A
HETATM   14  C13 UNL     1      -1.678   0.888  87.406  1.00  0.00     0.132 A
BRANCH  14  15
HETATM   15  O5  UNL     1      -1.257   0.588  88.699  1.00  0.00    -0.395 OA
ATOM     16  H5  UNL     1      -1.158  -0.335  88.901  1.00  0.00     0.210 HD
ENDBRANCH  14  15
ENDBRANCH   9  12
ENDBRANCH   5   8
ENDBRANCH   3   5
BRANCH   1  17
HETATM   17  C6  UNL     1       1.855   4.508  82.126  1.00  0.00     0.100 C
HETATM   18  C3  UNL     1       1.865   5.755  82.977  1.00  0.00     0.031 C
HETATM   19  C4  UNL     1       3.281   6.158  83.299  1.00  0.00     0.093 C
HETATM   20  S2  UNL     1       3.923   7.007  81.805  1.00  0.00    -0.097 SA
HETATM   21  S3  UNL     1       2.631   6.351  80.215  1.00  0.00    -0.096 SA
HETATM   22  C5  UNL     1       1.900   4.778  80.658  1.00  0.00     0.111 C
BRANCH  18  23
HETATM   23  C2  UNL     1       1.032   5.583  84.234  1.00  0.00     0.115 C
BRANCH  23  24
HETATM   24  S1  UNL     1      -0.446   6.558  84.057  1.00  0.00     0.011 S
HETATM   25  C1  UNL     1      -1.409   6.546  85.543  1.00  0.00     0.127 C
HETATM   26  O1  UNL     1      -1.380   5.840  82.854  1.00  0.00    -0.258 OA
ENDBRANCH  23  24
ENDBRANCH  18  23
ENDBRANCH   1  17
TORSDOF 8
ENDMDL