MODEL 1
REMARK VINA RESULT: -6.864372564      0.000      0.000
REMARK  6 active torsions:
REMARK  status: ('A' for Active; 'I' for Inactive)
REMARK    1  A    between atoms: C4_4  and  C5_5
REMARK       I    between atoms: C5_5  and  N1_7
REMARK    2  A    between atoms: C9_11  and  C10_12
REMARK    3  A    between atoms: C9_11  and  C11_14
REMARK    4  A    between atoms: C13_19  and  O3_20
REMARK    5  A    between atoms: C15_22  and  O4_23
REMARK    6  A    between atoms: C18_26  and  C19_27
ROOT
HETATM    1  C1  UNL     1      -2.054   1.804  89.225  1.00  0.00     0.017 C
HETATM    2  C2  UNL     1      -1.886   1.801  88.028  1.00  0.00    -0.089 C
HETATM    3  C3  UNL     1      -1.688   1.826  86.583  1.00  0.00     0.069 C
HETATM    4  C4  UNL     1      -1.809   2.781  85.802  1.00  0.00     0.083 C
ENDROOT
BRANCH   4   5
HETATM    5  C5  UNL     1      -2.183   4.146  86.088  1.00  0.00     0.244 C
HETATM    6  O1  UNL     1      -2.792   4.529  87.110  1.00  0.00    -0.268 OA
HETATM    7  N1  UNL     1      -1.834   5.134  85.125  1.00  0.00    -0.334 N
HETATM    8  C6  UNL     1      -1.757   6.405  84.499  1.00  0.00     0.112 A
HETATM    9  C20 UNL     1      -1.013   5.328  83.917  1.00  0.00     0.126 A
HETATM   10  C7  UNL     1      -0.776   7.414  84.985  1.00  0.00     0.029 C
HETATM   11  C8  UNL     1       0.590   7.008  84.382  1.00  0.00     0.021 C
HETATM   12  C9  UNL     1       0.472   5.526  84.211  1.00  0.00     0.042 C
BRANCH  12  13
HETATM   13  C10 UNL     1       0.775   4.911  85.572  1.00  0.00     0.243 C
HETATM   14  O2  UNL     1       1.573   4.017  85.664  1.00  0.00    -0.306 OA
ENDBRANCH  12  13
BRANCH  12  15
HETATM   15  C11 UNL     1       1.324   4.843  83.242  1.00  0.00     0.049 C
HETATM   16  C12 UNL     1       2.268   5.809  82.489  1.00  0.00     0.202 C
HETATM   17  N2  UNL     1       3.620   5.558  82.878  1.00  0.00    -0.041 N
HETATM   18  C17 UNL     1       2.010   5.031  81.186  1.00  0.00     0.065 C
HETATM   19  C13 UNL     1       4.001   4.296  82.223  1.00  0.00     0.350 C
ATOM     20  H22 UNL     1       4.253   6.331  82.672  1.00  0.00     0.280 HD
ATOM     21  H21 UNL     1       3.759   5.551  83.888  1.00  0.00     0.280 HD
HETATM   22  C15 UNL     1       3.255   4.321  80.903  1.00  0.00     0.184 C
HETATM   23  C18 UNL     1       0.874   4.385  81.913  1.00  0.00     0.103 C
BRANCH  19  24
HETATM   24  O3  UNL     1       5.359   4.276  82.142  1.00  0.00    -0.362 OA
HETATM   25  C14 UNL     1       5.879   5.237  81.273  1.00  0.00     0.204 C
ENDBRANCH  19  24
BRANCH  22  26
HETATM   26  O4  UNL     1       3.241   3.142  80.234  1.00  0.00    -0.386 OA
HETATM   27  C16 UNL     1       3.186   3.309  78.844  1.00  0.00     0.202 C
ENDBRANCH  22  26
BRANCH  23  28
HETATM   28  C19 UNL     1       0.769   2.929  81.777  1.00  0.00     0.178 C
HETATM   29  O5  UNL     1       0.193   2.376  80.814  1.00  0.00    -0.648 OA
HETATM   30  O6  UNL     1       1.315   2.057  82.733  1.00  0.00    -0.648 OA
ENDBRANCH  23  28
ENDBRANCH  12  15
ENDBRANCH   4   5
TORSDOF 6
ENDMDL