MODEL 5
REMARK VINA RESULT: -6.368437233      2.443      5.019
REMARK  4 active torsions:
REMARK  status: ('A' for Active; 'I' for Inactive)
REMARK    1  A    between atoms: C1_2  and  C2_3
REMARK       I    between atoms: C1_2  and  N2_9
REMARK    2  A    between atoms: C2_3  and  N1_4
REMARK    3  A    between atoms: C11_15  and  O3_16
REMARK    4  A    between atoms: C14_22  and  C15_23
ROOT
HETATM    1  O1  UNL     1      18.196   3.063  14.396  1.00  0.00    -0.271 OA
HETATM    2  C1  UNL     1      18.096   3.569  13.254  1.00  0.00     0.249 C
HETATM    3  N2  UNL     1      17.424   4.791  13.103  1.00  0.00    -0.337 N
HETATM    4  C7  UNL     1      17.409   5.220  11.742  1.00  0.00     0.181 C
HETATM    5  C8  UNL     1      16.869   6.576  11.449  1.00  0.00     0.028 C
HETATM    6  C9  UNL     1      15.438   6.802  11.872  1.00  0.00     0.221 C
HETATM    7  O2  UNL     1      15.156   6.589  13.181  1.00  0.00    -0.382 OA
HETATM    8  C10 UNL     1      15.853   7.481  13.991  1.00  0.00     0.208 C
HETATM    9  C11 UNL     1      17.041   6.756  14.523  1.00  0.00     0.104 C
HETATM   10  C12 UNL     1      18.355   7.137  13.947  1.00  0.00     0.086 C
HETATM   11  C13 UNL     1      18.348   8.028  12.775  1.00  0.00     0.064 C
HETATM   12  N3  UNL     1      17.743   7.667  11.606  1.00  0.00    -0.373 N
ATOM     13  H3  UNL     1      17.941   8.232  10.781  1.00  0.00     0.164 HD
HETATM   14  C14 UNL     1      16.933   5.253  14.411  1.00  0.00     0.128 C
ENDROOT
BRANCH   2  15
HETATM   15  C2  UNL     1      18.670   2.904  12.062  1.00  0.00     0.374 C
BRANCH  15  16
HETATM   16  N1  UNL     1      18.371   1.494  12.013  1.00  0.00     0.097 N
HETATM   17  C3  UNL     1      19.275   0.695  11.278  1.00  0.00     0.273 C
HETATM   18  C4  UNL     1      18.560  -0.642  11.173  1.00  0.00     0.032 C
HETATM   19  C5  UNL     1      17.110  -0.292  11.270  1.00  0.00     0.032 C
HETATM   20  C6  UNL     1      17.038   1.171  11.662  1.00  0.00     0.273 C
ENDBRANCH  15  16
ENDBRANCH   2  15
BRANCH  14  21
HETATM   21  C15 UNL     1      15.618   4.677  14.756  1.00  0.00     0.012 A
HETATM   22  C16 UNL     1      14.930   4.703  16.022  1.00  0.00     0.007 A
HETATM   23  C17 UNL     1      15.627   3.412  15.644  1.00  0.00     0.007 A
ENDBRANCH  14  21
BRANCH   9  24
HETATM   24  O3  UNL     1      17.065   7.010  15.919  1.00  0.00    -0.385 OA
ATOM     25  H3  UNL     1      17.911   6.707  16.228  1.00  0.00     0.210 HD
ENDBRANCH   9  24
TORSDOF 4
ENDMDL