MODEL 4
REMARK VINA RESULT: -6.315965370      1.312      2.061
REMARK  4 active torsions:
REMARK  status: ('A' for Active; 'I' for Inactive)
REMARK    1  A    between atoms: N2_5  and  C4_6
REMARK    2  A    between atoms: C4_6  and  C5_7
REMARK    3  A    between atoms: C5_7  and  C6_8
REMARK       I    between atoms: C6_8  and  N3_10
REMARK    4  A    between atoms: C13_17  and  O2_18
ROOT
HETATM    1  C6  UNL     1      18.900   3.839  12.091  1.00  0.00     0.221 C
HETATM    2  O1  UNL     1      19.945   4.562  12.140  1.00  0.00    -0.273 OA
HETATM    3  N3  UNL     1      18.033   3.713  13.197  1.00  0.00    -0.352 N
HETATM    4  C7  UNL     1      16.861   2.865  13.122  1.00  0.00     0.129 C
HETATM    5  C8  UNL     1      16.979   1.837  14.258  1.00  0.00     0.058 C
HETATM    6  C9  UNL     1      16.931   2.612  15.550  1.00  0.00     0.066 C
HETATM    7  C10 UNL     1      18.142   3.516  15.604  1.00  0.00     0.058 C
HETATM    8  C11 UNL     1      18.279   4.423  14.419  1.00  0.00     0.129 C
HETATM    9  C12 UNL     1      17.061   1.666  16.724  1.00  0.00     0.070 C
HETATM   10  C13 UNL     1      15.845   0.804  16.821  1.00  0.00     0.123 C
HETATM   11  C14 UNL     1      14.617   1.673  16.834  1.00  0.00     0.058 C
HETATM   12  C15 UNL     1      14.863   3.110  16.515  1.00  0.00     0.171 C
HETATM   13  O3  UNL     1      15.796   3.372  15.554  1.00  0.00    -0.380 OA
ENDROOT
BRANCH   1  14
HETATM   14  C5  UNL     1      18.624   3.119  10.794  1.00  0.00     0.133 C
BRANCH  14  15
HETATM   15  C4  UNL     1      18.213   4.116   9.754  1.00  0.00     0.282 C
BRANCH  15  16
HETATM   16  N2  UNL     1      19.289   4.930   9.283  1.00  0.00     0.098 N
HETATM   17  C3  UNL     1      18.899   6.346   9.260  1.00  0.00     0.317 C
HETATM   18  C2  UNL     1      17.879   6.646   8.211  1.00  0.00     0.092 C
HETATM   19  N1  UNL     1      18.020   5.914   7.016  1.00  0.00    -0.375 N
HETATM   20  C1  UNL     1      17.022   6.031   6.044  1.00  0.00     0.154 C
HETATM   21  C17 UNL     1      19.140   5.127   6.815  1.00  0.00     0.092 C
HETATM   22  C16 UNL     1      19.845   4.556   8.003  1.00  0.00     0.317 C
ENDBRANCH  15  16
ENDBRANCH  14  15
ENDBRANCH   1  14
BRANCH  10  23
HETATM   23  O2  UNL     1      15.969   0.017  17.969  1.00  0.00    -0.395 OA
ATOM     24  H2  UNL     1      15.399   0.383  18.635  1.00  0.00     0.210 HD
ENDBRANCH  10  23
TORSDOF 4
ENDMDL