MODEL 4
REMARK VINA RESULT: -6.752710289      3.674      6.100
REMARK  5 active torsions:
REMARK  status: ('A' for Active; 'I' for Inactive)
REMARK    1  A    between atoms: N2_8  and  C7_9
REMARK    2  A    between atoms: C7_9  and  C8_10
REMARK    3  A    between atoms: C8_10  and  O1_11
REMARK       I    between atoms: N3_16  and  C12_17
REMARK    4  A    between atoms: C12_17  and  C13_19
REMARK    5  A    between atoms: C13_19  and  O3_20
ROOT
HETATM    1  C8  UNL     1      17.410   2.225  11.475  1.00  0.00     0.100 C
HETATM    2  C9  UNL     1      18.482   2.404  10.383  1.00  0.00     0.043 C
HETATM    3  C10 UNL     1      19.758   1.731  10.826  1.00  0.00     0.023 C
HETATM    4  C11 UNL     1      19.570   0.311  11.236  1.00  0.00     0.126 C
HETATM    5  N3  UNL     1      18.252  -0.133  11.518  1.00  0.00    -0.344 N
HETATM    6  C12 UNL     1      17.973  -1.524  11.686  1.00  0.00     0.265 C
HETATM    7  O2  UNL     1      16.747  -1.833  11.891  1.00  0.00    -0.266 OA
HETATM    8  C14 UNL     1      17.135   0.781  11.659  1.00  0.00     0.165 C
ENDROOT
BRANCH   1   9
HETATM    9  C7  UNL     1      17.848   2.916  12.731  1.00  0.00     0.311 C
BRANCH   9  10
HETATM   10  N2  UNL     1      17.359   4.242  12.822  1.00  0.00     0.091 N
HETATM   11  C6  UNL     1      18.519   5.194  12.780  1.00  0.00     0.273 C
HETATM   12  C5  UNL     1      17.921   6.435  12.155  1.00  0.00     0.041 C
HETATM   13  C4  UNL     1      16.837   6.964  13.048  1.00  0.00    -0.009 C
HETATM   14  C3  UNL     1      15.922   7.905  12.246  1.00  0.00     0.041 C
HETATM   15  C16 UNL     1      15.961   5.966  13.691  1.00  0.00     0.041 C
HETATM   16  C17 UNL     1      17.543   7.889  14.050  1.00  0.00     0.281 C
HETATM   17  C2  UNL     1      16.141   9.230  12.946  1.00  0.00     0.272 C
HETATM   18  N1  UNL     1      17.553   9.125  13.272  1.00  0.00     0.085 N
HETATM   19  C1  UNL     1      18.058  10.254  14.005  1.00  0.00     0.309 C
HETATM   20  C15 UNL     1      16.638   4.621  13.994  1.00  0.00     0.273 C
ENDBRANCH   9  10
ENDBRANCH   1   9
BRANCH   1  21
HETATM   21  O1  UNL     1      16.288   2.844  10.951  1.00  0.00    -0.386 OA
ATOM     22  H1  UNL     1      15.646   2.196  10.688  1.00  0.00     0.210 HD
ENDBRANCH   1  21
BRANCH   6  23
HETATM   23  C13 UNL     1      18.968  -2.573  11.638  1.00  0.00     0.205 C
BRANCH  23  24
HETATM   24  O3  UNL     1      18.564  -3.870  11.640  1.00  0.00    -0.367 OA
ATOM     25  H3  UNL     1      19.212  -4.557  11.541  1.00  0.00     0.216 HD
ENDBRANCH  23  24
ENDBRANCH   6  23
TORSDOF 5
ENDMDL