MODEL 5
REMARK VINA RESULT: -6.825016133      1.300      1.760
REMARK  5 active torsions:
REMARK  status: ('A' for Active; 'I' for Inactive)
REMARK    1  A    between atoms: C1_2  and  C2_3
REMARK       I    between atoms: C1_2  and  N3_16
REMARK    2  A    between atoms: C2_3  and  N1_4
REMARK    3  A    between atoms: N2_7  and  C5_8
REMARK    4  A    between atoms: C15_19  and  O2_20
REMARK    5  A    between atoms: C16_22  and  O3_23
ROOT
HETATM    1  C2  UNL     1      17.401   2.618  12.424  1.00  0.00     0.374 C
ENDROOT
BRANCH   1   2
HETATM    2  C1  UNL     1      16.653   3.223  13.528  1.00  0.00     0.248 C
HETATM    3  O1  UNL     1      16.231   4.401  13.457  1.00  0.00    -0.271 OA
HETATM    4  N3  UNL     1      16.406   2.457  14.691  1.00  0.00    -0.348 N
HETATM    5  C13 UNL     1      15.664   3.016  15.814  1.00  0.00     0.128 C
HETATM    6  C17 UNL     1      16.877   1.089  14.820  1.00  0.00     0.160 C
HETATM    7  C14 UNL     1      15.073   1.863  16.599  1.00  0.00     0.054 C
HETATM    8  C15 UNL     1      16.141   0.978  17.162  1.00  0.00     0.150 C
HETATM    9  C16 UNL     1      17.358   0.919  16.243  1.00  0.00     0.164 C
BRANCH   8  10
HETATM   10  O2  UNL     1      15.652  -0.335  17.313  1.00  0.00    -0.393 OA
ATOM     11  H2  UNL     1      16.372  -0.954  17.305  1.00  0.00     0.210 HD
ENDBRANCH   8  10
BRANCH   9  12
HETATM   12  O3  UNL     1      18.316   1.863  16.581  1.00  0.00    -0.391 OA
ATOM     13  H3  UNL     1      18.969   1.516  17.177  1.00  0.00     0.210 HD
ENDBRANCH   9  12
ENDBRANCH   1   2
BRANCH   1  14
HETATM   14  N1  UNL     1      18.820   2.993  12.411  1.00  0.00     0.100 N
HETATM   15  C3  UNL     1      19.189   3.083  11.027  1.00  0.00     0.303 C
HETATM   16  C4  UNL     1      20.525   3.687  10.756  1.00  0.00     0.303 C
HETATM   17  N2  UNL     1      21.003   4.450  11.869  1.00  0.00     0.096 N
HETATM   18  C11 UNL     1      19.893   5.196  12.419  1.00  0.00     0.303 C
HETATM   19  C12 UNL     1      19.005   4.192  13.170  1.00  0.00     0.303 C
BRANCH  17  20
HETATM   20  C5  UNL     1      22.151   5.251  11.605  1.00  0.00     0.223 C
HETATM   21  C6  UNL     1      21.990   6.166  10.409  1.00  0.00     0.036 C
HETATM   22  C7  UNL     1      23.188   7.076  10.248  1.00  0.00     0.002 C
HETATM   23  C8  UNL     1      24.270   6.769  11.251  1.00  0.00     0.000 C
HETATM   24  C9  UNL     1      24.575   5.316  11.409  1.00  0.00     0.002 C
HETATM   25  C10 UNL     1      23.382   4.411  11.392  1.00  0.00     0.036 C
ENDBRANCH  17  20
ENDBRANCH   1  14
TORSDOF 5
ENDMDL