MODEL 1
REMARK VINA RESULT: -6.875375762      0.000      0.000
REMARK  3 active torsions:
REMARK  status: ('A' for Active; 'I' for Inactive)
REMARK       I    between atoms: N2_11  and  C8_12
REMARK       I    between atoms: C8_12  and  N3_14
REMARK    1  A    between atoms: N3_14  and  C9_16
REMARK    2  A    between atoms: C9_16  and  C10_17
REMARK    3  A    between atoms: C10_17  and  N4_18
ROOT
HETATM    1  O1  UNL     1      21.558   4.188   5.986  1.00  0.00    -0.274 OA
HETATM    2  C1  UNL     1      21.625   3.933   7.211  1.00  0.00     0.218 C
HETATM    3  C2  UNL     1      20.405   3.791   7.988  1.00  0.00     0.112 C
HETATM    4  C3  UNL     1      20.542   3.832   9.469  1.00  0.00    -0.028 C
HETATM    5  C4  UNL     1      21.828   4.340  10.002  1.00  0.00     0.029 C
HETATM    6  C5  UNL     1      23.049   4.116   9.206  1.00  0.00     0.123 C
HETATM    7  N1  UNL     1      22.857   3.785   7.832  1.00  0.00    -0.361 N
ATOM      8  H1  UNL     1      23.647   3.430   7.292  1.00  0.00     0.162 HD
HETATM    9  C6  UNL     1      20.285   2.427   9.980  1.00  0.00     0.030 C
HETATM   10  C7  UNL     1      18.886   2.263  10.541  1.00  0.00     0.128 C
HETATM   11  N2  UNL     1      18.818   3.145  11.691  1.00  0.00    -0.334 N
HETATM   12  C8  UNL     1      18.340   2.767  12.952  1.00  0.00     0.318 C
HETATM   13  O2  UNL     1      17.928   1.588  13.142  1.00  0.00    -0.247 OA
HETATM   14  N3  UNL     1      18.301   3.673  14.030  1.00  0.00    -0.341 N
ATOM     15  H3  UNL     1      18.628   4.629  13.891  1.00  0.00     0.164 HD
HETATM   16  C15 UNL     1      19.287   4.501  11.483  1.00  0.00     0.128 C
HETATM   17  C16 UNL     1      19.395   4.693   9.985  1.00  0.00     0.030 C
ENDROOT
BRANCH  14  18
HETATM   18  C9  UNL     1      17.806   3.274  15.329  1.00  0.00     0.154 C
BRANCH  18  19
HETATM   19  C10 UNL     1      16.318   3.544  15.407  1.00  0.00     0.292 C
BRANCH  19  20
HETATM   20  N4  UNL     1      15.561   2.343  15.649  1.00  0.00     0.094 N
HETATM   21  C11 UNL     1      16.496   1.294  15.978  1.00  0.00     0.298 C
HETATM   22  C12 UNL     1      16.209   0.771  17.362  1.00  0.00     0.198 C
HETATM   23  O3  UNL     1      14.921   0.239  17.362  1.00  0.00    -0.388 OA
HETATM   24  C13 UNL     1      13.972   1.236  17.153  1.00  0.00     0.198 C
HETATM   25  C14 UNL     1      14.565   2.527  16.688  1.00  0.00     0.298 C
ENDBRANCH  19  20
ENDBRANCH  18  19
ENDBRANCH  14  18
TORSDOF 3
ENDMDL