MODEL 2
REMARK VINA RESULT: -6.881487849      0.600      1.139
REMARK  3 active torsions:
REMARK  status: ('A' for Active; 'I' for Inactive)
REMARK       I    between atoms: N1_7  and  C6_8
REMARK       I    between atoms: C6_8  and  N2_10
REMARK    1  A    between atoms: N2_10  and  C7_12
REMARK    2  A    between atoms: C7_12  and  C8_13
REMARK    3  A    between atoms: C8_13  and  N3_14
ROOT
HETATM    1  O1  UNL     1      17.860   1.978  10.230  1.00  0.00    -0.273 OA
HETATM    2  C1  UNL     1      18.748   2.613  10.828  1.00  0.00     0.230 C
HETATM    3  C2  UNL     1      20.215   2.444  10.563  1.00  0.00     0.144 C
HETATM    4  C3  UNL     1      20.752   3.790  10.159  1.00  0.00     0.156 C
HETATM    5  C4  UNL     1      20.149   4.935  10.884  1.00  0.00     0.062 C
HETATM    6  C5  UNL     1      19.349   4.618  12.095  1.00  0.00     0.139 C
HETATM    7  N1  UNL     1      18.412   3.573  11.835  1.00  0.00    -0.270 N
HETATM    8  C6  UNL     1      17.158   3.446  12.536  1.00  0.00     0.325 C
HETATM    9  O2  UNL     1      16.410   2.490  12.245  1.00  0.00    -0.247 OA
HETATM   10  N2  UNL     1      16.776   4.363  13.520  1.00  0.00    -0.341 N
ATOM     11  H2  UNL     1      17.402   5.137  13.745  1.00  0.00     0.164 HD
HETATM   12  C13 UNL     1      22.257   3.808  10.370  1.00  0.00     0.207 C
HETATM   13  O4  UNL     1      22.952   3.373   9.256  1.00  0.00    -0.387 OA
HETATM   14  C14 UNL     1      22.859   4.269   8.185  1.00  0.00     0.195 C
HETATM   15  C15 UNL     1      21.490   4.943   8.271  1.00  0.00     0.259 C
HETATM   16  N4  UNL     1      20.564   3.914   8.704  1.00  0.00    -0.062 N
ATOM     17  H41 UNL     1      19.598   4.095   8.431  1.00  0.00     0.278 HD
ATOM     18  H42 UNL     1      20.671   3.033   8.202  1.00  0.00     0.278 HD
ENDROOT
BRANCH  10  19
HETATM   19  C7  UNL     1      15.542   4.248  14.216  1.00  0.00     0.144 C
BRANCH  19  20
HETATM   20  C8  UNL     1      15.645   4.053  15.710  1.00  0.00     0.146 C
BRANCH  20  21
HETATM   21  N3  UNL     1      15.572   2.649  15.949  1.00  0.00    -0.368 N
HETATM   22  C9  UNL     1      16.733   1.886  15.733  1.00  0.00     0.089 C
HETATM   23  C10 UNL     1      16.787   0.581  16.471  1.00  0.00     0.212 C
HETATM   24  O3  UNL     1      15.517   0.036  16.690  1.00  0.00    -0.381 OA
HETATM   25  C11 UNL     1      14.877   0.928  17.575  1.00  0.00     0.212 C
HETATM   26  C12 UNL     1      14.580   2.181  16.829  1.00  0.00     0.089 C
ENDBRANCH  20  21
ENDBRANCH  19  20
ENDBRANCH  10  19
TORSDOF 3
ENDMDL