MODEL 1
REMARK VINA RESULT: -7.782787290      0.000      0.000
REMARK  7 active torsions:
REMARK  status: ('A' for Active; 'I' for Inactive)
REMARK    1  A    between atoms: C1_2  and  C2_3
REMARK       I    between atoms: C1_2  and  N1_6
REMARK    2  A    between atoms: C2_3  and  O2_4
REMARK    3  A    between atoms: N1_6  and  C3_8
REMARK    4  A    between atoms: C3_8  and  C4_9
REMARK    5  A    between atoms: N2_15  and  C9_16
REMARK    6  A    between atoms: C9_16  and  O4_17
REMARK    7  A    between atoms: C9_16  and  N3_19
ROOT
HETATM    1  C4  UNL     1      20.176   2.604  11.773  1.00  0.00     0.167 C
HETATM    2  C5  UNL     1      20.245   4.000  11.239  1.00  0.00     0.205 C
HETATM    3  O3  UNL     1      19.033   4.546  11.583  1.00  0.00    -0.352 OA
HETATM    4  C6  UNL     1      18.598   3.886  12.703  1.00  0.00     0.167 C
HETATM    5  C7  UNL     1      18.912   4.599  14.005  1.00  0.00     0.088 C
HETATM    6  C8  UNL     1      17.808   4.375  15.007  1.00  0.00     0.131 C
HETATM    7  N2  UNL     1      17.276   3.016  14.911  1.00  0.00    -0.347 N
HETATM    8  C14 UNL     1      16.816   2.538  13.655  1.00  0.00     0.131 C
HETATM    9  C15 UNL     1      17.083   3.646  12.623  1.00  0.00     0.088 C
HETATM   10  O5  UNL     1      19.188   2.630  12.753  1.00  0.00    -0.346 OA
ENDROOT
BRANCH   1  11
HETATM   11  C3  UNL     1      19.822   1.595  10.720  1.00  0.00     0.156 C
BRANCH  11  12
HETATM   12  N1  UNL     1      19.514   0.344  11.342  1.00  0.00    -0.357 N
HETATM   13  C1  UNL     1      18.337  -0.389  11.016  1.00  0.00     0.241 C
HETATM   14  O1  UNL     1      17.563   0.092  10.157  1.00  0.00    -0.271 OA
ATOM     15  H1  UNL     1      20.156  -0.034  12.039  1.00  0.00     0.162 HD
BRANCH  13  16
HETATM   16  C2  UNL     1      17.994  -1.678  11.641  1.00  0.00     0.266 C
BRANCH  16  17
HETATM   17  O2  UNL     1      19.082  -2.536  11.614  1.00  0.00    -0.392 OA
ATOM     18  H2  UNL     1      19.633  -2.399  12.376  1.00  0.00     0.210 HD
ENDBRANCH  16  17
ENDBRANCH  13  16
ENDBRANCH  11  12
ENDBRANCH   1  11
BRANCH   7  19
HETATM   19  C9  UNL     1      17.248   2.244  16.078  1.00  0.00     0.217 C
BRANCH  19  20
HETATM   20  O4  UNL     1      18.378   1.648  16.348  1.00  0.00    -0.333 OA
ATOM     21  H4  UNL     1      18.591   0.937  15.754  1.00  0.00     0.220 HD
ENDBRANCH  19  20
BRANCH  19  22
HETATM   22  N3  UNL     1      16.168   2.076  16.917  1.00  0.00    -0.348 N
HETATM   23  C10 UNL     1      15.821   1.271  18.020  1.00  0.00     0.126 C
HETATM   24  C11 UNL     1      14.442   0.723  17.547  1.00  0.00     0.021 C
HETATM   25  C12 UNL     1      13.903   1.804  16.634  1.00  0.00     0.021 C
HETATM   26  C13 UNL     1      14.937   2.922  16.734  1.00  0.00     0.126 C
ENDBRANCH  19  22
ENDBRANCH   7  19
TORSDOF 7
ENDMDL