MODEL 2
REMARK VINA RESULT: -7.250632760      1.306      1.523
REMARK  4 active torsions:
REMARK  status: ('A' for Active; 'I' for Inactive)
REMARK    1  A    between atoms: C1_2  and  C2_3
REMARK       I    between atoms: C1_2  and  N1_8
REMARK    2  A    between atoms: C8_11  and  O3_12
REMARK    3  A    between atoms: C8_11  and  C9_14
REMARK    4  A    between atoms: C9_14  and  N2_15
ROOT
HETATM    1  O1  UNL     1      17.852   0.552  16.096  1.00  0.00    -0.270 OA
HETATM    2  C1  UNL     1      17.038   1.522  15.904  1.00  0.00     0.248 C
HETATM    3  N1  UNL     1      16.843   2.013  14.601  1.00  0.00    -0.347 N
HETATM    4  C6  UNL     1      15.958   3.060  14.168  1.00  0.00     0.129 C
HETATM    5  C7  UNL     1      16.845   3.754  13.121  1.00  0.00     0.065 C
HETATM    6  C8  UNL     1      17.155   2.455  12.295  1.00  0.00     0.107 C
HETATM    7  C17 UNL     1      17.536   1.544  13.388  1.00  0.00     0.169 C
ENDROOT
BRANCH   6   8
HETATM    8  O3  UNL     1      15.893   2.129  11.791  1.00  0.00    -0.383 OA
ATOM      9  H3  UNL     1      16.033   1.244  11.476  1.00  0.00     0.211 HD
ENDBRANCH   6   8
BRANCH   6  10
HETATM   10  C9  UNL     1      18.143   2.768  11.238  1.00  0.00     0.102 C
BRANCH  10  11
HETATM   11  N2  UNL     1      19.424   3.059  11.715  1.00  0.00    -0.371 N
HETATM   12  C10 UNL     1      19.810   4.315  12.177  1.00  0.00     0.064 C
HETATM   13  C11 UNL     1      20.503   5.125  11.080  1.00  0.00     0.057 C
HETATM   14  C12 UNL     1      21.692   4.350  10.618  1.00  0.00     0.013 C
HETATM   15  C13 UNL     1      21.249   3.031  10.076  1.00  0.00     0.033 C
HETATM   16  C15 UNL     1      22.668   5.112   9.747  1.00  0.00     0.243 C
HETATM   17  C16 UNL     1      22.849   4.276  11.577  1.00  0.00     0.243 C
HETATM   18  C14 UNL     1      20.486   2.265  11.131  1.00  0.00     0.128 C
HETATM   19  N3  UNL     1      23.762   4.462  10.441  1.00  0.00    -0.074 N
ATOM     20  H32 UNL     1      24.254   3.671  10.026  1.00  0.00     0.277 HD
ATOM     21  H31 UNL     1      24.661   4.930  10.561  1.00  0.00     0.277 HD
ENDBRANCH  10  11
ENDBRANCH   6  10
BRANCH   2  22
HETATM   22  C2  UNL     1      16.370   2.038  17.102  1.00  0.00     0.213 C
HETATM   23  C3  UNL     1      15.941   0.886  17.994  1.00  0.00     0.043 C
HETATM   24  C4  UNL     1      14.515   0.636  17.535  1.00  0.00     0.029 C
HETATM   25  C5  UNL     1      14.122   1.929  16.908  1.00  0.00     0.168 C
HETATM   26  O2  UNL     1      15.223   2.727  16.830  1.00  0.00    -0.376 OA
ENDBRANCH   2  22
TORSDOF 4
ENDMDL