MODEL 3
REMARK VINA RESULT: -7.379434574      2.044      5.664
REMARK  4 active torsions:
REMARK  status: ('A' for Active; 'I' for Inactive)
REMARK       I    between atoms: C1_2  and  N1_3
REMARK    1  A    between atoms: C1_2  and  C8_11
REMARK    2  A    between atoms: N1_3  and  C2_5
REMARK       I    between atoms: C8_11  and  N2_13
REMARK    3  A    between atoms: C11_18  and  O3_19
REMARK    4  A    between atoms: O3_19  and  C12_20
ROOT
HETATM    1  C8  UNL     1      15.334   4.270  15.594  1.00  0.00     0.311 C
HETATM    2  O2  UNL     1      14.675   4.421  16.686  1.00  0.00    -0.262 OA
HETATM    3  N2  UNL     1      15.879   3.014  15.305  1.00  0.00    -0.338 N
HETATM    4  C9  UNL     1      15.701   1.919  16.258  1.00  0.00     0.145 C
HETATM    5  C10 UNL     1      17.081   1.274  16.366  1.00  0.00     0.136 C
HETATM    6  N3  UNL     1      17.373   0.629  15.130  1.00  0.00    -0.394 N
ATOM      7  H3  UNL     1      17.773  -0.309  15.104  1.00  0.00     0.155 HD
HETATM    8  C11 UNL     1      17.089   1.339  13.941  1.00  0.00     0.235 C
HETATM    9  C16 UNL     1      16.605   2.759  14.104  1.00  0.00     0.179 C
ENDROOT
BRANCH   1  10
HETATM   10  C1  UNL     1      15.491   5.392  14.706  1.00  0.00     0.309 C
HETATM   11  O1  UNL     1      14.647   5.667  13.843  1.00  0.00    -0.262 OA
HETATM   12  N1  UNL     1      16.635   6.223  14.804  1.00  0.00    -0.348 N
ATOM     13  H1  UNL     1      17.338   6.012  15.511  1.00  0.00     0.163 HD
BRANCH  12  14
HETATM   14  C2  UNL     1      16.839   7.376  13.925  1.00  0.00     0.084 C
HETATM   15  C3  UNL     1      17.370   8.574  14.672  1.00  0.00     0.025 C
HETATM   16  C4  UNL     1      18.865   8.543  14.839  1.00  0.00     0.002 C
HETATM   17  C5  UNL     1      19.507   8.436  13.471  1.00  0.00     0.000 C
HETATM   18  C6  UNL     1      19.129   7.046  12.952  1.00  0.00     0.002 C
HETATM   19  C7  UNL     1      17.657   7.041  12.710  1.00  0.00     0.025 C
ENDBRANCH  12  14
ENDBRANCH   1  10
BRANCH   8  20
HETATM   20  O3  UNL     1      18.223   1.419  13.096  1.00  0.00    -0.358 OA
BRANCH  20  21
HETATM   21  C12 UNL     1      17.894   1.843  11.816  1.00  0.00     0.150 C
HETATM   22  C13 UNL     1      19.226   2.056  11.099  1.00  0.00     0.060 C
HETATM   23  C14 UNL     1      19.406   0.777  10.306  1.00  0.00     0.170 C
HETATM   24  O4  UNL     1      18.141   0.319  10.051  1.00  0.00    -0.389 OA
HETATM   25  C15 UNL     1      17.258   0.788  10.981  1.00  0.00     0.199 C
ENDBRANCH  20  21
ENDBRANCH   8  20
TORSDOF 4
ENDMDL