MODEL 5
REMARK VINA RESULT: -6.603547093      1.937      5.173
REMARK  5 active torsions:
REMARK  status: ('A' for Active; 'I' for Inactive)
REMARK    1  A    between atoms: N1_4  and  C3_5
REMARK    2  A    between atoms: C3_5  and  C4_6
REMARK    3  A    between atoms: C4_6  and  N2_7
REMARK    4  A    between atoms: N2_7  and  C5_9
REMARK    5  A    between atoms: C5_9  and  N3_11
ROOT
HETATM    1  N2  UNL     1      19.445   4.075  13.688  1.00  0.00    -0.366 N
ATOM      2  H2  UNL     1      20.243   3.713  14.210  1.00  0.00     0.161 HD
ENDROOT
BRANCH   1   3
HETATM    3  C4  UNL     1      19.594   4.202  12.264  1.00  0.00     0.142 C
BRANCH   3   4
HETATM    4  C3  UNL     1      20.222   3.001  11.625  1.00  0.00     0.147 C
BRANCH   4   5
HETATM    5  N1  UNL     1      19.301   2.089  11.052  1.00  0.00    -0.362 N
HETATM    6  C2  UNL     1      19.325   0.757  11.512  1.00  0.00     0.164 C
HETATM    7  C1  UNL     1      18.000   0.071  11.426  1.00  0.00     0.257 C
HETATM    8  O1  UNL     1      17.995  -1.189  11.422  1.00  0.00    -0.267 OA
HETATM    9  N4  UNL     1      16.777   0.790  11.350  1.00  0.00    -0.352 N
HETATM   10  C14 UNL     1      16.856   2.235  11.312  1.00  0.00     0.167 C
ATOM     11  H4  UNL     1      15.879   0.307  11.324  1.00  0.00     0.163 HD
HETATM   12  C13 UNL     1      18.087   2.615  10.569  1.00  0.00     0.083 C
ENDBRANCH   4   5
ENDBRANCH   3   4
ENDBRANCH   1   3
BRANCH   1  13
HETATM   13  C5  UNL     1      18.277   4.410  14.428  1.00  0.00     0.169 C
HETATM   14  S1  UNL     1      17.875   5.981  14.712  1.00  0.00    -0.041 SA
BRANCH  13  15
HETATM   15  N3  UNL     1      17.431   3.388  14.950  1.00  0.00    -0.358 N
HETATM   16  C6  UNL     1      17.792   2.026  14.646  1.00  0.00     0.130 C
HETATM   17  C7  UNL     1      16.967   0.965  15.245  1.00  0.00     0.088 C
HETATM   18  C8  UNL     1      15.886   1.441  16.178  1.00  0.00     0.167 C
HETATM   19  C9  UNL     1      15.236   2.714  15.623  1.00  0.00     0.088 C
HETATM   20  O2  UNL     1      16.515   1.803  17.364  1.00  0.00    -0.353 OA
HETATM   21  O3  UNL     1      14.970   0.467  16.479  1.00  0.00    -0.353 OA
HETATM   22  C10 UNL     1      16.292   3.789  15.735  1.00  0.00     0.130 C
HETATM   23  C11 UNL     1      15.522   1.774  18.316  1.00  0.00     0.197 C
HETATM   24  C12 UNL     1      14.514   0.812  17.747  1.00  0.00     0.197 C
ENDBRANCH  13  15
ENDBRANCH   1  13
TORSDOF 5
ENDMDL