MODEL 1
REMARK VINA RESULT: -5.403739293      0.000      0.000
REMARK  3 active torsions:
REMARK  status: ('A' for Active; 'I' for Inactive)
REMARK    1  A    between atoms: C1_4  and  N2_5
REMARK    2  A    between atoms: N2_5  and  N3_7
REMARK    3  A    between atoms: C2_9  and  C3_10
ROOT
HETATM    1  N3  UNL     1      80.960   5.563 -40.984  1.00  0.00    -0.309 N
ATOM      2  H3  UNL     1      81.467   6.446 -40.915  1.00  0.00     0.186 HD
HETATM    3  C2  UNL     1      79.813   5.463 -40.441  1.00  0.00     0.138 C
ENDROOT
BRANCH   1   4
HETATM    4  N2  UNL     1      81.536   4.510 -41.661  1.00  0.00    -0.297 N
ATOM      5  H2  UNL     1      80.997   4.016 -42.372  1.00  0.00     0.187 HD
BRANCH   4   6
HETATM    6  C1  UNL     1      82.859   4.106 -41.388  1.00  0.00     0.190 C
HETATM    7  N1  UNL     1      83.482   3.271 -42.160  1.00  0.00    -0.394 N
ATOM      8  H12 UNL     1      82.990   2.909 -42.977  1.00  0.00     0.156 HD
ATOM      9  H11 UNL     1      84.439   2.978 -41.962  1.00  0.00     0.156 HD
ENDBRANCH   4   6
ENDBRANCH   1   4
BRANCH   3  10
HETATM   10  C3  UNL     1      79.251   6.602 -39.737  1.00  0.00     0.065 A
HETATM   11  C4  UNL     1      78.337   7.534 -40.188  1.00  0.00     0.119 A
HETATM   12  N4  UNL     1      78.083   8.417 -39.236  1.00  0.00    -0.360 N
HETATM   13  C5  UNL     1      78.814   8.089 -38.157  1.00  0.00     0.180 A
ATOM     14  H4  UNL     1      77.444   9.209 -39.309  1.00  0.00     0.166 HD
HETATM   15  N5  UNL     1      79.526   6.989 -38.453  1.00  0.00    -0.350 N
ATOM     16  H5  UNL     1      80.170   6.516 -37.820  1.00  0.00     0.166 HD
ENDBRANCH   3  10
TORSDOF 3
ENDMDL