MODEL 2
REMARK VINA RESULT: -4.443602653      1.777      4.129
REMARK  3 active torsions:
REMARK  status: ('A' for Active; 'I' for Inactive)
REMARK    1  A    between atoms: C1_4  and  C2_5
REMARK    2  A    between atoms: C2_5  and  N2_6
REMARK    3  A    between atoms: N2_6  and  C3_9
ROOT
HETATM    1  N2  UNL     1      79.711   6.709 -38.496  1.00  0.00    -0.065 N
ATOM      2  H21 UNL     1      80.493   6.098 -38.258  1.00  0.00     0.278 HD
ATOM      3  H22 UNL     1      80.228   7.536 -38.792  1.00  0.00     0.278 HD
ENDROOT
BRANCH   1   4
HETATM    4  C2  UNL     1      78.921   6.992 -37.342  1.00  0.00     0.276 C
BRANCH   4   5
HETATM    5  C1  UNL     1      79.042   8.412 -36.910  1.00  0.00     0.080 C
HETATM    6  N1  UNL     1      80.204   8.948 -36.877  1.00  0.00    -0.410 N
ATOM      7  H12 UNL     1      81.021   8.398 -37.144  1.00  0.00     0.155 HD
ATOM      8  H11 UNL     1      80.287   9.920 -36.581  1.00  0.00     0.155 HD
ENDBRANCH   4   5
ENDBRANCH   1   4
BRANCH   1   9
HETATM    9  C3  UNL     1      78.959   6.171 -39.570  1.00  0.00     0.213 C
HETATM   10  C4  UNL     1      78.286   7.283 -40.385  1.00  0.00     0.062 C
HETATM   11  C5  UNL     1      78.019   6.592 -41.682  1.00  0.00     0.234 C
HETATM   12  N3  UNL     1      78.613   5.266 -41.612  1.00  0.00    -0.073 N
HETATM   13  C6  UNL     1      79.737   5.512 -40.681  1.00  0.00     0.265 C
ATOM     14  H32 UNL     1      77.979   4.513 -41.345  1.00  0.00     0.277 HD
ATOM     15  H31 UNL     1      78.868   4.851 -42.509  1.00  0.00     0.277 HD
ENDBRANCH   1   9
TORSDOF 3
ENDMDL