MODEL 5
REMARK VINA RESULT: -4.394429894      1.376      1.680
REMARK  3 active torsions:
REMARK  status: ('A' for Active; 'I' for Inactive)
REMARK    1  A    between atoms: C1_4  and  N2_5
REMARK    2  A    between atoms: N2_5  and  C2_7
REMARK    3  A    between atoms: C2_7  and  C3_8
ROOT
HETATM    1  C3  UNL     1      79.359   5.041 -39.330  1.00  0.00     0.030 C
HETATM    2  C4  UNL     1      78.337   4.148 -40.049  1.00  0.00     0.035 C
HETATM    3  C5  UNL     1      79.094   3.781 -41.290  1.00  0.00     0.232 C
HETATM    4  N3  UNL     1      80.301   4.588 -41.345  1.00  0.00    -0.075 N
ATOM      5  H31 UNL     1      80.646   4.790 -42.284  1.00  0.00     0.277 HD
ATOM      6  H32 UNL     1      81.151   4.120 -41.032  1.00  0.00     0.277 HD
HETATM    7  C6  UNL     1      79.905   5.767 -40.554  1.00  0.00     0.238 C
ENDROOT
BRANCH   1   8
HETATM    8  C2  UNL     1      78.719   5.932 -38.330  1.00  0.00     0.126 C
BRANCH   8   9
HETATM    9  N2  UNL     1      79.701   6.772 -37.678  1.00  0.00    -0.386 N
ATOM     10  H2  UNL     1      80.592   6.402 -37.346  1.00  0.00     0.160 HD
BRANCH   9  11
HETATM   11  C1  UNL     1      79.356   8.142 -37.525  1.00  0.00     0.168 C
HETATM   12  N1  UNL     1      80.133   8.925 -36.913  1.00  0.00    -0.396 N
ATOM     13  H12 UNL     1      81.006   8.559 -36.534  1.00  0.00     0.156 HD
ATOM     14  H11 UNL     1      79.885   9.908 -36.804  1.00  0.00     0.156 HD
ENDBRANCH   9  11
ENDBRANCH   8   9
ENDBRANCH   1   8
TORSDOF 3
ENDMDL