MODEL 5
REMARK VINA RESULT: -4.508761116      5.346      6.017
REMARK  3 active torsions:
REMARK  status: ('A' for Active; 'I' for Inactive)
REMARK    1  A    between atoms: N1_1  and  C1_5
REMARK    2  A    between atoms: C3_10  and  N3_11
REMARK    3  A    between atoms: N3_11  and  C4_13
ROOT
HETATM    1  C1  UNL     1      77.896   6.358 -40.820  1.00  0.00     0.212 C
HETATM    2  C2  UNL     1      78.849   7.171 -40.002  1.00  0.00     0.267 C
HETATM    3  N2  UNL     1      79.946   6.298 -39.716  1.00  0.00    -0.052 N
ATOM      4  H21 UNL     1      80.554   6.623 -38.964  1.00  0.00     0.279 HD
ATOM      5  H22 UNL     1      80.664   6.280 -40.440  1.00  0.00     0.279 HD
HETATM    6  C3  UNL     1      79.333   5.026 -39.467  1.00  0.00     0.288 C
HETATM    7  C5  UNL     1      78.222   4.926 -40.475  1.00  0.00     0.089 C
ENDROOT
BRANCH   1   8
HETATM    8  N1  UNL     1      78.137   6.654 -42.223  1.00  0.00    -0.073 N
ATOM      9  H13 UNL     1      79.130   6.720 -42.446  1.00  0.00     0.274 HD
ATOM     10  H12 UNL     1      77.911   5.871 -42.836  1.00  0.00     0.274 HD
ATOM     11  H11 UNL     1      77.623   7.502 -42.461  1.00  0.00     0.274 HD
ENDBRANCH   1   8
BRANCH   6  12
HETATM   12  N3  UNL     1      78.866   4.989 -38.104  1.00  0.00    -0.341 N
ATOM     13  H3  UNL     1      79.460   5.400 -37.384  1.00  0.00     0.163 HD
BRANCH  12  14
HETATM   14  C4  UNL     1      77.639   4.418 -37.706  1.00  0.00     0.350 C
HETATM   15  O1  UNL     1      76.676   5.152 -37.406  1.00  0.00    -0.284 OA
ENDBRANCH  12  14
ENDBRANCH   6  12
TORSDOF 3
ENDMDL