MODEL 1
REMARK VINA RESULT: -4.317021609      0.000      0.000
REMARK  3 active torsions:
REMARK  status: ('A' for Active; 'I' for Inactive)
REMARK    1  A    between atoms: N1_2  and  C2_3
REMARK    2  A    between atoms: N1_2  and  C3_8
REMARK    3  A    between atoms: C2_3  and  N2_4
ROOT
HETATM    1  C3  UNL     1      79.191   6.661 -39.628  1.00  0.00     0.107 C
HETATM    2  C4  UNL     1      77.922   7.234 -40.214  1.00  0.00     0.054 C
HETATM    3  C5  UNL     1      78.113   6.770 -41.669  1.00  0.00     0.234 C
HETATM    4  N3  UNL     1      78.616   5.433 -41.533  1.00  0.00    -0.073 N
ATOM      5  H31 UNL     1      79.313   5.206 -42.243  1.00  0.00     0.277 HD
ATOM      6  H32 UNL     1      77.922   4.729 -41.785  1.00  0.00     0.277 HD
HETATM    7  C6  UNL     1      79.120   5.255 -40.188  1.00  0.00     0.257 C
ENDROOT
BRANCH   1   8
HETATM    8  N1  UNL     1      79.323   6.737 -38.223  1.00  0.00    -0.389 N
HETATM    9  C1  UNL     1      78.804   5.597 -37.564  1.00  0.00     0.145 C
BRANCH   8  10
HETATM   10  C2  UNL     1      79.041   8.004 -37.648  1.00  0.00     0.349 C
BRANCH  10  11
HETATM   11  N2  UNL     1      80.179   8.665 -37.081  1.00  0.00    -0.064 N
ATOM     12  H23 UNL     1      81.021   8.106 -37.222  1.00  0.00     0.276 HD
ATOM     13  H22 UNL     1      80.423   9.488 -37.632  1.00  0.00     0.276 HD
ATOM     14  H21 UNL     1      80.078   8.913 -36.098  1.00  0.00     0.276 HD
ENDBRANCH  10  11
ENDBRANCH   8  10
ENDBRANCH   1   8
TORSDOF 3
ENDMDL