MODEL 3
REMARK VINA RESULT: -4.361622351      0.951      1.169
REMARK  3 active torsions:
REMARK  status: ('A' for Active; 'I' for Inactive)
REMARK    1  A    between atoms: C2_2  and  C3_3
REMARK    2  A    between atoms: C3_3  and  N1_4
REMARK    3  A    between atoms: N1_4  and  C4_7
ROOT
HETATM    1  C4  UNL     1      81.540   4.154 -40.529  1.00  0.00     0.213 C
HETATM    2  C5  UNL     1      82.877   4.359 -41.137  1.00  0.00     0.062 C
HETATM    3  C6  UNL     1      83.791   3.251 -40.585  1.00  0.00     0.234 C
HETATM    4  N2  UNL     1      82.849   2.261 -40.132  1.00  0.00    -0.073 N
ATOM      5  H21 UNL     1      83.250   1.599 -39.468  1.00  0.00     0.277 HD
ATOM      6  H22 UNL     1      82.600   1.584 -40.853  1.00  0.00     0.277 HD
HETATM    7  C7  UNL     1      81.715   2.976 -39.607  1.00  0.00     0.265 C
ENDROOT
BRANCH   1   8
HETATM    8  N1  UNL     1      80.524   3.962 -41.508  1.00  0.00    -0.066 N
ATOM      9  H12 UNL     1      80.850   3.379 -42.279  1.00  0.00     0.278 HD
ATOM     10  H11 UNL     1      80.339   4.820 -42.029  1.00  0.00     0.278 HD
BRANCH   8  11
HETATM   11  C3  UNL     1      79.328   3.436 -40.919  1.00  0.00     0.259 C
BRANCH  11  12
HETATM   12  C2  UNL     1      78.385   4.501 -40.512  1.00  0.00    -0.010 C
HETATM   13  C1  UNL     1      77.800   4.564 -39.332  1.00  0.00     0.008 C
ENDBRANCH  11  12
ENDBRANCH   8  11
ENDBRANCH   1   8
TORSDOF 3
ENDMDL