MODEL 2
REMARK VINA RESULT: -4.698868976      5.597      6.860
REMARK  2 active torsions:
REMARK  status: ('A' for Active; 'I' for Inactive)
REMARK    1  A    between atoms: C1_2  and  N1_3
REMARK    2  A    between atoms: N1_3  and  C2_5
ROOT
HETATM    1  C2  UNL     1      82.676   4.099 -41.438  1.00  0.00     0.127 A
HETATM    2  C3  UNL     1      82.571   3.652 -40.107  1.00  0.00     0.141 A
HETATM    3  N2  UNL     1      83.426   2.637 -39.906  1.00  0.00    -0.315 N
ATOM      4  H2  UNL     1      83.561   2.124 -39.036  1.00  0.00     0.170 HD
HETATM    5  C4  UNL     1      84.061   2.429 -41.049  1.00  0.00     0.325 A
HETATM    6  O2  UNL     1      84.950   1.552 -41.261  1.00  0.00    -0.247 OA
HETATM    7  N3  UNL     1      83.611   3.310 -41.975  1.00  0.00    -0.293 N
ATOM      8  H3  UNL     1      83.937   3.362 -42.940  1.00  0.00     0.172 HD
ENDROOT
BRANCH   1   9
HETATM    9  N1  UNL     1      81.907   5.159 -41.968  1.00  0.00    -0.319 N
ATOM     10  H1  UNL     1      80.981   4.949 -42.340  1.00  0.00     0.169 HD
BRANCH   9  11
HETATM   11  C1  UNL     1      82.356   6.492 -42.007  1.00  0.00     0.354 C
HETATM   12  O1  UNL     1      82.490   7.171 -43.048  1.00  0.00    -0.283 OA
ENDBRANCH   9  11
ENDBRANCH   1   9
TORSDOF 2
ENDMDL