MODEL 5
REMARK VINA RESULT: -4.854124945      3.615      4.146
REMARK  3 active torsions:
REMARK  status: ('A' for Active; 'I' for Inactive)
REMARK    1  A    between atoms: N1_1  and  N2_4
REMARK    2  A    between atoms: N2_4  and  C1_5
REMARK    3  A    between atoms: N4_11  and  C5_13
ROOT
HETATM    1  C1  UNL     1      77.868   6.644 -39.746  1.00  0.00     0.167 C
HETATM    2  C2  UNL     1      78.322   5.267 -40.123  1.00  0.00     0.050 C
HETATM    3  C3  UNL     1      78.761   4.697 -38.791  1.00  0.00     0.123 C
HETATM    4  N3  UNL     1      79.557   5.816 -38.269  1.00  0.00    -0.378 N
ATOM      5  H3  UNL     1      80.445   5.776 -37.767  1.00  0.00     0.160 HD
HETATM    6  C4  UNL     1      78.802   6.974 -38.624  1.00  0.00     0.100 C
HETATM    7  N4  UNL     1      78.882   8.150 -38.084  1.00  0.00    -0.323 N
ATOM      8  H4  UNL     1      78.283   8.898 -38.434  1.00  0.00     0.169 HD
ENDROOT
BRANCH   1   9
HETATM    9  N2  UNL     1      78.059   7.506 -40.880  1.00  0.00    -0.136 NA
BRANCH   9  10
HETATM   10  N1  UNL     1      78.151   6.785 -42.041  1.00  0.00    -0.348 N
ATOM     11  H12 UNL     1      77.393   6.713 -42.720  1.00  0.00     0.172 HD
ATOM     12  H11 UNL     1      79.064   6.339 -42.128  1.00  0.00     0.172 HD
ENDBRANCH   9  10
ENDBRANCH   1   9
BRANCH   7  13
HETATM   13  C5  UNL     1      79.773   8.426 -37.030  1.00  0.00     0.354 C
HETATM   14  O1  UNL     1      79.773   9.561 -36.513  1.00  0.00    -0.283 OA
ENDBRANCH   7  13
TORSDOF 3
ENDMDL