MODEL 3
REMARK VINA RESULT: -4.059160180      4.514      5.683
REMARK  3 active torsions:
REMARK  status: ('A' for Active; 'I' for Inactive)
REMARK    1  A    between atoms: N2_3  and  C2_5
REMARK    2  A    between atoms: C2_5  and  C3_6
REMARK    3  A    between atoms: C5_9  and  N3_10
ROOT
HETATM    1  C3  UNL     1      80.693   4.497 -40.268  1.00  0.00     0.171 C
HETATM    2  O1  UNL     1      79.594   4.895 -41.047  1.00  0.00    -0.380 OA
HETATM    3  C4  UNL     1      79.220   3.560 -41.154  1.00  0.00     0.203 C
HETATM    4  C5  UNL     1      79.956   3.261 -39.885  1.00  0.00     0.237 C
ENDROOT
BRANCH   1   5
HETATM    5  C2  UNL     1      81.901   4.332 -41.134  1.00  0.00     0.154 C
BRANCH   5   6
HETATM    6  N2  UNL     1      83.121   4.729 -40.507  1.00  0.00    -0.386 N
HETATM    7  C1  UNL     1      83.998   3.852 -40.200  1.00  0.00     0.185 C
HETATM    8  N1  UNL     1      83.786   2.484 -40.468  1.00  0.00    -0.097 NA
ATOM      9  H2  UNL     1      83.293   5.713 -40.304  1.00  0.00     0.159 HD
ENDBRANCH   5   6
ENDBRANCH   1   5
BRANCH   4  10
HETATM   10  N3  UNL     1      80.771   2.071 -39.896  1.00  0.00    -0.070 N
ATOM     11  H33 UNL     1      81.650   2.242 -40.385  1.00  0.00     0.274 HD
ATOM     12  H32 UNL     1      81.130   1.872 -38.963  1.00  0.00     0.274 HD
ATOM     13  H31 UNL     1      80.298   1.254 -40.282  1.00  0.00     0.274 HD
ENDBRANCH   4  10
TORSDOF 3
ENDMDL