MODEL 3
REMARK VINA RESULT: -3.999447489      1.597      3.442
REMARK  4 active torsions:
REMARK  status: ('A' for Active; 'I' for Inactive)
REMARK    1  A    between atoms: N1_1  and  C1_4
REMARK    2  A    between atoms: N3_9  and  C4_10
REMARK    3  A    between atoms: C4_10  and  C5_11
REMARK    4  A    between atoms: C5_11  and  N4_12
ROOT
HETATM    1  C1  UNL     1     -22.364  23.181 -26.182  1.00  0.00     0.677 A
HETATM    2  N2  UNL     1     -22.656  24.490 -26.274  1.00  0.00    -0.201 N
ATOM      3  H2  UNL     1     -22.632  25.034 -27.137  1.00  0.00     0.183 HD
HETATM    4  C2  UNL     1     -22.984  24.977 -25.061  1.00  0.00     0.124 A
HETATM    5  C3  UNL     1     -22.881  23.908 -24.213  1.00  0.00     0.126 A
HETATM    6  N3  UNL     1     -22.504  22.820 -24.907  1.00  0.00    -0.191 N
ENDROOT
BRANCH   6   7
HETATM    7  C4  UNL     1     -22.298  21.517 -24.339  1.00  0.00     0.174 C
BRANCH   7   8
HETATM    8  C5  UNL     1     -23.518  21.128 -23.498  1.00  0.00     0.250 C
BRANCH   8   9
HETATM    9  N4  UNL     1     -23.500  19.695 -23.358  1.00  0.00    -0.078 N
ATOM     10  H43 UNL     1     -24.001  19.214 -24.105  1.00  0.00     0.274 HD
ATOM     11  H42 UNL     1     -22.581  19.288 -23.532  1.00  0.00     0.274 HD
ATOM     12  H41 UNL     1     -23.863  19.478 -22.431  1.00  0.00     0.274 HD
ENDBRANCH   8   9
ENDBRANCH   7   8
ENDBRANCH   6   7
BRANCH   1  13
HETATM   13  N1  UNL     1     -22.009  22.416 -27.186  1.00  0.00    -0.234 N
ATOM     14  H12 UNL     1     -21.187  22.525 -27.781  1.00  0.00     0.174 HD
ATOM     15  H11 UNL     1     -22.520  21.594 -27.506  1.00  0.00     0.174 HD
ENDBRANCH   1  13
TORSDOF 4
ENDMDL