MODEL 4
REMARK VINA RESULT: -3.609473199      0.957      2.811
REMARK  3 active torsions:
REMARK  status: ('A' for Active; 'I' for Inactive)
REMARK    1  A    between atoms: N1_2  and  C2_5
REMARK    2  A    between atoms: C2_5  and  C3_6
REMARK    3  A    between atoms: C3_6  and  N2_7
ROOT
HETATM    1  C2  UNL     1     -22.479  23.073 -24.983  1.00  0.00     0.195 C
HETATM    2  C4  UNL     1     -23.036  23.247 -26.363  1.00  0.00     0.274 C
HETATM    3  N3  UNL     1     -21.773  22.946 -26.974  1.00  0.00    -0.070 N
ATOM      4  H31 UNL     1     -21.416  23.529 -27.732  1.00  0.00     0.277 HD
ATOM      5  H32 UNL     1     -21.671  22.123 -27.567  1.00  0.00     0.277 HD
HETATM    6  C5  UNL     1     -21.147  22.987 -25.663  1.00  0.00     0.274 C
ENDROOT
BRANCH   1   7
HETATM    7  N1  UNL     1     -22.697  24.236 -24.163  1.00  0.00    -0.065 N
HETATM    8  C1  UNL     1     -23.991  24.839 -24.377  1.00  0.00     0.268 C
ATOM      9  H12 UNL     1     -21.950  24.919 -24.293  1.00  0.00     0.277 HD
ATOM     10  H11 UNL     1     -22.554  24.019 -23.177  1.00  0.00     0.277 HD
ENDBRANCH   1   7
BRANCH   1  11
HETATM   11  C3  UNL     1     -22.814  21.807 -24.270  1.00  0.00     0.271 C
BRANCH  11  12
HETATM   12  N2  UNL     1     -21.622  20.951 -24.328  1.00  0.00    -0.077 N
ATOM     13  H23 UNL     1     -21.708  20.107 -23.763  1.00  0.00     0.274 HD
ATOM     14  H22 UNL     1     -21.502  20.492 -25.232  1.00  0.00     0.274 HD
ATOM     15  H21 UNL     1     -20.824  21.529 -24.065  1.00  0.00     0.274 HD
ENDBRANCH  11  12
ENDBRANCH   1  11
TORSDOF 3
ENDMDL