MODEL 2
REMARK VINA RESULT: -3.646224215      1.558      1.723
REMARK  3 active torsions:
REMARK  status: ('A' for Active; 'I' for Inactive)
REMARK    1  A    between atoms: N1_1  and  C1_5
REMARK    2  A    between atoms: C1_5  and  C2_6
REMARK    3  A    between atoms: C2_6  and  N2_7
ROOT
HETATM    1  N2  UNL     1     -23.804  23.586 -25.525  1.00  0.00     0.117 N
HETATM    2  C3  UNL     1     -24.493  22.793 -24.519  1.00  0.00     0.302 C
HETATM    3  C4  UNL     1     -25.200  23.854 -23.710  1.00  0.00     0.264 C
HETATM    4  N3  UNL     1     -24.513  25.095 -23.979  1.00  0.00    -0.047 N
ATOM      5  H31 UNL     1     -24.271  25.622 -23.140  1.00  0.00     0.279 HD
ATOM      6  H32 UNL     1     -25.106  25.810 -24.401  1.00  0.00     0.279 HD
HETATM    7  C5  UNL     1     -23.350  24.725 -24.803  1.00  0.00     0.502 C
ENDROOT
BRANCH   1   8
HETATM    8  C2  UNL     1     -22.809  22.763 -26.122  1.00  0.00     0.301 C
BRANCH   8   9
HETATM    9  C1  UNL     1     -21.645  23.500 -26.729  1.00  0.00     0.259 C
BRANCH   9  10
HETATM   10  N1  UNL     1     -21.001  22.790 -27.789  1.00  0.00    -0.078 N
ATOM     11  H13 UNL     1     -21.428  21.873 -27.918  1.00  0.00     0.274 HD
ATOM     12  H12 UNL     1     -21.223  23.212 -28.690  1.00  0.00     0.274 HD
ATOM     13  H11 UNL     1     -19.992  22.704 -27.672  1.00  0.00     0.274 HD
ENDBRANCH   9  10
ENDBRANCH   8   9
ENDBRANCH   1   8
TORSDOF 3
ENDMDL