MODEL 3
REMARK VINA RESULT: -4.404665889      2.079      2.186
REMARK  3 active torsions:
REMARK  status: ('A' for Active; 'I' for Inactive)
REMARK    1  A    between atoms: C3_7  and  N3_8
REMARK    2  A    between atoms: N3_8  and  C4_10
REMARK    3  A    between atoms: C4_10  and  N4_11
ROOT
HETATM    1  C1  UNL     1     -23.542  20.320 -23.302  1.00  0.00     0.091 C
HETATM    2  C2  UNL     1     -22.902  21.459 -24.019  1.00  0.00     0.108 A
HETATM    3  N1  UNL     1     -23.105  22.779 -23.863  1.00  0.00    -0.275 N
ATOM      4  H1  UNL     1     -23.761  23.184 -23.195  1.00  0.00     0.189 HD
HETATM    5  N2  UNL     1     -22.347  23.483 -24.685  1.00  0.00    -0.131 N
ATOM      6  H2  UNL     1     -22.313  24.500 -24.762  1.00  0.00     0.205 HD
HETATM    7  C3  UNL     1     -21.621  22.594 -25.404  1.00  0.00     0.695 A
HETATM    8  N5  UNL     1     -21.972  21.365 -24.986  1.00  0.00    -0.178 N
ATOM      9  H5  UNL     1     -21.589  20.492 -25.348  1.00  0.00     0.185 HD
ENDROOT
BRANCH   7  10
HETATM   10  N3  UNL     1     -20.755  22.888 -26.322  1.00  0.00    -0.201 N
ATOM     11  H3  UNL     1     -19.764  22.967 -26.093  1.00  0.00     0.179 HD
BRANCH  10  12
HETATM   12  C4  UNL     1     -21.212  23.099 -27.671  1.00  0.00     0.368 C
BRANCH  12  13
HETATM   13  N4  UNL     1     -20.376  22.493 -28.653  1.00  0.00    -0.063 N
ATOM     14  H43 UNL     1     -20.222  21.508 -28.440  1.00  0.00     0.276 HD
ATOM     15  H42 UNL     1     -20.870  22.398 -29.541  1.00  0.00     0.276 HD
ATOM     16  H41 UNL     1     -19.488  22.978 -28.784  1.00  0.00     0.276 HD
ENDBRANCH  12  13
ENDBRANCH  10  12
ENDBRANCH   7  10
TORSDOF 3
ENDMDL