MODEL 5
REMARK VINA RESULT: -3.887244340      2.211      3.676
REMARK  3 active torsions:
REMARK  status: ('A' for Active; 'I' for Inactive)
REMARK    1  A    between atoms: N1_1  and  C1_5
REMARK    2  A    between atoms: C1_5  and  C2_6
REMARK    3  A    between atoms: C4_8  and  N2_9
ROOT
HETATM    1  C2  UNL     1     -23.052  21.531 -23.754  1.00  0.00     0.213 C
HETATM    2  C3  UNL     1     -23.816  22.471 -24.665  1.00  0.00     0.069 C
HETATM    3  C4  UNL     1     -22.718  23.522 -24.881  1.00  0.00     0.211 C
HETATM    4  C5  UNL     1     -21.535  22.604 -25.157  1.00  0.00     0.265 C
HETATM    5  N3  UNL     1     -21.810  21.362 -24.473  1.00  0.00    -0.067 N
ATOM      6  H31 UNL     1     -21.819  20.556 -25.099  1.00  0.00     0.277 HD
ATOM      7  H32 UNL     1     -21.041  21.058 -23.875  1.00  0.00     0.277 HD
ENDROOT
BRANCH   1   8
HETATM    8  C1  UNL     1     -23.782  20.234 -23.539  1.00  0.00     0.262 C
BRANCH   8   9
HETATM    9  N1  UNL     1     -22.892  19.108 -23.416  1.00  0.00    -0.077 N
ATOM     10  H13 UNL     1     -23.286  18.280 -23.863  1.00  0.00     0.274 HD
ATOM     11  H12 UNL     1     -22.063  19.231 -23.998  1.00  0.00     0.274 HD
ATOM     12  H11 UNL     1     -22.633  18.914 -22.449  1.00  0.00     0.274 HD
ENDBRANCH   8   9
ENDBRANCH   1   8
BRANCH   3  13
HETATM   13  N2  UNL     1     -22.974  24.367 -25.990  1.00  0.00    -0.073 N
ATOM     14  H23 UNL     1     -22.336  24.164 -26.759  1.00  0.00     0.274 HD
ATOM     15  H22 UNL     1     -23.858  24.124 -26.438  1.00  0.00     0.274 HD
ATOM     16  H21 UNL     1     -22.949  25.358 -25.748  1.00  0.00     0.274 HD
ENDBRANCH   3  13
TORSDOF 3
ENDMDL