MODEL 2
REMARK VINA RESULT: -3.809506789      1.224      1.364
REMARK  5 active torsions:
REMARK  status: ('A' for Active; 'I' for Inactive)
REMARK    1  A    between atoms: N1_1  and  C1_5
REMARK    2  A    between atoms: C1_5  and  C2_6
REMARK    3  A    between atoms: C3_7  and  N2_8
REMARK    4  A    between atoms: C4_12  and  C5_13
REMARK    5  A    between atoms: C5_13  and  N3_14
ROOT
HETATM    1  C2  UNL     1     -22.871  23.046 -26.160  1.00  0.00     0.049 A
HETATM    2  C3  UNL     1     -22.896  22.058 -25.073  1.00  0.00     0.195 A
HETATM    3  C4  UNL     1     -23.175  23.479 -24.727  1.00  0.00     0.049 A
ENDROOT
BRANCH   1   4
HETATM    4  C1  UNL     1     -21.616  23.568 -26.768  1.00  0.00     0.236 C
BRANCH   4   5
HETATM    5  N1  UNL     1     -21.207  22.652 -27.818  1.00  0.00    -0.079 N
ATOM      6  H13 UNL     1     -20.482  22.003 -27.513  1.00  0.00     0.274 HD
ATOM      7  H12 UNL     1     -21.925  21.962 -28.040  1.00  0.00     0.274 HD
ATOM      8  H11 UNL     1     -20.926  23.204 -28.629  1.00  0.00     0.274 HD
ENDBRANCH   4   5
ENDBRANCH   1   4
BRANCH   2   9
HETATM    9  N2  UNL     1     -21.712  21.493 -24.494  1.00  0.00    -0.074 N
ATOM     10  H23 UNL     1     -21.598  21.909 -23.570  1.00  0.00     0.274 HD
ATOM     11  H22 UNL     1     -21.918  20.519 -24.274  1.00  0.00     0.274 HD
ATOM     12  H21 UNL     1     -20.800  21.515 -24.950  1.00  0.00     0.274 HD
ENDBRANCH   2   9
BRANCH   3  13
HETATM   13  C5  UNL     1     -24.600  23.925 -24.479  1.00  0.00     0.236 C
BRANCH  13  14
HETATM   14  N3  UNL     1     -24.653  25.238 -23.903  1.00  0.00    -0.079 N
ATOM     15  H33 UNL     1     -25.511  25.374 -23.368  1.00  0.00     0.274 HD
ATOM     16  H32 UNL     1     -23.976  25.339 -23.147  1.00  0.00     0.274 HD
ATOM     17  H31 UNL     1     -24.536  25.964 -24.609  1.00  0.00     0.274 HD
ENDBRANCH  13  14
ENDBRANCH   3  13
TORSDOF 5
ENDMDL