MODEL 3
REMARK VINA RESULT: -4.079542611      1.060      1.779
REMARK  3 active torsions:
REMARK  status: ('A' for Active; 'I' for Inactive)
REMARK    1  A    between atoms: C2_2  and  N1_3
REMARK    2  A    between atoms: N1_3  and  C3_5
REMARK    3  A    between atoms: C5_10  and  N3_11
ROOT
HETATM    1  C3  UNL     1     -22.641  22.861 -23.928  1.00  0.00     0.160 C
HETATM    2  C4  UNL     1     -23.105  21.442 -23.657  1.00  0.00     0.263 C
HETATM    3  N2  UNL     1     -21.936  21.042 -24.462  1.00  0.00    -0.042 N
ATOM      4  H21 UNL     1     -21.880  20.126 -24.906  1.00  0.00     0.279 HD
ATOM      5  H22 UNL     1     -21.030  20.850 -24.033  1.00  0.00     0.279 HD
HETATM    6  C5  UNL     1     -22.175  22.241 -25.226  1.00  0.00     0.403 C
ENDROOT
BRANCH   1   7
HETATM    7  N1  UNL     1     -23.675  23.817 -24.169  1.00  0.00    -0.412 N
ATOM      8  H1  UNL     1     -23.547  24.816 -24.009  1.00  0.00     0.153 HD
BRANCH   7   9
HETATM    9  C2  UNL     1     -24.912  23.260 -24.657  1.00  0.00     0.110 C
HETATM   10  C1  UNL     1     -26.038  23.887 -23.846  1.00  0.00     0.026 C
ENDBRANCH   7   9
ENDBRANCH   1   7
BRANCH   6  11
HETATM   11  N3  UNL     1     -21.016  22.854 -25.820  1.00  0.00    -0.048 N
ATOM     12  H33 UNL     1     -21.302  23.566 -26.493  1.00  0.00     0.276 HD
ATOM     13  H32 UNL     1     -20.538  23.438 -25.134  1.00  0.00     0.276 HD
ATOM     14  H31 UNL     1     -20.355  22.210 -26.253  1.00  0.00     0.276 HD
ENDBRANCH   6  11
TORSDOF 3
ENDMDL