MODEL 1
REMARK VINA RESULT: -5.037808059      0.000      0.000
REMARK  3 active torsions:
REMARK  status: ('A' for Active; 'I' for Inactive)
REMARK    1  A    between atoms: C2_2  and  N1_3
REMARK    2  A    between atoms: N1_3  and  N2_5
REMARK    3  A    between atoms: N2_5  and  C3_7
ROOT
HETATM    1  C3  UNL     1     -22.793  21.603 -24.143  1.00  0.00     0.725 A
HETATM    2  N3  UNL     1     -23.846  20.989 -23.575  1.00  0.00    -0.117 N
ATOM      3  H3  UNL     1     -24.741  21.412 -23.332  1.00  0.00     0.207 HD
HETATM    4  N4  UNL     1     -23.494  19.732 -23.393  1.00  0.00    -0.211 N
ATOM      5  H4  UNL     1     -24.075  19.003 -22.980  1.00  0.00     0.206 HD
HETATM    6  N5  UNL     1     -22.258  19.581 -23.838  1.00  0.00     0.009 NA
HETATM    7  N6  UNL     1     -21.790  20.724 -24.311  1.00  0.00    -0.112 N
ATOM      8  H6  UNL     1     -20.870  20.900 -24.716  1.00  0.00     0.203 HD
ENDROOT
BRANCH   1   9
HETATM    9  N2  UNL     1     -22.780  22.842 -24.462  1.00  0.00    -0.134 N
ATOM     10  H2  UNL     1     -21.903  23.352 -24.362  1.00  0.00     0.205 HD
BRANCH   9  11
HETATM   11  N1  UNL     1     -23.888  23.537 -24.935  1.00  0.00    -0.323 N
ATOM     12  H1  UNL     1     -24.203  23.373 -25.892  1.00  0.00     0.180 HD
BRANCH  11  13
HETATM   13  C2  UNL     1     -24.602  24.476 -24.121  1.00  0.00     0.135 C
HETATM   14  C1  UNL     1     -26.012  23.989 -23.794  1.00  0.00     0.028 C
ENDBRANCH  11  13
ENDBRANCH   9  11
ENDBRANCH   1   9
TORSDOF 3
ENDMDL