MODEL 3
REMARK VINA RESULT: -3.857322472      1.615      3.704
REMARK  3 active torsions:
REMARK  status: ('A' for Active; 'I' for Inactive)
REMARK    1  A    between atoms: N1_1  and  C1_5
REMARK    2  A    between atoms: C1_5  and  C2_6
REMARK    3  A    between atoms: C2_6  and  C3_7
ROOT
HETATM    1  C3  UNL     1     -23.621  22.760 -25.461  1.00  0.00     0.384 C
HETATM    2  N2  UNL     1     -22.270  22.283 -25.780  1.00  0.00    -0.044 N
ATOM      3  H21 UNL     1     -22.245  21.407 -26.302  1.00  0.00     0.279 HD
ATOM      4  H22 UNL     1     -21.742  21.944 -24.975  1.00  0.00     0.279 HD
HETATM    5  C4  UNL     1     -21.664  23.398 -26.460  1.00  0.00     0.262 C
HETATM    6  C5  UNL     1     -22.569  24.583 -26.250  1.00  0.00     0.262 C
HETATM    7  N3  UNL     1     -23.536  24.156 -25.234  1.00  0.00    -0.044 N
ATOM      8  H31 UNL     1     -23.300  24.421 -24.278  1.00  0.00     0.279 HD
ATOM      9  H32 UNL     1     -24.429  24.649 -25.255  1.00  0.00     0.279 HD
ENDROOT
BRANCH   1  10
HETATM   10  C2  UNL     1     -24.101  21.948 -24.299  1.00  0.00     0.089 C
BRANCH  10  11
HETATM   11  C1  UNL     1     -23.085  21.011 -23.737  1.00  0.00     0.233 C
BRANCH  11  12
HETATM   12  N1  UNL     1     -23.740  19.753 -23.346  1.00  0.00    -0.079 N
ATOM     13  H13 UNL     1     -24.714  19.716 -23.646  1.00  0.00     0.274 HD
ATOM     14  H12 UNL     1     -23.393  18.957 -23.880  1.00  0.00     0.274 HD
ATOM     15  H11 UNL     1     -23.641  19.616 -22.340  1.00  0.00     0.274 HD
ENDBRANCH  11  12
ENDBRANCH  10  11
ENDBRANCH   1  10
TORSDOF 3
ENDMDL