MODEL 2
REMARK VINA RESULT: -6.603171167      3.020      4.313
REMARK  5 active torsions:
REMARK  status: ('A' for Active; 'I' for Inactive)
REMARK    1  A    between atoms: C2_2  and  C3_3
REMARK    2  A    between atoms: C2_2  and  C5_5
REMARK    3  A    between atoms: C12_12  and  C13_13
REMARK    4  A    between atoms: C13_13  and  C15_15
REMARK    5  A    between atoms: C15_15  and  N1_18
ROOT
HETATM    1  C5  UNL     1      65.697  47.959  32.310  1.00  0.00     0.022 C
HETATM    2  C6  UNL     1      66.643  47.615  31.141  1.00  0.00     0.010 C
HETATM    3  C7  UNL     1      65.812  47.669  29.876  1.00  0.00     0.007 C
HETATM    4  C8  UNL     1      64.456  47.425  30.431  1.00  0.00     0.002 C
HETATM    5  C9  UNL     1      63.306  47.547  29.498  1.00  0.00    -0.039 C
HETATM    6  C10 UNL     1      63.675  46.644  28.297  1.00  0.00     0.015 C
HETATM    7  C11 UNL     1      63.126  48.885  28.861  1.00  0.00     0.015 C
HETATM    8  C12 UNL     1      62.100  47.019  30.240  1.00  0.00    -0.000 C
HETATM    9  C18 UNL     1      62.302  46.914  31.705  1.00  0.00     0.006 C
HETATM   10  C19 UNL     1      63.125  48.062  32.305  1.00  0.00     0.010 C
HETATM   11  C20 UNL     1      64.437  48.250  31.683  1.00  0.00    -0.032 C
HETATM   12  C21 UNL     1      64.509  49.770  31.359  1.00  0.00     0.016 C
ENDROOT
BRANCH   8  13
HETATM   13  C13 UNL     1      60.782  47.370  29.699  1.00  0.00     0.021 C
HETATM   14  C14 UNL     1      60.816  47.916  28.287  1.00  0.00     0.013 C
BRANCH  13  15
HETATM   15  C15 UNL     1      59.635  46.454  29.791  1.00  0.00     0.120 C
HETATM   16  C16 UNL     1      58.834  46.859  31.045  1.00  0.00     0.046 C
HETATM   17  C17 UNL     1      58.662  46.550  28.636  1.00  0.00     0.046 C
BRANCH  15  18
HETATM   18  N1  UNL     1      59.989  45.073  30.101  1.00  0.00    -0.071 N
ATOM     19  H13 UNL     1      61.001  44.949  30.065  1.00  0.00     0.275 HD
ATOM     20  H12 UNL     1      59.823  44.876  31.088  1.00  0.00     0.275 HD
ATOM     21  H11 UNL     1      59.525  44.377  29.517  1.00  0.00     0.275 HD
ENDBRANCH  15  18
ENDBRANCH  13  15
ENDBRANCH   8  13
BRANCH   1  22
HETATM   22  C2  UNL     1      65.984  47.018  33.351  1.00  0.00    -0.085 C
HETATM   23  C1  UNL     1      66.575  45.857  33.401  1.00  0.00     0.014 C
BRANCH  22  24
HETATM   24  C3  UNL     1      65.500  47.454  34.719  1.00  0.00     0.029 C
HETATM   25  C4  UNL     1      65.996  48.906  34.841  1.00  0.00     0.010 C
ENDBRANCH  22  24
ENDBRANCH   1  22
TORSDOF 5
ENDMDL