MODEL 2
REMARK VINA RESULT: -7.955468021      0.640      1.305
REMARK  6 active torsions:
REMARK  status: ('A' for Active; 'I' for Inactive)
REMARK    1  A    between atoms: C2_2  and  C3_3
REMARK    2  A    between atoms: C3_3  and  C4_4
REMARK    3  A    between atoms: C4_4  and  C5_5
REMARK    4  A    between atoms: C5_5  and  C6_6
REMARK    5  A    between atoms: C6_6  and  C8_8
REMARK    6  A    between atoms: C15_15  and  N1_17
ROOT
HETATM    1  C8  UNL     1      63.646  47.593  28.676  1.00  0.00    -0.002 C
HETATM    2  C9  UNL     1      63.858  46.076  28.871  1.00  0.00     0.006 C
HETATM    3  C10 UNL     1      65.359  45.994  28.970  1.00  0.00     0.006 C
HETATM    4  C11 UNL     1      65.843  47.304  29.434  1.00  0.00    -0.002 C
HETATM    5  C12 UNL     1      66.738  47.339  30.591  1.00  0.00    -0.003 C
HETATM    6  C13 UNL     1      67.966  46.488  30.506  1.00  0.00     0.008 C
HETATM    7  C14 UNL     1      68.321  46.163  31.943  1.00  0.00     0.039 C
HETATM    8  C15 UNL     1      67.210  46.741  32.803  1.00  0.00     0.124 C
HETATM    9  C16 UNL     1      67.603  48.062  33.409  1.00  0.00     0.046 C
HETATM   10  C17 UNL     1      66.069  46.821  31.858  1.00  0.00     0.025 C
HETATM   11  C18 UNL     1      65.039  47.868  32.207  1.00  0.00     0.008 C
HETATM   12  C19 UNL     1      64.042  47.959  31.096  1.00  0.00     0.010 C
HETATM   13  C20 UNL     1      64.587  48.110  29.723  1.00  0.00    -0.036 C
HETATM   14  C21 UNL     1      64.878  49.576  29.488  1.00  0.00     0.016 C
ENDROOT
BRANCH   1  15
HETATM   15  C6  UNL     1      62.188  47.896  28.912  1.00  0.00    -0.014 C
HETATM   16  C7  UNL     1      61.661  48.817  27.866  1.00  0.00     0.010 C
BRANCH  15  17
HETATM   17  C5  UNL     1      61.353  46.639  28.928  1.00  0.00     0.005 C
BRANCH  17  18
HETATM   18  C4  UNL     1      59.912  46.984  29.136  1.00  0.00     0.000 C
BRANCH  18  19
HETATM   19  C3  UNL     1      59.336  46.417  30.422  1.00  0.00    -0.000 C
BRANCH  19  20
HETATM   20  C2  UNL     1      60.447  45.845  31.258  1.00  0.00    -0.005 C
HETATM   21  C1  UNL     1      60.881  46.838  32.337  1.00  0.00     0.005 C
ENDBRANCH  19  20
ENDBRANCH  18  19
ENDBRANCH  17  18
ENDBRANCH  15  17
ENDBRANCH   1  15
BRANCH   8  22
HETATM   22  N1  UNL     1      66.990  45.812  33.904  1.00  0.00    -0.070 N
ATOM     23  H13 UNL     1      66.020  45.507  33.982  1.00  0.00     0.275 HD
ATOM     24  H12 UNL     1      67.405  44.895  33.741  1.00  0.00     0.275 HD
ATOM     25  H11 UNL     1      67.336  46.261  34.752  1.00  0.00     0.275 HD
ENDBRANCH   8  22
TORSDOF 6
ENDMDL