MODEL 5
REMARK VINA RESULT: -6.561670816      1.722      2.353
REMARK  4 active torsions:
REMARK  status: ('A' for Active; 'I' for Inactive)
REMARK    1  A    between atoms: C2_2  and  C3_3
REMARK    2  A    between atoms: C3_3  and  C5_5
REMARK    3  A    between atoms: C5_5  and  C6_6
REMARK    4  A    between atoms: C6_6  and  C7_7
ROOT
HETATM    1  C7  UNL     1      63.254  48.321  29.024  1.00  0.00     0.002 C
HETATM    2  C8  UNL     1      63.943  48.650  27.707  1.00  0.00    -0.043 C
HETATM    3  C9  UNL     1      64.174  47.454  26.844  1.00  0.00     0.015 C
HETATM    4  C10 UNL     1      62.997  49.581  26.940  1.00  0.00     0.015 C
HETATM    5  C11 UNL     1      65.221  49.388  27.878  1.00  0.00     0.010 C
HETATM    6  C12 UNL     1      66.163  48.398  28.567  1.00  0.00     0.007 C
HETATM    7  C13 UNL     1      65.627  48.248  29.954  1.00  0.00     0.004 C
HETATM    8  C14 UNL     1      66.428  47.240  30.750  1.00  0.00    -0.011 C
HETATM    9  C15 UNL     1      66.725  47.625  32.154  1.00  0.00     0.039 C
HETATM   10  C16 UNL     1      68.113  47.030  32.440  1.00  0.00     0.233 C
HETATM   11  N1  UNL     1      68.470  46.276  31.277  1.00  0.00    -0.074 N
ATOM     12  H11 UNL     1      68.209  45.291  31.303  1.00  0.00     0.277 HD
ATOM     13  H12 UNL     1      69.469  46.108  31.160  1.00  0.00     0.277 HD
HETATM   14  C17 UNL     1      67.840  47.061  30.201  1.00  0.00     0.242 C
HETATM   15  C18 UNL     1      65.620  45.995  30.647  1.00  0.00     0.012 C
HETATM   16  C19 UNL     1      64.194  46.408  30.379  1.00  0.00     0.011 C
HETATM   17  C20 UNL     1      64.206  47.871  30.090  1.00  0.00    -0.035 C
HETATM   18  C21 UNL     1      63.768  48.543  31.425  1.00  0.00     0.016 C
ENDROOT
BRANCH   1  19
HETATM   19  C6  UNL     1      62.160  47.414  28.639  1.00  0.00     0.006 C
BRANCH  19  20
HETATM   20  C5  UNL     1      60.773  47.829  28.490  1.00  0.00     0.005 C
BRANCH  20  21
HETATM   21  C3  UNL     1      59.736  47.262  29.385  1.00  0.00    -0.019 C
HETATM   22  C4  UNL     1      58.613  46.578  28.630  1.00  0.00     0.010 C
BRANCH  21  23
HETATM   23  C2  UNL     1      60.405  46.135  30.194  1.00  0.00    -0.000 C
HETATM   24  C1  UNL     1      60.624  46.525  31.617  1.00  0.00     0.005 C
ENDBRANCH  21  23
ENDBRANCH  20  21
ENDBRANCH  19  20
ENDBRANCH   1  19
TORSDOF 4
ENDMDL