MODEL 4
REMARK VINA RESULT: -7.083482036      2.513      6.060
REMARK  4 active torsions:
REMARK  status: ('A' for Active; 'I' for Inactive)
REMARK    1  A    between atoms: C2_2  and  C4_4
REMARK    2  A    between atoms: C8_8  and  C10_10
REMARK    3  A    between atoms: C10_10  and  C11_11
REMARK    4  A    between atoms: C11_11  and  C12_12
ROOT
HETATM    1  C4  UNL     1      61.445  46.778  30.073  1.00  0.00    -0.002 C
HETATM    2  C5  UNL     1      61.259  46.605  31.585  1.00  0.00     0.006 C
HETATM    3  C6  UNL     1      62.283  47.545  32.183  1.00  0.00     0.006 C
HETATM    4  C7  UNL     1      63.418  47.338  31.196  1.00  0.00     0.003 C
HETATM    5  C8  UNL     1      64.322  48.526  31.298  1.00  0.00    -0.036 C
HETATM    6  C9  UNL     1      63.785  49.576  32.265  1.00  0.00     0.016 C
HETATM    7  C15 UNL     1      64.283  49.140  29.948  1.00  0.00    -0.005 C
HETATM    8  C16 UNL     1      65.312  48.656  29.017  1.00  0.00     0.005 C
HETATM    9  C17 UNL     1      64.811  48.383  27.617  1.00  0.00     0.000 C
HETATM   10  C18 UNL     1      63.933  47.191  27.583  1.00  0.00     0.001 C
HETATM   11  C19 UNL     1      63.621  46.563  28.903  1.00  0.00     0.010 C
HETATM   12  C20 UNL     1      62.742  47.382  29.815  1.00  0.00    -0.032 C
HETATM   13  C21 UNL     1      62.848  48.812  29.488  1.00  0.00     0.015 C
ENDROOT
BRANCH   5  14
HETATM   14  C10 UNL     1      65.660  48.124  31.818  1.00  0.00     0.012 C
BRANCH  14  15
HETATM   15  C11 UNL     1      65.679  46.698  32.338  1.00  0.00     0.034 C
BRANCH  15  16
HETATM   16  C12 UNL     1      67.005  46.035  32.035  1.00  0.00     0.187 C
HETATM   17  C13 UNL     1      68.166  46.971  31.853  1.00  0.00     0.060 C
HETATM   18  C14 UNL     1      68.527  46.089  30.670  1.00  0.00     0.235 C
HETATM   19  N1  UNL     1      67.132  45.701  30.607  1.00  0.00    -0.071 N
ATOM     20  H12 UNL     1      66.866  44.777  30.266  1.00  0.00     0.277 HD
ATOM     21  H11 UNL     1      66.507  46.123  29.919  1.00  0.00     0.277 HD
ENDBRANCH  15  16
ENDBRANCH  14  15
ENDBRANCH   5  14
BRANCH   1  22
HETATM   22  C2  UNL     1      60.201  47.345  29.540  1.00  0.00    -0.018 C
HETATM   23  C1  UNL     1      60.045  47.426  28.052  1.00  0.00     0.010 C
HETATM   24  C3  UNL     1      59.004  46.558  30.041  1.00  0.00     0.010 C
ENDBRANCH   1  22
TORSDOF 4
ENDMDL