MODEL 1
REMARK VINA RESULT: -8.563711063      0.000      0.000
REMARK  6 active torsions:
REMARK  status: ('A' for Active; 'I' for Inactive)
REMARK    1  A    between atoms: C2_2  and  C3_3
REMARK    2  A    between atoms: C3_3  and  C4_4
REMARK    3  A    between atoms: C4_4  and  C6_6
REMARK    4  A    between atoms: C6_6  and  N2_13
REMARK    5  A    between atoms: N1_7  and  C7_9
REMARK    6  A    between atoms: N2_13  and  C11_15
ROOT
HETATM    1  C6  UNL     1      65.083  47.719  32.274  1.00  0.00     0.077 C
HETATM    2  N1  UNL     1      66.035  46.969  32.390  1.00  0.00    -0.371 N
ATOM      3  H1  UNL     1      65.936  46.598  33.334  1.00  0.00     0.161 HD
ENDROOT
BRANCH   1   4
HETATM    4  C4  UNL     1      64.180  47.791  33.532  1.00  0.00     0.049 C
HETATM    5  C5  UNL     1      62.766  47.560  33.224  1.00  0.00     0.018 C
BRANCH   4   6
HETATM    6  C3  UNL     1      64.502  49.000  34.302  1.00  0.00     0.011 C
BRANCH   6   7
HETATM    7  C2  UNL     1      65.827  49.080  34.944  1.00  0.00    -0.004 C
HETATM    8  C1  UNL     1      66.326  47.847  35.632  1.00  0.00     0.005 C
ENDBRANCH   6   7
ENDBRANCH   4   6
ENDBRANCH   1   4
BRANCH   1   9
HETATM    9  N2  UNL     1      64.631  48.563  31.244  1.00  0.00    -0.370 N
ATOM     10  H2  UNL     1      64.523  49.535  31.533  1.00  0.00     0.161 HD
BRANCH   9  11
HETATM   11  C11 UNL     1      64.297  48.337  29.892  1.00  0.00     0.032 C
HETATM   12  C12 UNL     1      63.308  49.455  29.498  1.00  0.00     0.035 C
HETATM   13  C13 UNL     1      62.939  49.430  28.054  1.00  0.00    -0.012 C
HETATM   14  C14 UNL     1      62.231  48.121  27.763  1.00  0.00     0.009 C
HETATM   15  C18 UNL     1      64.215  49.581  27.249  1.00  0.00     0.009 C
HETATM   16  C15 UNL     1      63.195  47.028  28.115  1.00  0.00    -0.012 C
HETATM   17  C16 UNL     1      64.383  47.133  27.184  1.00  0.00     0.009 C
HETATM   18  C20 UNL     1      63.625  47.038  29.566  1.00  0.00     0.035 C
HETATM   19  C17 UNL     1      65.103  48.397  27.520  1.00  0.00    -0.012 C
HETATM   20  C19 UNL     1      65.513  48.410  28.971  1.00  0.00     0.035 C
ENDBRANCH   9  11
ENDBRANCH   1   9
BRANCH   2  21
HETATM   21  C7  UNL     1      67.162  46.363  31.925  1.00  0.00     0.020 C
HETATM   22  C8  UNL     1      68.283  47.345  31.527  1.00  0.00     0.037 C
HETATM   23  C9  UNL     1      67.823  45.513  33.021  1.00  0.00     0.037 C
HETATM   24  C10 UNL     1      67.006  45.459  30.718  1.00  0.00     0.037 C
ENDBRANCH   2  21
TORSDOF 6
ENDMDL