MODEL 4
REMARK VINA RESULT: -5.191650036      2.504      4.337
REMARK  4 active torsions:
REMARK  status: ('A' for Active; 'I' for Inactive)
REMARK    1  A    between atoms: C2_2  and  C3_3
REMARK    2  A    between atoms: C3_3  and  C5_5
REMARK    3  A    between atoms: C14_14  and  C15_15
REMARK    4  A    between atoms: C15_15  and  N1_16
ROOT
HETATM    1  C5  UNL     1      66.368  47.108  34.007  1.00  0.00     0.002 C
HETATM    2  C6  UNL     1      66.764  45.865  34.818  1.00  0.00     0.006 C
HETATM    3  C7  UNL     1      67.564  44.972  33.948  1.00  0.00     0.006 C
HETATM    4  C8  UNL     1      67.578  45.553  32.588  1.00  0.00    -0.001 C
HETATM    5  C9  UNL     1      66.660  44.790  31.714  1.00  0.00    -0.009 C
HETATM    6  C10 UNL     1      67.224  44.565  30.319  1.00  0.00     0.005 C
HETATM    7  C11 UNL     1      66.915  45.755  29.435  1.00  0.00     0.006 C
HETATM    8  C12 UNL     1      66.947  47.065  30.188  1.00  0.00    -0.005 C
HETATM    9  C13 UNL     1      66.416  48.109  29.214  1.00  0.00     0.011 C
HETATM   10  C14 UNL     1      64.937  48.005  28.977  1.00  0.00     0.011 C
HETATM   11  C17 UNL     1      64.173  47.930  30.262  1.00  0.00     0.007 C
HETATM   12  C18 UNL     1      65.056  48.042  31.489  1.00  0.00     0.011 C
HETATM   13  C19 UNL     1      66.165  47.053  31.475  1.00  0.00    -0.028 C
HETATM   14  C20 UNL     1      65.474  45.677  31.539  1.00  0.00     0.015 C
HETATM   15  C21 UNL     1      67.040  47.002  32.706  1.00  0.00    -0.028 C
HETATM   16  C22 UNL     1      68.277  47.873  32.536  1.00  0.00     0.016 C
ENDROOT
BRANCH  10  17
HETATM   17  C15 UNL     1      64.532  49.217  28.162  1.00  0.00     0.236 C
BRANCH  17  18
HETATM   18  N1  UNL     1      63.098  49.337  28.097  1.00  0.00    -0.079 N
HETATM   19  C16 UNL     1      62.626  48.289  27.181  1.00  0.00     0.267 C
ATOM     20  H12 UNL     1      62.650  49.303  29.013  1.00  0.00     0.276 HD
ATOM     21  H11 UNL     1      62.784  50.272  27.835  1.00  0.00     0.276 HD
ENDBRANCH  17  18
ENDBRANCH  10  17
BRANCH   1  22
HETATM   22  C3  UNL     1      66.697  48.273  34.902  1.00  0.00     0.008 C
HETATM   23  C4  UNL     1      66.809  47.666  36.314  1.00  0.00     0.014 C
BRANCH  22  24
HETATM   24  C2  UNL     1      65.645  49.301  34.989  1.00  0.00    -0.032 C
HETATM   25  C1  UNL     1      64.350  49.033  34.875  1.00  0.00     0.007 C
ENDBRANCH  22  24
ENDBRANCH   1  22
TORSDOF 4
ENDMDL