MODEL 3
REMARK VINA RESULT: -6.862070183      2.661      6.058
REMARK  6 active torsions:
REMARK  status: ('A' for Active; 'I' for Inactive)
REMARK    1  A    between atoms: C2_2  and  C3_3
REMARK    2  A    between atoms: C3_3  and  C4_4
REMARK    3  A    between atoms: C4_4  and  C5_5
REMARK    4  A    between atoms: C5_5  and  C6_6
REMARK    5  A    between atoms: C6_6  and  C8_8
REMARK    6  A    between atoms: C18_18  and  N1_19
ROOT
HETATM    1  C8  UNL     1      65.092  48.349  33.195  1.00  0.00    -0.003 C
HETATM    2  C9  UNL     1      63.745  47.992  33.760  1.00  0.00     0.005 C
HETATM    3  C10 UNL     1      62.871  47.282  32.750  1.00  0.00     0.001 C
HETATM    4  C11 UNL     1      62.802  48.047  31.434  1.00  0.00     0.010 C
HETATM    5  C12 UNL     1      64.145  48.512  30.949  1.00  0.00    -0.036 C
HETATM    6  C13 UNL     1      64.264  49.985  31.295  1.00  0.00     0.016 C
HETATM    7  C14 UNL     1      65.181  47.787  31.820  1.00  0.00    -0.001 C
HETATM    8  C15 UNL     1      66.512  47.846  31.163  1.00  0.00     0.006 C
HETATM    9  C16 UNL     1      66.438  46.973  29.909  1.00  0.00     0.007 C
HETATM   10  C17 UNL     1      65.228  47.182  29.098  1.00  0.00     0.021 C
HETATM   11  C18 UNL     1      64.281  46.021  29.012  1.00  0.00     0.188 C
HETATM   12  C19 UNL     1      63.086  46.676  28.314  1.00  0.00     0.033 C
HETATM   13  C20 UNL     1      63.161  48.147  28.659  1.00  0.00     0.008 C
HETATM   14  C21 UNL     1      64.382  48.363  29.496  1.00  0.00     0.000 C
ENDROOT
BRANCH   1  15
HETATM   15  C6  UNL     1      66.213  47.890  34.123  1.00  0.00     0.008 C
HETATM   16  C7  UNL     1      66.078  48.705  35.364  1.00  0.00     0.014 C
BRANCH  15  17
HETATM   17  C5  UNL     1      66.311  46.451  34.275  1.00  0.00    -0.022 C
BRANCH  17  18
HETATM   18  C4  UNL     1      67.471  45.629  34.007  1.00  0.00    -0.008 C
BRANCH  18  19
HETATM   19  C3  UNL     1      67.735  44.624  33.013  1.00  0.00    -0.027 C
BRANCH  19  20
HETATM   20  C2  UNL     1      66.752  43.681  32.482  1.00  0.00     0.022 C
HETATM   21  C1  UNL     1      66.896  43.684  30.930  1.00  0.00     0.009 C
ENDBRANCH  19  20
ENDBRANCH  18  19
ENDBRANCH  17  18
ENDBRANCH  15  17
ENDBRANCH   1  15
BRANCH  11  22
HETATM   22  N1  UNL     1      64.901  45.031  28.127  1.00  0.00    -0.075 N
ATOM     23  H13 UNL     1      64.581  44.079  28.302  1.00  0.00     0.274 HD
ATOM     24  H12 UNL     1      64.579  45.100  27.161  1.00  0.00     0.274 HD
ATOM     25  H11 UNL     1      65.910  45.139  28.222  1.00  0.00     0.274 HD
ENDBRANCH  11  22
TORSDOF 6
ENDMDL