MODEL 4
REMARK VINA RESULT: -6.684409191      2.877      4.963
REMARK  4 active torsions:
REMARK  status: ('A' for Active; 'I' for Inactive)
REMARK    1  A    between atoms: C2_2  and  C3_3
REMARK    2  A    between atoms: C3_3  and  C4_4
REMARK    3  A    between atoms: C4_4  and  C6_6
REMARK    4  A    between atoms: C6_6  and  C7_7
ROOT
HETATM    1  C6  UNL     1      66.253  47.474  32.475  1.00  0.00    -0.020 C
HETATM    2  C8  UNL     1      64.931  46.973  33.144  1.00  0.00     0.011 C
HETATM    3  C9  UNL     1      63.868  48.005  33.089  1.00  0.00     0.002 C
HETATM    4  C10 UNL     1      63.734  48.675  31.766  1.00  0.00     0.010 C
HETATM    5  C11 UNL     1      64.503  47.938  30.670  1.00  0.00    -0.035 C
HETATM    6  C12 UNL     1      63.786  46.662  30.424  1.00  0.00     0.016 C
HETATM    7  C13 UNL     1      65.954  47.853  31.067  1.00  0.00     0.004 C
HETATM    8  C14 UNL     1      66.784  47.262  29.997  1.00  0.00     0.006 C
HETATM    9  C15 UNL     1      66.540  48.080  28.702  1.00  0.00     0.006 C
HETATM   10  C16 UNL     1      65.124  47.885  28.395  1.00  0.00    -0.000 A
HETATM   11  C17 UNL     1      64.449  48.833  29.460  1.00  0.00     0.008 A
HETATM   12  C18 UNL     1      64.025  48.728  28.156  1.00  0.00    -0.032 A
HETATM   13  C19 UNL     1      63.812  49.834  27.258  1.00  0.00     0.011 A
HETATM   14  C20 UNL     1      62.855  48.627  27.383  1.00  0.00     0.011 A
ENDROOT
BRANCH   1  15
HETATM   15  C4  UNL     1      67.183  46.375  32.755  1.00  0.00    -0.005 C
HETATM   16  C5  UNL     1      68.623  46.727  33.037  1.00  0.00     0.011 C
BRANCH  15  17
HETATM   17  C3  UNL     1      66.832  45.149  33.477  1.00  0.00     0.031 C
BRANCH  17  18
HETATM   18  C2  UNL     1      67.071  43.895  32.671  1.00  0.00    -0.037 C
HETATM   19  C1  UNL     1      66.829  43.921  31.384  1.00  0.00     0.007 C
ENDBRANCH  17  18
ENDBRANCH  15  17
ENDBRANCH   1  15
BRANCH   1  20
HETATM   20  C7  UNL     1      66.581  48.668  33.342  1.00  0.00     0.121 C
HETATM   21  S1  UNL     1      66.210  48.671  35.051  1.00  0.00    -0.126 SA
ENDBRANCH   1  20
TORSDOF 4
ENDMDL