MODEL 4
REMARK VINA RESULT: -7.199734109      1.934      3.050
REMARK  4 active torsions:
REMARK  status: ('A' for Active; 'I' for Inactive)
REMARK    1  A    between atoms: C2_2  and  C3_3
REMARK    2  A    between atoms: C3_3  and  C4_4
REMARK    3  A    between atoms: C4_4  and  N1_5
REMARK    4  A    between atoms: N1_5  and  C5_8
ROOT
HETATM    1  C5  UNL     1      64.424  48.213  30.137  1.00  0.00     0.190 C
HETATM    2  C6  UNL     1      64.886  48.121  28.727  1.00  0.00     0.033 C
HETATM    3  C7  UNL     1      66.390  48.438  28.819  1.00  0.00     0.003 C
HETATM    4  C8  UNL     1      67.007  47.200  29.350  1.00  0.00     0.010 C
HETATM    5  C9  UNL     1      66.393  46.669  30.616  1.00  0.00    -0.035 C
HETATM    6  C10 UNL     1      66.060  45.189  30.312  1.00  0.00     0.016 C
HETATM    7  C11 UNL     1      67.534  46.555  31.634  1.00  0.00    -0.006 C
HETATM    8  C12 UNL     1      67.340  45.459  32.615  1.00  0.00     0.006 C
HETATM    9  C13 UNL     1      67.526  45.850  34.046  1.00  0.00     0.010 C
HETATM   10  C14 UNL     1      66.389  46.732  34.521  1.00  0.00    -0.036 A
HETATM   11  C15 UNL     1      66.697  47.350  35.899  1.00  0.00     0.016 C
HETATM   12  C16 UNL     1      65.127  46.699  34.096  1.00  0.00     0.020 A
HETATM   13  C17 UNL     1      66.021  47.663  33.492  1.00  0.00    -0.032 A
HETATM   14  C18 UNL     1      67.305  48.327  33.424  1.00  0.00     0.011 C
HETATM   15  C19 UNL     1      68.007  47.866  32.162  1.00  0.00     0.006 C
HETATM   16  C20 UNL     1      65.288  48.133  32.376  1.00  0.00     0.017 C
HETATM   17  C21 UNL     1      65.172  47.302  31.105  1.00  0.00     0.025 C
ENDROOT
BRANCH   1  18
HETATM   18  N1  UNL     1      63.009  48.075  30.224  1.00  0.00    -0.070 N
ATOM     19  H12 UNL     1      62.549  48.985  30.252  1.00  0.00     0.277 HD
ATOM     20  H11 UNL     1      62.727  47.724  31.139  1.00  0.00     0.277 HD
BRANCH  18  21
HETATM   21  C4  UNL     1      62.477  47.251  29.159  1.00  0.00     0.232 C
BRANCH  21  22
HETATM   22  C3  UNL     1      61.015  46.933  29.366  1.00  0.00     0.027 C
BRANCH  22  23
HETATM   23  C2  UNL     1      60.179  47.574  28.305  1.00  0.00    -0.003 C
HETATM   24  C1  UNL     1      58.752  47.159  28.250  1.00  0.00     0.005 C
ENDBRANCH  22  23
ENDBRANCH  21  22
ENDBRANCH  18  21
ENDBRANCH   1  18
TORSDOF 4
ENDMDL