MODEL 4
REMARK VINA RESULT: -6.791105193      1.509      1.901
REMARK  4 active torsions:
REMARK  status: ('A' for Active; 'I' for Inactive)
REMARK    1  A    between atoms: C2_2  and  C3_3
REMARK    2  A    between atoms: C3_3  and  C4_4
REMARK    3  A    between atoms: C4_4  and  C5_5
REMARK    4  A    between atoms: C5_5  and  N1_6
ROOT
HETATM    1  N1  UNL     1      63.323  48.576  29.596  1.00  0.00    -0.364 N
HETATM    2  C6  UNL     1      64.380  48.593  28.678  1.00  0.00     0.064 C
HETATM    3  C7  UNL     1      65.202  47.327  28.616  1.00  0.00     0.045 C
HETATM    4  C8  UNL     1      64.922  46.556  29.877  1.00  0.00     0.012 C
HETATM    5  C9  UNL     1      64.912  47.559  31.043  1.00  0.00     0.018 C
HETATM    6  C10 UNL     1      65.254  46.917  32.316  1.00  0.00    -0.004 C
HETATM    7  C11 UNL     1      66.528  47.529  32.929  1.00  0.00     0.006 C
HETATM    8  C12 UNL     1      67.022  46.484  33.936  1.00  0.00     0.009 C
HETATM    9  C13 UNL     1      66.050  46.549  35.104  1.00  0.00    -0.047 C
HETATM   10  C14 UNL     1      66.753  47.374  36.189  1.00  0.00     0.015 C
HETATM   11  C15 UNL     1      65.761  45.181  35.672  1.00  0.00     0.015 C
HETATM   12  C16 UNL     1      64.800  47.273  34.744  1.00  0.00     0.013 C
HETATM   13  C17 UNL     1      64.236  46.840  33.378  1.00  0.00    -0.009 C
HETATM   14  C18 UNL     1      62.996  47.626  33.194  1.00  0.00     0.007 C
HETATM   15  C19 UNL     1      62.520  47.808  31.797  1.00  0.00     0.032 C
HETATM   16  C20 UNL     1      63.652  48.345  30.962  1.00  0.00     0.036 C
HETATM   17  C21 UNL     1      63.957  49.742  31.533  1.00  0.00     0.039 C
ENDROOT
BRANCH   1  18
HETATM   18  C5  UNL     1      62.028  48.283  29.162  1.00  0.00     0.064 C
BRANCH  18  19
HETATM   19  C4  UNL     1      61.889  46.763  29.064  1.00  0.00     0.044 C
BRANCH  19  20
HETATM   20  C3  UNL     1      60.467  46.333  29.318  1.00  0.00     0.005 C
BRANCH  20  21
HETATM   21  C2  UNL     1      59.439  47.108  28.563  1.00  0.00    -0.004 C
HETATM   22  C1  UNL     1      58.097  46.424  28.853  1.00  0.00     0.005 C
ENDBRANCH  20  21
ENDBRANCH  19  20
ENDBRANCH  18  19
ENDBRANCH   1  18
TORSDOF 4
ENDMDL