MODEL 2
REMARK VINA RESULT: -10.486621063      0.716      1.339
REMARK  4 active torsions:
REMARK  status: ('A' for Active; 'I' for Inactive)
REMARK    1  A    between atoms: C2_4  and  C3_5
REMARK    2  A    between atoms: C9_11  and  C10_12
REMARK    3  A    between atoms: C10_12  and  N2_13
REMARK    4  A    between atoms: C14_17  and  C15_18
ROOT
HETATM    1  N2  UNL     1      64.498  46.740  29.856  1.00  0.00     0.097 N
HETATM    2  C11 UNL     1      64.847  45.594  29.045  1.00  0.00     0.273 C
HETATM    3  C12 UNL     1      65.784  44.833  29.972  1.00  0.00     0.032 C
HETATM    4  C13 UNL     1      66.561  45.972  30.578  1.00  0.00     0.038 C
HETATM    5  C14 UNL     1      65.618  47.160  30.597  1.00  0.00     0.227 C
ENDROOT
BRANCH   1   6
HETATM    6  C10 UNL     1      63.781  47.721  29.102  1.00  0.00     0.313 C
BRANCH   6   7
HETATM    7  C9  UNL     1      62.333  47.519  29.007  1.00  0.00    -0.013 A
HETATM    8  C1  UNL     1      61.439  48.320  28.346  1.00  0.00     0.097 A
HETATM    9  N1  UNL     1      60.202  47.818  28.478  1.00  0.00    -0.368 N
HETATM   10  C2  UNL     1      60.270  46.703  29.213  1.00  0.00     0.013 A
ATOM     11  H1  UNL     1      59.351  48.219  28.083  1.00  0.00     0.165 HD
HETATM   12  C8  UNL     1      61.576  46.507  29.546  1.00  0.00     0.035 A
BRANCH  10  13
HETATM   13  C3  UNL     1      59.071  45.889  29.554  1.00  0.00     0.035 C
HETATM   14  C4  UNL     1      58.699  46.012  31.005  1.00  0.00     0.011 C
HETATM   15  C5  UNL     1      57.170  46.049  30.984  1.00  0.00     0.001 C
HETATM   16  C6  UNL     1      56.832  46.805  29.737  1.00  0.00     0.001 C
HETATM   17  C7  UNL     1      57.902  46.393  28.760  1.00  0.00     0.011 C
ENDBRANCH  10  13
ENDBRANCH   6   7
ENDBRANCH   1   6
BRANCH   5  18
HETATM   18  C15 UNL     1      65.400  47.545  32.024  1.00  0.00     0.019 C
HETATM   19  C16 UNL     1      63.944  47.774  32.362  1.00  0.00     0.007 C
HETATM   20  C17 UNL     1      63.865  48.532  33.696  1.00  0.00     0.000 C
HETATM   21  C18 UNL     1      63.735  47.604  34.860  1.00  0.00     0.000 C
HETATM   22  C19 UNL     1      65.016  46.979  35.289  1.00  0.00     0.000 C
HETATM   23  C20 UNL     1      66.169  47.267  34.358  1.00  0.00     0.000 C
HETATM   24  C21 UNL     1      65.962  46.568  33.030  1.00  0.00     0.007 C
ENDBRANCH   5  18
TORSDOF 4
ENDMDL