MODEL 5
REMARK VINA RESULT: -9.383279826      1.354      1.955
REMARK  4 active torsions:
REMARK  status: ('A' for Active; 'I' for Inactive)
REMARK    1  A    between atoms: C5_5  and  C6_6
REMARK    2  A    between atoms: C13_13  and  C14_14
REMARK    3  A    between atoms: C14_14  and  C15_15
REMARK    4  A    between atoms: C15_15  and  C16_16
ROOT
HETATM    1  C1  UNL     1      64.753  48.445  27.356  1.00  0.00     0.015 C
HETATM    2  C2  UNL     1      64.195  47.918  28.683  1.00  0.00    -0.043 C
HETATM    3  C3  UNL     1      65.190  46.938  29.220  1.00  0.00     0.009 C
HETATM    4  C4  UNL     1      65.609  47.211  30.635  1.00  0.00     0.006 C
HETATM    5  C5  UNL     1      64.426  47.506  31.539  1.00  0.00    -0.006 C
HETATM    6  C11 UNL     1      63.429  48.429  30.932  1.00  0.00    -0.009 C
HETATM    7  C12 UNL     1      62.094  47.747  30.638  1.00  0.00     0.010 C
HETATM    8  C13 UNL     1      62.209  46.699  29.571  1.00  0.00    -0.013 C
HETATM    9  C19 UNL     1      62.887  47.247  28.357  1.00  0.00     0.013 C
HETATM   10  C20 UNL     1      64.000  49.029  29.657  1.00  0.00     0.014 C
ENDROOT
BRANCH   8  11
HETATM   11  C14 UNL     1      60.803  46.256  29.223  1.00  0.00     0.010 C
BRANCH  11  12
HETATM   12  C15 UNL     1      60.031  47.333  28.500  1.00  0.00     0.059 C
BRANCH  12  13
HETATM   13  C16 UNL     1      58.596  47.215  28.890  1.00  0.00     0.025 A
HETATM   14  C17 UNL     1      58.023  46.181  29.603  1.00  0.00     0.113 A
HETATM   15  N1  UNL     1      56.719  46.456  29.742  1.00  0.00    -0.360 N
HETATM   16  C18 UNL     1      56.449  47.626  29.143  1.00  0.00     0.180 A
ATOM     17  H1  UNL     1      56.039  45.869  30.225  1.00  0.00     0.166 HD
HETATM   18  N2  UNL     1      57.601  48.083  28.626  1.00  0.00    -0.355 N
ATOM     19  H2  UNL     1      57.706  48.956  28.110  1.00  0.00     0.166 HD
ENDBRANCH  12  13
ENDBRANCH  11  12
ENDBRANCH   8  11
BRANCH   5  20
HETATM   20  C6  UNL     1      64.857  47.915  32.905  1.00  0.00    -0.010 C
HETATM   21  C7  UNL     1      64.666  46.940  33.987  1.00  0.00     0.005 C
HETATM   22  C8  UNL     1      63.514  47.357  34.855  1.00  0.00     0.000 C
HETATM   23  C9  UNL     1      63.431  48.830  34.640  1.00  0.00     0.000 C
HETATM   24  C10 UNL     1      64.210  49.163  33.407  1.00  0.00     0.005 C
ENDBRANCH   5  20
TORSDOF 4
ENDMDL