MODEL 5
REMARK VINA RESULT: -7.773670130      1.079      1.245
REMARK  5 active torsions:
REMARK  status: ('A' for Active; 'I' for Inactive)
REMARK    1  A    between atoms: C2_2  and  C3_3
REMARK    2  A    between atoms: C2_2  and  C10_10
REMARK    3  A    between atoms: C3_3  and  C4_4
REMARK    4  A    between atoms: C4_4  and  C5_5
REMARK    5  A    between atoms: C5_5  and  C6_6
ROOT
HETATM    1  C10 UNL     1      64.178  46.705  29.528  1.00  0.00     0.022 C
HETATM    2  C11 UNL     1      64.470  45.621  28.531  1.00  0.00     0.010 C
HETATM    3  C12 UNL     1      65.346  44.640  29.298  1.00  0.00     0.006 C
HETATM    4  C13 UNL     1      65.531  45.230  30.638  1.00  0.00    -0.004 C
HETATM    5  C14 UNL     1      66.730  44.866  31.410  1.00  0.00     0.029 C
HETATM    6  C15 UNL     1      66.625  45.461  32.793  1.00  0.00     0.046 C
HETATM    7  C16 UNL     1      66.422  44.354  33.850  1.00  0.00     0.031 C
HETATM    8  C17 UNL     1      67.883  46.117  33.227  1.00  0.00     0.069 C
HETATM    9  N1  UNL     1      68.867  46.640  33.547  1.00  0.00    -0.196 NA
HETATM   10  C18 UNL     1      65.442  46.342  32.888  1.00  0.00     0.025 C
HETATM   11  C19 UNL     1      65.152  47.279  31.774  1.00  0.00     0.012 C
HETATM   12  C20 UNL     1      65.382  46.744  30.378  1.00  0.00    -0.033 C
HETATM   13  C21 UNL     1      66.634  47.229  29.750  1.00  0.00     0.016 C
ENDROOT
BRANCH   1  14
HETATM   14  C2  UNL     1      63.544  47.921  28.979  1.00  0.00    -0.083 C
HETATM   15  C1  UNL     1      64.045  48.434  27.681  1.00  0.00     0.043 C
BRANCH  14  16
HETATM   16  C3  UNL     1      62.123  48.188  29.324  1.00  0.00    -0.024 C
BRANCH  16  17
HETATM   17  C4  UNL     1      61.125  47.130  29.473  1.00  0.00     0.028 C
BRANCH  17  18
HETATM   18  C5  UNL     1      60.002  47.096  28.466  1.00  0.00     0.012 C
BRANCH  18  19
HETATM   19  C6  UNL     1      58.656  46.893  29.141  1.00  0.00    -0.051 C
HETATM   20  C7  UNL     1      57.879  45.755  28.570  1.00  0.00     0.014 C
HETATM   21  C8  UNL     1      57.854  48.159  29.071  1.00  0.00     0.014 C
HETATM   22  C9  UNL     1      58.943  46.593  30.599  1.00  0.00     0.014 C
ENDBRANCH  18  19
ENDBRANCH  17  18
ENDBRANCH  16  17
ENDBRANCH  14  16
ENDBRANCH   1  14
TORSDOF 5
ENDMDL