MODEL 5
REMARK VINA RESULT: -8.058639604      1.319      3.815
REMARK  5 active torsions:
REMARK  status: ('A' for Active; 'I' for Inactive)
REMARK    1  A    between atoms: C2_2  and  C3_3
REMARK    2  A    between atoms: C3_3  and  N1_5
REMARK    3  A    between atoms: C3_3  and  C5_9
REMARK    4  A    between atoms: C5_9  and  C6_10
REMARK    5  A    between atoms: C6_10  and  C7_11
ROOT
HETATM    1  C7  UNL     1      65.389  47.364  31.485  1.00  0.00    -0.001 C
HETATM    2  C8  UNL     1      65.863  45.964  31.375  1.00  0.00    -0.002 A
HETATM    3  C9  UNL     1      67.016  45.895  30.381  1.00  0.00     0.006 A
HETATM    4  C10 UNL     1      67.886  45.321  31.443  1.00  0.00     0.010 A
HETATM    5  C11 UNL     1      66.668  45.349  32.379  1.00  0.00    -0.040 A
HETATM    6  C12 UNL     1      66.281  43.876  32.639  1.00  0.00     0.015 C
HETATM    7  C13 UNL     1      67.014  45.982  33.644  1.00  0.00     0.010 C
HETATM    8  C14 UNL     1      66.974  47.452  33.761  1.00  0.00     0.011 C
HETATM    9  C15 UNL     1      65.602  48.051  33.884  1.00  0.00    -0.033 A
HETATM   10  C16 UNL     1      65.052  47.760  35.256  1.00  0.00     0.010 A
HETATM   11  C17 UNL     1      65.072  49.213  35.630  1.00  0.00     0.002 A
HETATM   12  C18 UNL     1      65.710  49.484  34.296  1.00  0.00     0.010 A
HETATM   13  C19 UNL     1      64.679  47.727  32.734  1.00  0.00    -0.036 C
HETATM   14  C20 UNL     1      63.701  46.655  33.195  1.00  0.00     0.016 C
HETATM   15  C21 UNL     1      63.838  48.973  32.514  1.00  0.00     0.016 C
ENDROOT
BRANCH   1  16
HETATM   16  C6  UNL     1      64.814  47.798  30.186  1.00  0.00     0.008 C
BRANCH  16  17
HETATM   17  C5  UNL     1      63.932  46.877  29.455  1.00  0.00     0.038 C
BRANCH  17  18
HETATM   18  C3  UNL     1      62.674  47.510  28.904  1.00  0.00     0.120 C
HETATM   19  C4  UNL     1      61.403  46.869  29.361  1.00  0.00     0.046 C
BRANCH  18  20
HETATM   20  C2  UNL     1      62.776  47.653  27.425  1.00  0.00     0.033 C
HETATM   21  C1  UNL     1      62.769  49.134  27.037  1.00  0.00     0.007 C
ENDBRANCH  18  20
BRANCH  18  22
HETATM   22  N1  UNL     1      62.644  48.880  29.461  1.00  0.00    -0.071 N
ATOM     23  H13 UNL     1      62.107  48.952  30.325  1.00  0.00     0.275 HD
ATOM     24  H12 UNL     1      63.541  49.180  29.843  1.00  0.00     0.275 HD
ATOM     25  H11 UNL     1      62.298  49.490  28.721  1.00  0.00     0.275 HD
ENDBRANCH  18  22
ENDBRANCH  17  18
ENDBRANCH  16  17
ENDBRANCH   1  16
TORSDOF 5
ENDMDL