MODEL 1
REMARK VINA RESULT: -9.603634841      0.000      0.000
REMARK  7 active torsions:
REMARK  status: ('A' for Active; 'I' for Inactive)
REMARK    1  A    between atoms: C11_11  and  C12_12
REMARK    2  A    between atoms: C12_12  and  C13_13
REMARK    3  A    between atoms: C13_13  and  C14_14
REMARK    4  A    between atoms: C14_14  and  C15_15
REMARK    5  A    between atoms: C16_16  and  C17_17
REMARK    6  A    between atoms: C17_17  and  C18_18
REMARK    7  A    between atoms: C18_18  and  N1_19
ROOT
HETATM    1  C1  UNL     1      63.556  47.646  35.118  1.00  0.00     0.015 C
HETATM    2  C2  UNL     1      65.017  47.878  34.710  1.00  0.00    -0.044 C
HETATM    3  C3  UNL     1      65.335  49.305  35.183  1.00  0.00     0.015 C
HETATM    4  C4  UNL     1      65.936  46.961  35.422  1.00  0.00     0.009 C
HETATM    5  C5  UNL     1      66.402  45.778  34.666  1.00  0.00     0.001 C
HETATM    6  C6  UNL     1      66.654  46.016  33.207  1.00  0.00     0.005 C
HETATM    7  C7  UNL     1      65.365  46.541  32.610  1.00  0.00    -0.005 C
HETATM    8  C8  UNL     1      65.571  46.769  31.152  1.00  0.00    -0.006 C
HETATM    9  C9  UNL     1      65.866  45.550  30.356  1.00  0.00     0.006 C
HETATM   10  C10 UNL     1      65.489  46.007  28.938  1.00  0.00     0.005 C
HETATM   11  C11 UNL     1      64.548  47.180  29.110  1.00  0.00    -0.010 C
HETATM   12  C19 UNL     1      64.207  47.188  30.578  1.00  0.00    -0.006 C
HETATM   13  C20 UNL     1      63.912  48.542  31.123  1.00  0.00     0.006 C
HETATM   14  C21 UNL     1      63.804  48.418  32.637  1.00  0.00     0.006 C
HETATM   15  C22 UNL     1      65.084  47.876  33.239  1.00  0.00    -0.002 C
ENDROOT
BRANCH  11  16
HETATM   16  C12 UNL     1      63.350  46.962  28.217  1.00  0.00     0.006 C
BRANCH  16  17
HETATM   17  C13 UNL     1      62.951  48.287  27.623  1.00  0.00     0.012 C
BRANCH  17  18
HETATM   18  C14 UNL     1      61.686  48.831  28.253  1.00  0.00     0.094 C
BRANCH  18  19
HETATM   19  C15 UNL     1      60.847  47.746  28.757  1.00  0.00    -0.107 C
HETATM   20  C16 UNL     1      60.134  46.856  29.184  1.00  0.00    -0.105 C
BRANCH  20  21
HETATM   21  C17 UNL     1      59.274  45.789  29.709  1.00  0.00     0.121 C
BRANCH  21  22
HETATM   22  C18 UNL     1      57.823  46.202  29.463  1.00  0.00     0.241 C
BRANCH  22  23
HETATM   23  N1  UNL     1      57.095  45.897  30.685  1.00  0.00    -0.079 N
ATOM     24  H13 UNL     1      57.270  44.955  31.035  1.00  0.00     0.274 HD
ATOM     25  H12 UNL     1      57.443  46.402  31.500  1.00  0.00     0.274 HD
ATOM     26  H11 UNL     1      56.110  46.078  30.489  1.00  0.00     0.274 HD
ENDBRANCH  22  23
ENDBRANCH  21  22
ENDBRANCH  20  21
ENDBRANCH  18  19
ENDBRANCH  17  18
ENDBRANCH  16  17
ENDBRANCH  11  16
TORSDOF 7
ENDMDL