MODEL 4
REMARK VINA RESULT: -9.685404702      0.947      1.019
REMARK  5 active torsions:
REMARK  status: ('A' for Active; 'I' for Inactive)
REMARK    1  A    between atoms: C2_2  and  C4_4
REMARK    2  A    between atoms: C4_4  and  C5_5
REMARK    3  A    between atoms: C5_5  and  C6_6
REMARK    4  A    between atoms: C6_6  and  O1_7
REMARK    5  A    between atoms: C6_6  and  C7_9
ROOT
HETATM    1  C7  UNL     1      63.994  47.311  28.667  1.00  0.00     0.015 C
HETATM    2  C8  UNL     1      64.629  48.352  29.515  1.00  0.00     0.007 C
HETATM    3  C9  UNL     1      64.722  47.984  30.983  1.00  0.00     0.006 C
HETATM    4  C10 UNL     1      65.276  46.654  31.254  1.00  0.00    -0.002 C
HETATM    5  C11 UNL     1      65.527  45.903  29.935  1.00  0.00    -0.009 C
HETATM    6  C12 UNL     1      66.025  44.520  30.156  1.00  0.00     0.005 C
HETATM    7  C13 UNL     1      66.198  44.106  31.560  1.00  0.00     0.006 C
HETATM    8  C14 UNL     1      66.701  45.156  32.512  1.00  0.00    -0.006 C
HETATM    9  C15 UNL     1      66.072  44.843  33.830  1.00  0.00     0.005 C
HETATM   10  C16 UNL     1      66.244  45.853  34.901  1.00  0.00     0.000 C
HETATM   11  C17 UNL     1      65.680  47.166  34.333  1.00  0.00     0.001 C
HETATM   12  C18 UNL     1      66.620  47.517  33.209  1.00  0.00     0.010 C
HETATM   13  C19 UNL     1      66.526  46.564  32.040  1.00  0.00    -0.036 C
HETATM   14  C20 UNL     1      67.720  46.977  31.159  1.00  0.00     0.016 C
HETATM   15  C21 UNL     1      64.213  45.906  29.183  1.00  0.00     0.012 C
ENDROOT
BRANCH   1  16
HETATM   16  C6  UNL     1      62.518  47.491  28.467  1.00  0.00     0.122 C
BRANCH  16  17
HETATM   17  C5  UNL     1      61.663  46.724  29.419  1.00  0.00     0.032 C
BRANCH  17  18
HETATM   18  C4  UNL     1      60.212  46.704  29.029  1.00  0.00     0.006 C
BRANCH  18  19
HETATM   19  C2  UNL     1      59.396  45.855  29.987  1.00  0.00    -0.023 C
HETATM   20  C1  UNL     1      57.915  46.052  29.809  1.00  0.00     0.009 C
HETATM   21  C3  UNL     1      59.760  46.103  31.415  1.00  0.00     0.009 C
ENDBRANCH  18  19
ENDBRANCH  17  18
ENDBRANCH  16  17
BRANCH  16  22
HETATM   22  O1  UNL     1      62.255  48.863  28.700  1.00  0.00    -0.395 OA
ATOM     23  H1  UNL     1      62.691  49.345  28.007  1.00  0.00     0.210 HD
ENDBRANCH  16  22
ENDBRANCH   1  16
TORSDOF 5
ENDMDL