MODEL 4
REMARK VINA RESULT: -9.085721045      2.664      4.726
REMARK  4 active torsions:
REMARK  status: ('A' for Active; 'I' for Inactive)
REMARK    1  A    between atoms: C2_2  and  C3_3
REMARK    2  A    between atoms: C2_2  and  C15_16
REMARK    3  A    between atoms: C3_3  and  C4_4
REMARK    4  A    between atoms: C4_4  and  N1_5
ROOT
HETATM    1  N1  UNL     1      65.794  47.129  32.323  1.00  0.00    -0.408 N
HETATM    2  C5  UNL     1      66.801  46.205  32.692  1.00  0.00     0.117 C
HETATM    3  C6  UNL     1      67.441  46.559  34.042  1.00  0.00     0.019 C
HETATM    4  C7  UNL     1      66.401  46.617  35.135  1.00  0.00     0.002 C
HETATM    5  C8  UNL     1      65.812  47.985  35.152  1.00  0.00     0.007 C
HETATM    6  C9  UNL     1      64.689  48.215  34.221  1.00  0.00     0.012 C
HETATM    7  C10 UNL     1      63.320  48.003  34.829  1.00  0.00    -0.013 C
HETATM    8  C11 UNL     1      62.966  49.154  35.712  1.00  0.00     0.010 C
HETATM    9  C12 UNL     1      62.440  47.847  33.631  1.00  0.00     0.007 C
HETATM   10  C13 UNL     1      63.358  47.595  32.428  1.00  0.00     0.026 C
HETATM   11  C14 UNL     1      64.626  47.180  33.085  1.00  0.00     0.083 C
ENDROOT
BRANCH   1  12
HETATM   12  C4  UNL     1      65.827  47.650  31.012  1.00  0.00     0.117 C
BRANCH  12  13
HETATM   13  C3  UNL     1      66.037  46.600  29.940  1.00  0.00     0.025 C
BRANCH  13  14
HETATM   14  C2  UNL     1      64.845  45.747  29.705  1.00  0.00    -0.002 C
HETATM   15  C1  UNL     1      65.157  44.325  29.692  1.00  0.00     0.011 C
BRANCH  14  16
HETATM   16  C15 UNL     1      64.106  46.304  28.500  1.00  0.00     0.059 C
HETATM   17  C16 UNL     1      62.622  46.632  28.886  1.00  0.00     0.043 C
HETATM   18  C17 UNL     1      62.391  48.134  28.942  1.00  0.00    -0.029 C
HETATM   19  C18 UNL     1      62.585  49.010  27.824  1.00  0.00    -0.030 C
HETATM   20  C19 UNL     1      63.921  49.712  27.550  1.00  0.00     0.038 C
HETATM   21  C20 UNL     1      65.079  48.673  27.356  1.00  0.00     0.084 C
HETATM   22  C21 UNL     1      64.611  47.457  27.876  1.00  0.00    -0.177 C
ENDBRANCH  14  16
ENDBRANCH  13  14
ENDBRANCH  12  13
ENDBRANCH   1  12
TORSDOF 4
ENDMDL