MODEL 3
REMARK VINA RESULT: -9.641411084      1.292      2.174
REMARK  4 active torsions:
REMARK  status: ('A' for Active; 'I' for Inactive)
REMARK    1  A    between atoms: C2_2  and  N1_3
REMARK    2  A    between atoms: N1_3  and  C3_6
REMARK    3  A    between atoms: C3_6  and  C4_7
REMARK    4  A    between atoms: C10_13  and  C11_14
ROOT
HETATM    1  C4  UNL     1      62.070  47.413  28.734  1.00  0.00     0.011 C
HETATM    2  C5  UNL     1      62.967  48.318  27.960  1.00  0.00     0.006 C
HETATM    3  C6  UNL     1      64.177  47.698  27.357  1.00  0.00     0.000 C
HETATM    4  C7  UNL     1      64.242  46.226  27.266  1.00  0.00     0.000 C
HETATM    5  C8  UNL     1      64.541  45.419  28.470  1.00  0.00     0.000 C
HETATM    6  C9  UNL     1      65.404  46.054  29.500  1.00  0.00     0.005 C
HETATM    7  C10 UNL     1      64.668  46.407  30.791  1.00  0.00    -0.006 C
HETATM    8  C21 UNL     1      63.737  47.559  30.639  1.00  0.00     0.006 C
HETATM    9  C22 UNL     1      62.356  47.246  30.158  1.00  0.00     0.007 C
ENDROOT
BRANCH   7  10
HETATM   10  C11 UNL     1      65.713  46.521  31.847  1.00  0.00    -0.036 C
HETATM   11  C12 UNL     1      65.914  45.221  32.653  1.00  0.00     0.014 C
HETATM   12  C13 UNL     1      67.116  45.320  33.549  1.00  0.00    -0.013 C
HETATM   13  C14 UNL     1      66.823  46.423  34.567  1.00  0.00     0.009 C
HETATM   14  C18 UNL     1      68.407  45.598  32.846  1.00  0.00     0.009 C
HETATM   15  C15 UNL     1      66.664  47.691  33.779  1.00  0.00    -0.013 C
HETATM   16  C16 UNL     1      67.917  48.016  33.007  1.00  0.00     0.009 C
HETATM   17  C20 UNL     1      65.479  47.603  32.838  1.00  0.00     0.014 C
HETATM   18  C17 UNL     1      68.204  46.888  32.080  1.00  0.00    -0.013 C
HETATM   19  C19 UNL     1      67.058  46.686  31.136  1.00  0.00     0.014 C
ENDBRANCH   7  10
BRANCH   1  20
HETATM   20  C3  UNL     1      60.649  47.934  28.512  1.00  0.00     0.237 C
BRANCH  20  21
HETATM   21  N1  UNL     1      59.642  47.030  29.001  1.00  0.00    -0.075 N
ATOM     22  H12 UNL     1      59.384  47.253  29.963  1.00  0.00     0.277 HD
ATOM     23  H11 UNL     1      60.025  46.096  29.147  1.00  0.00     0.277 HD
BRANCH  21  24
HETATM   24  C2  UNL     1      58.477  46.985  28.148  1.00  0.00     0.228 C
HETATM   25  C1  UNL     1      57.323  47.829  28.583  1.00  0.00     0.034 C
ENDBRANCH  21  24
ENDBRANCH  20  21
ENDBRANCH   1  20
TORSDOF 4
ENDMDL