MODEL 3
REMARK VINA RESULT: -10.557957530      0.891      1.360
REMARK  7 active torsions:
REMARK  status: ('A' for Active; 'I' for Inactive)
REMARK    1  A    between atoms: O1_2  and  C2_3
REMARK    2  A    between atoms: C5_6  and  C6_7
REMARK    3  A    between atoms: C6_7  and  C7_8
REMARK    4  A    between atoms: C9_10  and  N1_11
REMARK    5  A    between atoms: N1_11  and  C10_13
REMARK    6  A    between atoms: C13_16  and  S1_17
REMARK    7  A    between atoms: S1_17  and  N2_20
ROOT
HETATM    1  C7  UNL     1      12.678  21.263   5.139  1.00  0.00     0.018 A
HETATM    2  C8  UNL     1      12.051  21.984   6.117  1.00  0.00     0.057 A
HETATM    3  C9  UNL     1      12.746  22.287   7.305  1.00  0.00     0.066 A
HETATM    4  C20 UNL     1      14.033  21.866   7.483  1.00  0.00     0.112 A
HETATM    5  N5  UNL     1      14.934  21.983   8.456  1.00  0.00    -0.342 N
ATOM      6  H5  UNL     1      14.795  22.467   9.343  1.00  0.00     0.167 HD
HETATM    7  C21 UNL     1      16.064  21.351   8.072  1.00  0.00     0.236 A
HETATM    8  O4  UNL     1      15.860  20.849   6.872  1.00  0.00    -0.287 OA
HETATM    9  C22 UNL     1      14.639  21.135   6.469  1.00  0.00     0.178 A
HETATM   10  N6  UNL     1      13.949  20.857   5.334  1.00  0.00    -0.338 N
ATOM     11  H6  UNL     1      14.409  20.319   4.600  1.00  0.00     0.168 HD
ENDROOT
BRANCH   3  12
HETATM   12  N1  UNL     1      12.123  22.952   8.179  1.00  0.00    -0.354 N
ATOM     13  H1  UNL     1      12.282  22.732   9.162  1.00  0.00     0.166 HD
BRANCH  12  14
HETATM   14  C10 UNL     1      11.220  23.980   7.858  1.00  0.00     0.032 A
HETATM   15  C11 UNL     1      10.286  23.807   6.832  1.00  0.00     0.031 A
HETATM   16  C12 UNL     1       9.395  24.812   6.533  1.00  0.00     0.027 A
HETATM   17  C13 UNL     1       9.367  26.010   7.200  1.00  0.00     0.080 A
HETATM   18  C18 UNL     1      10.281  26.186   8.208  1.00  0.00     0.027 A
HETATM   19  C19 UNL     1      11.196  25.181   8.533  1.00  0.00     0.031 A
BRANCH  17  20
HETATM   20  S1  UNL     1       8.249  27.269   6.756  1.00  0.00     0.276 S
HETATM   21  O2  UNL     1       8.538  27.553   5.260  1.00  0.00    -0.200 OA
HETATM   22  O3  UNL     1       8.705  28.565   7.437  1.00  0.00    -0.200 OA
BRANCH  20  23
HETATM   23  N2  UNL     1       6.652  26.965   6.944  1.00  0.00    -0.112 N
HETATM   24  C14 UNL     1       5.666  26.542   6.316  1.00  0.00     0.691 A
HETATM   25  N3  UNL     1       4.440  26.465   6.956  1.00  0.00    -0.201 N
HETATM   26  N4  UNL     1       5.646  26.134   5.043  1.00  0.00    -0.201 N
HETATM   27  C15 UNL     1       3.335  26.026   6.370  1.00  0.00     0.107 A
ATOM     28  H3  UNL     1       4.384  26.762   7.930  1.00  0.00     0.183 HD
HETATM   29  C16 UNL     1       3.335  25.610   5.059  1.00  0.00     0.035 A
HETATM   30  C17 UNL     1       4.538  25.675   4.400  1.00  0.00     0.107 A
ATOM     31  H4  UNL     1       6.521  26.169   4.519  1.00  0.00     0.183 HD
ATOM     32  H2  UNL     1       6.372  27.201   7.896  1.00  0.00     0.197 HD
ENDBRANCH  20  23
ENDBRANCH  17  20
ENDBRANCH  12  14
ENDBRANCH   3  12
BRANCH   1  33
HETATM   33  C6  UNL     1      11.992  20.928   3.840  1.00  0.00     0.095 C
BRANCH  33  34
HETATM   34  C5  UNL     1      11.179  22.094   3.409  1.00  0.00    -0.051 A
HETATM   35  C4  UNL     1      11.778  23.281   3.061  1.00  0.00     0.010 A
HETATM   36  C3  UNL     1      11.009  24.366   2.670  1.00  0.00     0.039 A
HETATM   37  C2  UNL     1       9.636  24.313   2.612  1.00  0.00     0.085 A
HETATM   38  C24 UNL     1       9.037  23.124   2.961  1.00  0.00     0.044 A
HETATM   39  C23 UNL     1       9.800  22.045   3.350  1.00  0.00     0.029 A
HETATM   40 BR1  UNL     1       7.116  22.967   2.906  1.00  0.00    -0.048 Br
BRANCH  37  41
HETATM   41  O1  UNL     1       8.849  25.387   2.224  1.00  0.00    -0.355 OA
HETATM   42  C1  UNL     1       8.399  25.629   0.925  1.00  0.00     0.210 C
ENDBRANCH  37  41
ENDBRANCH  33  34
ENDBRANCH   1  33
TORSDOF 7
ENDMDL