MODEL 2
REMARK VINA RESULT: -10.008372160      3.533     12.860
REMARK  7 active torsions:
REMARK  status: ('A' for Active; 'I' for Inactive)
REMARK       I    between atoms: N1_2  and  C2_4
REMARK    1  A    between atoms: C2_4  and  C3_6
REMARK    2  A    between atoms: C3_6  and  N2_7
REMARK    3  A    between atoms: N2_7  and  C4_8
REMARK    4  A    between atoms: C9_15  and  C10_16
REMARK    5  A    between atoms: N4_20  and  C14_21
REMARK    6  A    between atoms: C14_21  and  C15_22
REMARK    7  A    between atoms: C15_22  and  N5_23
ROOT
HETATM    1  C4  UNL     1       9.365  25.197   5.765  1.00  0.00     0.146 A
HETATM    2  C5  UNL     1      10.479  24.549   6.148  1.00  0.00     0.134 A
HETATM    3  C6  UNL     1      11.334  23.646   5.412  1.00  0.00     0.140 A
HETATM    4  N3  UNL     1      12.566  23.287   5.936  1.00  0.00    -0.338 N
ATOM      5  H3  UNL     1      12.994  23.747   6.741  1.00  0.00     0.167 HD
HETATM    6  C7  UNL     1      13.113  22.309   5.296  1.00  0.00     0.061 A
HETATM    7  C8  UNL     1      14.314  21.612   5.409  1.00  0.00     0.043 A
HETATM    8  C9  UNL     1      14.674  20.590   4.568  1.00  0.00    -0.028 A
HETATM    9  C22 UNL     1      13.796  20.233   3.557  1.00  0.00     0.014 A
HETATM   10  C23 UNL     1      12.580  20.915   3.416  1.00  0.00     0.033 A
HETATM   11  C24 UNL     1      12.280  21.935   4.298  1.00  0.00     0.062 A
HETATM   12  N6  UNL     1      11.190  22.785   4.410  1.00  0.00    -0.334 N
HETATM   13  C25 UNL     1      10.024  22.478   3.611  1.00  0.00     0.158 C
HETATM   14  N7  UNL     1      10.920  24.878   7.428  1.00  0.00    -0.294 N
ATOM     15  H7  UNL     1      11.770  24.428   7.766  1.00  0.00     0.187 HD
HETATM   16  N8  UNL     1      10.330  25.710   8.217  1.00  0.00    -0.304 N
ATOM     17  H8  UNL     1      10.738  25.876   9.137  1.00  0.00     0.186 HD
HETATM   18  C26 UNL     1       9.219  26.361   7.896  1.00  0.00     0.035 A
HETATM   19  C27 UNL     1       8.698  26.128   6.663  1.00  0.00     0.009 A
HETATM   20  C28 UNL     1       7.424  26.758   6.257  1.00  0.00     0.044 C
HETATM   21  C29 UNL     1       6.599  26.811   7.564  1.00  0.00     0.005 C
HETATM   22  C30 UNL     1       7.289  27.836   8.430  1.00  0.00     0.006 C
HETATM   23  C31 UNL     1       8.602  27.283   8.885  1.00  0.00     0.059 C
ENDROOT
BRANCH   1  24
HETATM   24  N2  UNL     1       8.969  25.378   4.622  1.00  0.00    -0.409 NA
BRANCH  24  25
HETATM   25  C3  UNL     1       8.546  25.576   3.357  1.00  0.00     0.256 C
BRANCH  25  26
HETATM   26  C2  UNL     1       7.298  24.896   2.889  1.00  0.00     0.269 C
HETATM   27  N1  UNL     1       6.564  23.973   3.617  1.00  0.00    -0.360 N
HETATM   28  C1  UNL     1       5.347  23.328   3.129  1.00  0.00     0.149 C
ATOM     29  H1  UNL     1       6.894  23.729   4.551  1.00  0.00     0.162 HD
HETATM   30  O1  UNL     1       6.909  25.225   1.715  1.00  0.00    -0.266 OA
ENDBRANCH  25  26
ENDBRANCH  24  25
ENDBRANCH   1  24
BRANCH   8  31
HETATM   31  C10 UNL     1      15.950  19.913   4.636  1.00  0.00    -0.050 C
HETATM   32  C11 UNL     1      16.814  20.179   5.630  1.00  0.00    -0.014 C
HETATM   33  C12 UNL     1      18.159  19.600   5.875  1.00  0.00     0.072 C
HETATM   34  C13 UNL     1      18.167  18.081   5.961  1.00  0.00     0.067 C
HETATM   35  N4  UNL     1      17.802  17.410   4.820  1.00  0.00    -0.372 N
HETATM   36  C20 UNL     1      16.436  17.587   4.381  1.00  0.00     0.131 C
HETATM   37  C21 UNL     1      16.260  18.888   3.611  1.00  0.00     0.059 C
BRANCH  35  38
HETATM   38  C14 UNL     1      18.592  16.643   3.978  1.00  0.00     0.093 C
BRANCH  38  39
HETATM   39  C15 UNL     1      19.631  15.825   4.670  1.00  0.00     0.317 C
BRANCH  39  40
HETATM   40  N5  UNL     1      19.162  14.539   5.079  1.00  0.00     0.093 N
HETATM   41  C16 UNL     1      18.943  14.533   6.499  1.00  0.00     0.273 C
HETATM   42  C17 UNL     1      20.081  13.781   7.150  1.00  0.00     0.032 C
HETATM   43  C18 UNL     1      20.847  13.175   6.023  1.00  0.00     0.032 C
HETATM   44  C19 UNL     1      20.051  13.456   4.768  1.00  0.00     0.273 C
ENDBRANCH  39  40
ENDBRANCH  38  39
ENDBRANCH  35  38
ENDBRANCH   8  31
TORSDOF 7
ENDMDL