MODEL 5
REMARK VINA RESULT: -10.089535302      3.055      5.319
REMARK  9 active torsions:
REMARK  status: ('A' for Active; 'I' for Inactive)
REMARK    1  A    between atoms: C2_2  and  S1_3
REMARK    2  A    between atoms: S1_3  and  N1_6
REMARK    3  A    between atoms: C5_9  and  N2_10
REMARK    4  A    between atoms: N2_10  and  C6_12
REMARK    5  A    between atoms: C8_14  and  C9_15
REMARK    6  A    between atoms: C9_15  and  C10_16
REMARK    7  A    between atoms: C10_16  and  C11_17
REMARK    8  A    between atoms: C15_23  and  N4_24
REMARK    9  A    between atoms: N4_24  and  C16_26
ROOT
HETATM    1  C9  UNL     1      13.509  23.068   7.464  1.00  0.00     0.046 C
ENDROOT
BRANCH   1   2
HETATM    2  C8  UNL     1      12.068  23.467   7.374  1.00  0.00    -0.031 A
HETATM    3  C7  UNL     1      11.610  24.605   8.002  1.00  0.00     0.057 A
HETATM    4  C6  UNL     1      10.262  24.929   7.891  1.00  0.00     0.101 A
HETATM    5  N7  UNL     1       9.407  24.164   7.193  1.00  0.00    -0.351 N
HETATM    6  C24 UNL     1       9.831  23.036   6.564  1.00  0.00     0.114 A
ATOM      7  H7  UNL     1       8.425  24.432   7.133  1.00  0.00     0.166 HD
HETATM    8  C23 UNL     1      11.167  22.701   6.666  1.00  0.00     0.055 A
HETATM    9 CL1  UNL     1      11.744  21.258   5.862  1.00  0.00    -0.082 Cl
BRANCH   4  10
HETATM   10  N2  UNL     1       9.875  25.998   8.490  1.00  0.00    -0.372 N
ATOM     11  H2  UNL     1      10.111  26.094   9.478  1.00  0.00     0.161 HD
BRANCH  10  12
HETATM   12  C5  UNL     1       9.133  27.074   7.876  1.00  0.00     0.086 C
HETATM   13  C4  UNL     1       8.884  26.836   6.400  1.00  0.00     0.045 C
HETATM   14  C3  UNL     1       7.544  27.410   5.970  1.00  0.00     0.137 C
HETATM   15  N1  UNL     1       6.511  26.637   6.578  1.00  0.00    -0.311 N
HETATM   16  C26 UNL     1       6.715  26.391   7.978  1.00  0.00     0.137 C
HETATM   17  C25 UNL     1       7.796  27.275   8.565  1.00  0.00     0.045 C
BRANCH  15  18
HETATM   18  S1  UNL     1       4.923  27.019   6.127  1.00  0.00     0.228 S
HETATM   19  O1  UNL     1       4.012  25.960   6.721  1.00  0.00    -0.206 OA
HETATM   20  O2  UNL     1       4.798  26.906   4.637  1.00  0.00    -0.206 OA
BRANCH  18  21
HETATM   21  C2  UNL     1       4.337  28.576   6.676  1.00  0.00     0.159 C
HETATM   22  C1  UNL     1       3.173  28.533   7.604  1.00  0.00     0.023 C
ENDBRANCH  18  21
ENDBRANCH  15  18
ENDBRANCH  10  12
ENDBRANCH   4  10
ENDBRANCH   1   2
BRANCH   1  23
HETATM   23  C10 UNL     1      13.651  22.151   8.656  1.00  0.00     0.062 C
BRANCH  23  24
HETATM   24  C11 UNL     1      14.774  21.191   8.471  1.00  0.00     0.028 A
HETATM   25  C12 UNL     1      15.166  20.327   9.463  1.00  0.00     0.050 A
HETATM   26  C13 UNL     1      16.218  19.474   9.195  1.00  0.00     0.024 A
HETATM   27  C14 UNL     1      16.677  18.519  10.247  1.00  0.00     0.068 C
HETATM   28  N3  UNL     1      16.813  19.521   7.986  1.00  0.00    -0.196 N
HETATM   29  C15 UNL     1      16.413  20.376   7.025  1.00  0.00     0.684 A
ATOM     30  H3  UNL     1      17.591  18.889   7.793  1.00  0.00     0.184 HD
HETATM   31  N6  UNL     1      15.391  21.216   7.261  1.00  0.00    -0.195 N
ATOM     32  H6  UNL     1      15.081  21.866   6.540  1.00  0.00     0.184 HD
BRANCH  29  33
HETATM   33  N4  UNL     1      17.012  20.396   5.861  1.00  0.00    -0.176 N
ATOM     34  H4  UNL     1      17.963  20.759   5.790  1.00  0.00     0.186 HD
BRANCH  33  35
HETATM   35  C16 UNL     1      16.352  19.918   4.696  1.00  0.00     0.127 A
HETATM   36  N5  UNL     1      15.193  20.516   4.294  1.00  0.00    -0.351 N
HETATM   37  C17 UNL     1      14.549  20.081   3.196  1.00  0.00     0.090 A
ATOM     38  H5  UNL     1      14.812  21.297   4.829  1.00  0.00     0.166 HD
HETATM   39  C18 UNL     1      15.051  19.024   2.461  1.00  0.00     0.024 A
HETATM   40  C19 UNL     1      16.233  18.418   2.872  1.00  0.00    -0.051 A
HETATM   41  C20 UNL     1      16.766  17.297   2.092  1.00  0.00     0.049 C
HETATM   42  C21 UNL     1      16.889  18.863   3.994  1.00  0.00    -0.011 A
HETATM   43  C22 UNL     1      18.137  18.209   4.413  1.00  0.00     0.052 C
ENDBRANCH  33  35
ENDBRANCH  29  33
ENDBRANCH  23  24
ENDBRANCH   1  23
TORSDOF 9
ENDMDL