MODEL 4
REMARK VINA RESULT: -9.847230959      3.289      8.801
REMARK  7 active torsions:
REMARK  status: ('A' for Active; 'I' for Inactive)
REMARK    1  A    between atoms: N1_2  and  C2_5
REMARK    2  A    between atoms: C2_5  and  C3_6
REMARK    3  A    between atoms: C3_6  and  C4_7
REMARK    4  A    between atoms: C15_19  and  C16_20
REMARK    5  A    between atoms: C16_20  and  N2_21
REMARK    6  A    between atoms: N2_21  and  S1_23
REMARK    7  A    between atoms: S1_23  and  C17_26
ROOT
HETATM    1  C4  UNL     1       6.378  26.654   5.552  1.00  0.00    -0.022 A
HETATM    2  C5  UNL     1       4.991  26.428   5.373  1.00  0.00     0.024 A
HETATM    3 BR1  UNL     1       3.831  27.359   6.545  1.00  0.00    -0.050 Br
HETATM    4  C6  UNL     1       4.484  25.619   4.400  1.00  0.00    -0.043 A
HETATM    5  C7  UNL     1       3.029  25.444   4.295  1.00  0.00     0.049 C
HETATM    6  C8  UNL     1       5.330  24.970   3.526  1.00  0.00     0.020 A
HETATM    7  C9  UNL     1       6.684  25.151   3.647  1.00  0.00    -0.019 A
HETATM    8  C10 UNL     1       7.389  24.420   2.707  1.00  0.00     0.021 C
HETATM    9  C11 UNL     1       8.732  24.119   2.749  1.00  0.00    -0.032 C
HETATM   10  C12 UNL     1       9.337  23.285   1.682  1.00  0.00     0.050 C
HETATM   11  C13 UNL     1       9.662  24.513   3.715  1.00  0.00     0.068 A
HETATM   12  C14 UNL     1      10.895  23.959   3.891  1.00  0.00     0.064 A
HETATM   13  C15 UNL     1      11.501  24.621   4.936  1.00  0.00     0.067 A
HETATM   14  N3  UNL     1      10.657  25.556   5.385  1.00  0.00    -0.289 N
ATOM     15  H3  UNL     1      10.833  26.202   6.154  1.00  0.00     0.188 HD
HETATM   16  N4  UNL     1       9.568  25.497   4.668  1.00  0.00    -0.219 N
HETATM   17  C25 UNL     1       8.516  26.305   4.854  1.00  0.00     0.278 C
HETATM   18  O3  UNL     1       8.728  27.467   5.237  1.00  0.00    -0.265 OA
HETATM   19  C26 UNL     1       7.188  25.998   4.664  1.00  0.00     0.052 A
ENDROOT
BRANCH  13  20
HETATM   20  C16 UNL     1      12.887  24.296   5.442  1.00  0.00     0.131 C
BRANCH  20  21
HETATM   21  N2  UNL     1      12.803  23.582   6.638  1.00  0.00    -0.289 N
ATOM     22  H2  UNL     1      12.741  24.089   7.521  1.00  0.00     0.178 HD
BRANCH  21  23
HETATM   23  S1  UNL     1      12.802  21.910   6.648  1.00  0.00     0.263 S
HETATM   24  O1  UNL     1      11.346  21.452   6.655  1.00  0.00    -0.200 OA
HETATM   25  O2  UNL     1      13.309  21.471   8.033  1.00  0.00    -0.200 OA
BRANCH  23  26
HETATM   26  C17 UNL     1      13.723  21.079   5.463  1.00  0.00     0.085 A
HETATM   27  C18 UNL     1      13.073  20.719   4.271  1.00  0.00     0.026 A
HETATM   28  C19 UNL     1      13.665  20.012   3.260  1.00  0.00     0.008 A
HETATM   29  C20 UNL     1      14.971  19.616   3.382  1.00  0.00    -0.061 A
HETATM   30  C21 UNL     1      15.658  18.844   2.307  1.00  0.00     0.048 C
HETATM   31  C22 UNL     1      15.630  19.956   4.535  1.00  0.00     0.015 A
HETATM   32  C23 UNL     1      15.024  20.670   5.552  1.00  0.00    -0.038 A
HETATM   33  C24 UNL     1      15.842  21.026   6.723  1.00  0.00     0.050 C
ENDBRANCH  23  26
ENDBRANCH  21  23
ENDBRANCH  20  21
ENDBRANCH  13  20
BRANCH   1  34
HETATM   34  C3  UNL     1       6.809  27.476   6.654  1.00  0.00     0.068 C
BRANCH  34  35
HETATM   35  C2  UNL     1       6.928  26.444   7.829  1.00  0.00     0.236 C
BRANCH  35  36
HETATM   36  N1  UNL     1       8.313  26.276   8.220  1.00  0.00    -0.079 N
HETATM   37  C1  UNL     1       8.560  24.880   8.524  1.00  0.00     0.267 C
ATOM     38  H12 UNL     1       8.575  26.893   8.990  1.00  0.00     0.276 HD
ATOM     39  H11 UNL     1       8.959  26.639   7.518  1.00  0.00     0.276 HD
ENDBRANCH  35  36
ENDBRANCH  34  35
ENDBRANCH   1  34
TORSDOF 7
ENDMDL