MODEL 4
REMARK VINA RESULT: -8.045263041      4.768     10.096
REMARK  8 active torsions:
REMARK  status: ('A' for Active; 'I' for Inactive)
REMARK    1  A    between atoms: C2_2  and  C3_4
REMARK       I    between atoms: N1_7  and  C6_8
REMARK    2  A    between atoms: C10_14  and  N2_15
REMARK       I    between atoms: N2_15  and  C11_17
REMARK    3  A    between atoms: C11_17  and  C12_19
REMARK    4  A    between atoms: C12_19  and  S2_20
REMARK    5  A    between atoms: S2_20  and  C13_21
REMARK    6  A    between atoms: C13_21  and  C14_22
REMARK    7  A    between atoms: C14_22  and  N3_23
REMARK    8  A    between atoms: C21_30  and  C22_31
ROOT
HETATM    1  C3  UNL     1      14.521  20.889   3.851  1.00  0.00     0.035 C
HETATM    2  C4  UNL     1      14.383  20.991   2.391  1.00  0.00     0.028 C
HETATM    3  C5  UNL     1      14.621  22.396   4.254  1.00  0.00     0.145 C
HETATM    4  N1  UNL     1      14.322  22.561   5.616  1.00  0.00    -0.346 N
HETATM    5  C6  UNL     1      13.572  23.646   6.134  1.00  0.00     0.216 C
HETATM    6  C7  UNL     1      13.254  23.804   7.580  1.00  0.00     0.117 C
HETATM    7  O1  UNL     1      13.160  24.518   5.296  1.00  0.00    -0.274 OA
HETATM    8  C8  UNL     1      14.827  21.582   6.517  1.00  0.00     0.172 C
HETATM    9  C9  UNL     1      15.760  20.642   5.846  1.00  0.00     0.011 A
HETATM   10  S1  UNL     1      17.067  19.842   6.484  1.00  0.00    -0.074 SA
HETATM   11  C10 UNL     1      17.564  18.934   5.133  1.00  0.00     0.093 A
HETATM   12  C21 UNL     1      16.641  19.292   4.135  1.00  0.00     0.071 A
HETATM   13  C23 UNL     1      15.678  20.205   4.508  1.00  0.00    -0.010 A
ENDROOT
BRANCH  11  14
HETATM   14  N2  UNL     1      18.668  18.017   5.117  1.00  0.00    -0.320 N
HETATM   15  C11 UNL     1      18.354  16.621   5.156  1.00  0.00     0.231 C
HETATM   16  O2  UNL     1      17.157  16.277   5.212  1.00  0.00    -0.272 OA
ATOM     17  H2  UNL     1      19.633  18.345   5.079  1.00  0.00     0.169 HD
BRANCH  15  18
HETATM   18  C12 UNL     1      19.370  15.570   5.126  1.00  0.00     0.177 C
BRANCH  18  19
HETATM   19  S2  UNL     1      18.965  14.280   6.311  1.00  0.00    -0.155 SA
BRANCH  19  20
HETATM   20  C13 UNL     1      19.731  14.626   7.888  1.00  0.00     0.119 C
BRANCH  20  21
HETATM   21  C14 UNL     1      18.732  14.658   8.991  1.00  0.00     0.073 C
BRANCH  21  22
HETATM   22  N3  UNL     1      18.577  15.802   9.770  1.00  0.00    -0.373 N
HETATM   23  C15 UNL     1      17.969  15.807  11.031  1.00  0.00     0.063 C
HETATM   24  C16 UNL     1      16.444  15.802  10.954  1.00  0.00     0.044 C
HETATM   25  C17 UNL     1      15.907  17.154  10.601  1.00  0.00     0.005 C
HETATM   26  C18 UNL     1      16.903  18.269  10.662  1.00  0.00     0.002 C
HETATM   27  C19 UNL     1      18.063  18.149   9.738  1.00  0.00     0.020 C
HETATM   28  C20 UNL     1      18.131  16.903   8.924  1.00  0.00     0.127 C
ENDBRANCH  21  22
ENDBRANCH  20  21
ENDBRANCH  19  20
ENDBRANCH  18  19
ENDBRANCH  15  18
ENDBRANCH  11  14
BRANCH  12  29
HETATM   29  C22 UNL     1      16.794  18.608   2.849  1.00  0.00     0.268 C
HETATM   30  N4  UNL     1      15.913  17.856   2.073  1.00  0.00    -0.057 NA
HETATM   31  O3  UNL     1      17.940  18.655   2.252  1.00  0.00    -0.271 OA
ENDBRANCH  12  29
BRANCH   1  32
HETATM   32  C2  UNL     1      13.270  20.279   4.415  1.00  0.00    -0.006 C
HETATM   33  C1  UNL     1      13.325  19.059   4.935  1.00  0.00     0.028 C
HETATM   34 BR1  UNL     1      11.623  21.235   4.341  1.00  0.00    -0.055 Br
ENDBRANCH   1  32
TORSDOF 8
ENDMDL