MODEL 1
REMARK VINA RESULT: -9.107716812      0.000      0.000
REMARK  8 active torsions:
REMARK  status: ('A' for Active; 'I' for Inactive)
REMARK    1  A    between atoms: O1_2  and  C2_3
REMARK    2  A    between atoms: C5_6  and  N1_7
REMARK    3  A    between atoms: N1_7  and  C6_9
REMARK    4  A    between atoms: C9_12  and  N2_13
REMARK    5  A    between atoms: C19_29  and  O2_30
REMARK    6  A    between atoms: O2_30  and  C20_31
REMARK    7  A    between atoms: C20_31  and  C21_32
REMARK    8  A    between atoms: C21_32  and  N6_33
ROOT
HETATM    1  C2  UNL     1      14.847  19.959   3.810  1.00  0.00     0.102 A
HETATM    2  C3  UNL     1      14.362  21.197   4.104  1.00  0.00     0.057 A
HETATM    3  C4  UNL     1      14.852  21.913   5.196  1.00  0.00     0.040 A
HETATM    4  C5  UNL     1      14.560  23.147   5.718  1.00  0.00     0.133 A
HETATM    5  N4  UNL     1      15.387  23.294   6.814  1.00  0.00    -0.284 N
ATOM      6  H4  UNL     1      15.414  24.110   7.425  1.00  0.00     0.188 HD
HETATM    7  N5  UNL     1      16.128  22.231   6.949  1.00  0.00    -0.298 N
ATOM      8  H5  UNL     1      16.823  22.093   7.682  1.00  0.00     0.187 HD
HETATM    9  C17 UNL     1      15.847  21.349   5.989  1.00  0.00     0.065 A
HETATM   10  C18 UNL     1      16.322  20.087   5.666  1.00  0.00     0.071 A
HETATM   11  C19 UNL     1      15.838  19.388   4.591  1.00  0.00     0.104 A
ENDROOT
BRANCH   4  12
HETATM   12  N1  UNL     1      13.738  24.015   5.347  1.00  0.00    -0.341 N
ATOM     13  H1  UNL     1      13.949  24.408   4.429  1.00  0.00     0.167 HD
BRANCH  12  14
HETATM   14  C6  UNL     1      12.617  24.543   5.920  1.00  0.00     0.035 A
HETATM   15  C7  UNL     1      12.580  24.851   7.289  1.00  0.00     0.032 A
HETATM   16  C8  UNL     1      11.491  25.407   7.905  1.00  0.00     0.033 A
HETATM   17  C9  UNL     1      10.333  25.705   7.183  1.00  0.00     0.048 A
HETATM   18  C15 UNL     1      10.353  25.410   5.838  1.00  0.00     0.039 A
HETATM   19 BR1  UNL     1       8.758  25.825   4.839  1.00  0.00    -0.049 Br
HETATM   20  C16 UNL     1      11.444  24.851   5.214  1.00  0.00     0.051 A
BRANCH  17  21
HETATM   21  N2  UNL     1       9.221  26.276   7.850  1.00  0.00    -0.376 N
HETATM   22  C10 UNL     1       9.123  27.715   7.964  1.00  0.00     0.153 C
HETATM   23  C11 UNL     1       7.756  28.221   7.615  1.00  0.00     0.291 C
HETATM   24  N3  UNL     1       6.955  27.165   7.080  1.00  0.00     0.087 N
HETATM   25  C12 UNL     1       5.703  27.577   6.526  1.00  0.00     0.310 C
HETATM   26  C13 UNL     1       6.794  26.043   7.984  1.00  0.00     0.291 C
HETATM   27  C14 UNL     1       8.136  25.513   8.442  1.00  0.00     0.153 C
ENDBRANCH  17  21
ENDBRANCH  12  14
ENDBRANCH   4  12
BRANCH   1  28
HETATM   28  O1  UNL     1      14.320  19.285   2.704  1.00  0.00    -0.353 OA
HETATM   29  C1  UNL     1      14.796  19.538   1.398  1.00  0.00     0.210 C
ENDBRANCH   1  28
BRANCH  11  30
HETATM   30  O2  UNL     1      16.253  18.139   4.198  1.00  0.00    -0.346 OA
BRANCH  30  31
HETATM   31  C20 UNL     1      17.301  17.777   3.409  1.00  0.00     0.206 C
BRANCH  31  32
HETATM   32  C21 UNL     1      18.522  17.380   4.171  1.00  0.00     0.299 C
BRANCH  32  33
HETATM   33  N6  UNL     1      18.190  16.412   5.233  1.00  0.00     0.093 N
HETATM   34  C22 UNL     1      18.531  17.009   6.509  1.00  0.00     0.302 C
HETATM   35  C23 UNL     1      18.599  15.962   7.607  1.00  0.00     0.302 C
HETATM   36  N7  UNL     1      19.708  15.063   7.331  1.00  0.00     0.087 N
HETATM   37  C24 UNL     1      20.837  15.365   8.184  1.00  0.00     0.310 C
HETATM   38  C25 UNL     1      20.111  15.108   5.953  1.00  0.00     0.302 C
HETATM   39  C26 UNL     1      18.943  15.194   4.996  1.00  0.00     0.302 C
ENDBRANCH  32  33
ENDBRANCH  31  32
ENDBRANCH  30  31
ENDBRANCH  11  30
TORSDOF 8
ENDMDL