MODEL 1
REMARK VINA RESULT: -9.975516183      0.000      0.000
REMARK  7 active torsions:
REMARK  status: ('A' for Active; 'I' for Inactive)
REMARK    1  A    between atoms: O1_2  and  C2_3
REMARK    2  A    between atoms: C5_7  and  C6_8
REMARK    3  A    between atoms: C6_8  and  C7_10
REMARK    4  A    between atoms: C9_12  and  S1_13
REMARK    5  A    between atoms: S1_13  and  N1_16
REMARK    6  A    between atoms: C17_26  and  C18_27
REMARK    7  A    between atoms: C18_27  and  C19_28
ROOT
HETATM    1  C2  UNL     1       9.737  25.046   7.137  1.00  0.00     0.076 A
HETATM    2  C3  UNL     1      10.515  24.193   7.874  1.00  0.00     0.062 A
HETATM    3  C4  UNL     1      11.723  23.695   7.460  1.00  0.00     0.051 A
HETATM    4 CL1  UNL     1      12.634  22.608   8.481  1.00  0.00    -0.083 Cl
HETATM    5  C5  UNL     1      12.165  24.105   6.201  1.00  0.00     0.039 A
HETATM    6  C16 UNL     1      11.396  24.962   5.447  1.00  0.00     0.027 A
HETATM    7  C17 UNL     1      10.196  25.443   5.877  1.00  0.00    -0.018 A
ENDROOT
BRANCH   5   8
HETATM    8  C6  UNL     1      13.443  23.537   5.776  1.00  0.00     0.210 C
HETATM    9  O2  UNL     1      14.554  24.043   6.061  1.00  0.00    -0.285 OA
BRANCH   8  10
HETATM   10  C7  UNL     1      13.417  22.311   4.975  1.00  0.00     0.085 A
HETATM   11  C8  UNL     1      14.483  21.547   4.558  1.00  0.00     0.059 A
HETATM   12  C9  UNL     1      14.012  20.478   3.829  1.00  0.00     0.092 A
HETATM   13  C15 UNL     1      12.631  20.636   3.825  1.00  0.00     0.113 A
HETATM   14  N2  UNL     1      12.271  21.724   4.504  1.00  0.00    -0.361 N
ATOM     15  H2  UNL     1      11.318  22.058   4.647  1.00  0.00     0.165 HD
BRANCH  12  16
HETATM   16  S1  UNL     1      14.917  19.192   3.077  1.00  0.00     0.245 S
HETATM   17  O3  UNL     1      14.292  17.868   3.498  1.00  0.00    -0.206 OA
HETATM   18  O4  UNL     1      14.688  19.321   1.575  1.00  0.00    -0.206 OA
BRANCH  16  19
HETATM   19  N1  UNL     1      16.582  19.217   3.448  1.00  0.00    -0.206 NA
HETATM   20  C10 UNL     1      16.933  18.758   4.753  1.00  0.00     0.107 C
HETATM   21  C11 UNL     1      18.314  18.097   4.760  1.00  0.00     0.015 C
HETATM   22  C12 UNL     1      18.309  16.836   3.944  1.00  0.00     0.002 C
HETATM   23  C13 UNL     1      17.446  17.056   2.723  1.00  0.00     0.015 C
HETATM   24  C14 UNL     1      17.336  18.519   2.452  1.00  0.00     0.107 C
ENDBRANCH  16  19
ENDBRANCH  12  16
ENDBRANCH   8  10
ENDBRANCH   5   8
BRANCH   7  25
HETATM   25  C18 UNL     1       9.350  26.330   5.072  1.00  0.00     0.100 C
BRANCH  25  26
HETATM   26  C19 UNL     1       8.350  25.581   4.334  1.00  0.00     0.037 A
HETATM   27  N3  UNL     1       7.053  25.704   4.698  1.00  0.00    -0.301 N
HETATM   28  N4  UNL     1       6.052  25.045   4.210  1.00  0.00    -0.266 N
ATOM     29  H3  UNL     1       6.844  26.383   5.429  1.00  0.00     0.186 HD
HETATM   30  C20 UNL     1       6.312  24.147   3.245  1.00  0.00     0.266 A
ATOM     31  H4  UNL     1       5.102  25.201   4.545  1.00  0.00     0.190 HD
HETATM   32  O5  UNL     1       5.342  23.482   2.750  1.00  0.00    -0.266 OA
HETATM   33  C21 UNL     1       7.597  23.948   2.803  1.00  0.00     0.019 A
HETATM   34  C22 UNL     1       8.632  24.671   3.346  1.00  0.00    -0.022 A
HETATM   35  C26 UNL     1       7.754  22.919   1.731  1.00  0.00     0.045 C
HETATM   36  C23 UNL     1       9.975  24.545   2.790  1.00  0.00     0.041 C
HETATM   37  C24 UNL     1      10.128  23.212   2.096  1.00  0.00     0.005 C
HETATM   38  C25 UNL     1       9.077  23.116   1.010  1.00  0.00     0.005 C
ENDBRANCH  25  26
ENDBRANCH   7  25
BRANCH   1  39
HETATM   39  O1  UNL     1       8.547  25.522   7.583  1.00  0.00    -0.355 OA
HETATM   40  C1  UNL     1       8.412  26.412   8.680  1.00  0.00     0.210 C
ENDBRANCH   1  39
TORSDOF 7
ENDMDL