MODEL 5
REMARK VINA RESULT: -9.693941238      1.164      2.496
REMARK  7 active torsions:
REMARK  status: ('A' for Active; 'I' for Inactive)
REMARK    1  A    between atoms: O1_2  and  C2_3
REMARK    2  A    between atoms: C7_8  and  O2_9
REMARK    3  A    between atoms: N1_17  and  C15_18
REMARK    4  A    between atoms: C15_18  and  C16_19
REMARK    5  A    between atoms: C16_19  and  C17_20
REMARK    6  A    between atoms: C20_27  and  C21_28
REMARK       I    between atoms: C21_28  and  N3_30
REMARK    7  A    between atoms: N4_33  and  C24_34
ROOT
HETATM    1  C17 UNL     1      15.517  20.148   5.003  1.00  0.00     0.387 C
HETATM    2  N2  UNL     1      15.713  20.040   6.429  1.00  0.00    -0.029 N
ATOM      3  H21 UNL     1      15.420  19.121   6.761  1.00  0.00     0.281 HD
ATOM      4  H22 UNL     1      15.043  20.626   6.927  1.00  0.00     0.281 HD
HETATM    5  C18 UNL     1      17.063  20.330   6.864  1.00  0.00     0.286 C
HETATM    6 CL1  UNL     1      17.241  19.698   8.516  1.00  0.00    -0.095 Cl
HETATM    7  C19 UNL     1      18.111  19.657   6.003  1.00  0.00     0.092 C
HETATM    8  C20 UNL     1      17.313  18.684   5.109  1.00  0.00     0.282 C
HETATM    9  N5  UNL     1      16.592  19.602   4.219  1.00  0.00    -0.033 N
ATOM     10  H51 UNL     1      17.190  20.313   3.796  1.00  0.00     0.280 HD
ATOM     11  H52 UNL     1      16.283  19.168   3.350  1.00  0.00     0.280 HD
ENDROOT
BRANCH   1  12
HETATM   12  C16 UNL     1      15.127  21.554   4.633  1.00  0.00     0.093 C
BRANCH  12  13
HETATM   13  C15 UNL     1      14.694  22.350   5.840  1.00  0.00     0.276 C
BRANCH  13  14
HETATM   14  N1  UNL     1      13.342  22.856   5.693  1.00  0.00     0.088 N
HETATM   15  C14 UNL     1      12.839  23.252   6.986  1.00  0.00     0.273 C
HETATM   16  C13 UNL     1      11.338  23.525   6.927  1.00  0.00     0.049 C
HETATM   17  C9  UNL     1      11.041  24.353   5.695  1.00  0.00     0.009 A
HETATM   18  C5  UNL     1       9.992  25.345   5.981  1.00  0.00    -0.032 A
HETATM   19  C10 UNL     1      10.506  23.569   4.573  1.00  0.00    -0.005 A
HETATM   20  C30 UNL     1      12.348  25.030   5.296  1.00  0.00     0.049 C
HETATM   21  C4  UNL     1       8.954  25.132   5.091  1.00  0.00    -0.020 A
HETATM   22  C6  UNL     1       9.887  26.365   6.913  1.00  0.00     0.048 A
HETATM   23  C3  UNL     1       7.855  25.949   5.173  1.00  0.00     0.052 A
HETATM   24  C11 UNL     1       9.305  24.014   4.225  1.00  0.00    -0.054 A
HETATM   25  C2  UNL     1       7.730  26.974   6.098  1.00  0.00     0.102 A
HETATM   26  C7  UNL     1       8.775  27.181   6.984  1.00  0.00     0.102 A
HETATM   27  C12 UNL     1       8.467  23.460   3.132  1.00  0.00     0.049 C
HETATM   28  C29 UNL     1      13.278  23.960   4.766  1.00  0.00     0.273 C
BRANCH  25  29
HETATM   29  O1  UNL     1       6.609  27.790   6.165  1.00  0.00    -0.353 OA
HETATM   30  C1  UNL     1       5.475  27.333   6.881  1.00  0.00     0.210 C
ENDBRANCH  25  29
BRANCH  26  31
HETATM   31  O2  UNL     1       8.693  28.201   7.930  1.00  0.00    -0.353 OA
HETATM   32  C8  UNL     1       8.242  27.903   9.237  1.00  0.00     0.210 C
ENDBRANCH  26  31
ENDBRANCH  13  14
ENDBRANCH  12  13
ENDBRANCH   1  12
BRANCH   8  33
HETATM   33  C21 UNL     1      18.171  17.769   4.364  1.00  0.00     0.251 C
HETATM   34  O3  UNL     1      18.492  18.072   3.173  1.00  0.00    -0.271 OA
HETATM   35  N3  UNL     1      18.649  16.571   4.915  1.00  0.00    -0.347 N
HETATM   36  C22 UNL     1      19.555  15.676   4.181  1.00  0.00     0.156 C
HETATM   37  C28 UNL     1      18.260  16.122   6.222  1.00  0.00     0.156 C
HETATM   38  C23 UNL     1      19.620  14.387   4.929  1.00  0.00     0.292 C
HETATM   39  N4  UNL     1      20.144  14.560   6.268  1.00  0.00     0.095 N
HETATM   40  C27 UNL     1      19.571  15.742   6.930  1.00  0.00     0.292 C
BRANCH  39  41
HETATM   41  C24 UNL     1      19.762  13.441   7.114  1.00  0.00     0.215 C
HETATM   42  C25 UNL     1      19.970  13.823   8.560  1.00  0.00     0.042 C
HETATM   43  C26 UNL     1      20.447  12.162   6.765  1.00  0.00     0.042 C
ENDBRANCH  39  41
ENDBRANCH   8  33
TORSDOF 7
ENDMDL