MODEL 3
REMARK VINA RESULT: -9.170801484      5.587      9.309
REMARK  7 active torsions:
REMARK  status: ('A' for Active; 'I' for Inactive)
REMARK    1  A    between atoms: N1_2  and  S1_4
REMARK    2  A    between atoms: S1_4  and  C3_7
REMARK    3  A    between atoms: C6_10  and  S2_11
REMARK    4  A    between atoms: S2_11  and  N2_14
REMARK    5  A    between atoms: N2_14  and  C7_16
REMARK    6  A    between atoms: C11_20  and  C12_21
REMARK    7  A    between atoms: C14_27  and  C15_28
ROOT
HETATM    1  C7  UNL     1      15.146  19.203   4.688  1.00  0.00     0.043 A
HETATM    2  C8  UNL     1      13.817  19.222   4.380  1.00  0.00     0.030 A
HETATM    3  C9  UNL     1      13.028  20.212   4.975  1.00  0.00     0.003 A
HETATM    4  C10 UNL     1      13.561  21.140   5.843  1.00  0.00     0.014 A
HETATM    5  C11 UNL     1      14.907  21.134   6.165  1.00  0.00    -0.005 A
HETATM    6  C21 UNL     1      15.670  20.159   5.576  1.00  0.00     0.043 A
ENDROOT
BRANCH   1   7
HETATM    7  N2  UNL     1      16.045  18.244   4.158  1.00  0.00    -0.279 N
ATOM      8  H2  UNL     1      15.631  17.470   3.639  1.00  0.00     0.179 HD
BRANCH   7   9
HETATM    9  S2  UNL     1      17.744  18.247   4.295  1.00  0.00     0.278 S
HETATM   10  O3  UNL     1      18.196  19.571   4.884  1.00  0.00    -0.199 OA
HETATM   11  O4  UNL     1      18.414  18.135   2.946  1.00  0.00    -0.199 OA
BRANCH   9  12
HETATM   12  C6  UNL     1      18.295  16.916   5.265  1.00  0.00     0.149 A
HETATM   13  C5  UNL     1      18.877  15.785   4.681  1.00  0.00     0.045 A
HETATM   14  C4  UNL     1      19.334  14.728   5.429  1.00  0.00     0.029 A
HETATM   15  C3  UNL     1      19.207  14.804   6.801  1.00  0.00     0.090 A
HETATM   16  C22 UNL     1      18.638  15.910   7.371  1.00  0.00     0.113 A
HETATM   17  N5  UNL     1      18.200  16.925   6.619  1.00  0.00    -0.354 N
ATOM     18  H5  UNL     1      17.781  17.734   7.078  1.00  0.00     0.166 HD
BRANCH  15  19
HETATM   19  S1  UNL     1      19.782  13.470   7.808  1.00  0.00     0.244 S
HETATM   20  O1  UNL     1      19.290  13.710   9.207  1.00  0.00    -0.206 OA
HETATM   21  O2  UNL     1      19.237  12.177   7.324  1.00  0.00    -0.206 OA
BRANCH  19  22
HETATM   22  N1  UNL     1      21.504  13.480   7.832  1.00  0.00    -0.215 NA
HETATM   23  C1  UNL     1      22.089  12.701   6.778  1.00  0.00     0.129 C
HETATM   24  C2  UNL     1      22.033  14.806   7.959  1.00  0.00     0.129 C
ENDBRANCH  19  22
ENDBRANCH  15  19
ENDBRANCH   9  12
ENDBRANCH   7   9
ENDBRANCH   1   7
BRANCH   5  25
HETATM   25  C12 UNL     1      15.495  22.103   7.081  1.00  0.00     0.070 A
HETATM   26  N3  UNL     1      15.531  23.437   6.854  1.00  0.00    -0.299 N
HETATM   27  N4  UNL     1      16.120  24.072   7.847  1.00  0.00    -0.311 N
ATOM     28  H3  UNL     1      15.150  23.892   6.023  1.00  0.00     0.187 HD
HETATM   29  C13 UNL     1      16.481  23.156   8.745  1.00  0.00     0.121 A
ATOM     30  H4  UNL     1      16.272  25.078   7.916  1.00  0.00     0.186 HD
HETATM   31  C14 UNL     1      16.101  21.894   8.295  1.00  0.00     0.020 A
BRANCH  31  32
HETATM   32  C15 UNL     1      16.287  20.612   8.937  1.00  0.00    -0.022 A
HETATM   33  C16 UNL     1      15.265  19.924   9.555  1.00  0.00     0.014 A
HETATM   34  C17 UNL     1      15.502  18.704  10.151  1.00  0.00     0.020 A
HETATM   35  C18 UNL     1      16.769  18.128  10.152  1.00  0.00     0.011 A
HETATM   36 BR1  UNL     1      17.067  16.444  10.982  1.00  0.00    -0.051 Br
HETATM   37  C19 UNL     1      17.791  18.814   9.536  1.00  0.00     0.020 A
HETATM   38  C20 UNL     1      17.537  20.038   8.942  1.00  0.00     0.014 A
ENDBRANCH  31  32
ENDBRANCH   5  25
TORSDOF 7
ENDMDL