MODEL 1
REMARK VINA RESULT: -9.288580844      0.000      0.000
REMARK  9 active torsions:
REMARK  status: ('A' for Active; 'I' for Inactive)
REMARK    1  A    between atoms: O1_2  and  C2_3
REMARK    2  A    between atoms: C5_7  and  C6_8
REMARK    3  A    between atoms: C7_9  and  C8_10
REMARK       I    between atoms: C8_10  and  N1_12
REMARK    4  A    between atoms: C18_27  and  C19_28
REMARK    5  A    between atoms: C19_28  and  N4_29
REMARK    6  A    between atoms: N4_29  and  O4_30
REMARK    7  A    between atoms: O4_30  and  C20_31
REMARK    8  A    between atoms: C20_31  and  C21_32
REMARK    9  A    between atoms: C21_32  and  N5_33
ROOT
HETATM    1  C2  UNL     1      18.582  15.995   5.300  1.00  0.00     0.082 A
HETATM    2  C3  UNL     1      18.144  16.473   4.079  1.00  0.00     0.057 A
HETATM    3  C4  UNL     1      17.639  17.723   3.940  1.00  0.00     0.024 A
HETATM    4 BR1  UNL     1      16.990  18.365   2.262  1.00  0.00    -0.050 Br
HETATM    5  C5  UNL     1      17.579  18.525   5.108  1.00  0.00    -0.018 A
HETATM    6  C17 UNL     1      18.004  18.052   6.298  1.00  0.00     0.029 A
HETATM    7  C18 UNL     1      18.524  16.766   6.475  1.00  0.00     0.029 A
ENDROOT
BRANCH   5   8
HETATM    8  C6  UNL     1      17.088  19.875   4.827  1.00  0.00     0.018 C
HETATM    9  C7  UNL     1      15.955  20.400   4.714  1.00  0.00     0.076 C
BRANCH   9  10
HETATM   10  C8  UNL     1      14.560  20.122   4.785  1.00  0.00     0.255 C
HETATM   11  O2  UNL     1      14.076  18.977   4.599  1.00  0.00    -0.268 OA
HETATM   12  N1  UNL     1      13.602  21.158   5.100  1.00  0.00    -0.244 N
HETATM   13  C9  UNL     1      12.283  20.960   5.547  1.00  0.00     0.082 C
HETATM   14  C16 UNL     1      14.136  22.427   4.594  1.00  0.00     0.334 C
HETATM   15  C10 UNL     1      11.987  21.720   6.824  1.00  0.00     0.083 C
HETATM   16  C11 UNL     1      12.038  23.183   6.737  1.00  0.00    -0.025 A
HETATM   17  C12 UNL     1      12.635  24.077   5.830  1.00  0.00     0.108 A
HETATM   18  C14 UNL     1      11.410  24.031   7.667  1.00  0.00     0.043 A
HETATM   19  N2  UNL     1      12.412  25.338   6.146  1.00  0.00    -0.371 N
HETATM   20  N3  UNL     1      13.431  23.686   4.708  1.00  0.00    -0.294 N
HETATM   21  C13 UNL     1      11.661  25.373   7.280  1.00  0.00     0.092 A
ATOM     22  H2  UNL     1      12.746  26.151   5.627  1.00  0.00     0.161 HD
HETATM   23  C15 UNL     1      10.858  25.117   8.452  1.00  0.00     0.037 A
ATOM     24  H3  UNL     1      13.508  24.342   3.932  1.00  0.00     0.172 HD
HETATM   25  O3  UNL     1      15.195  22.527   4.015  1.00  0.00    -0.246 OA
ENDBRANCH   9  10
ENDBRANCH   5   8
BRANCH   7  26
HETATM   26  C19 UNL     1      18.692  16.209   7.797  1.00  0.00     0.232 C
BRANCH  26  27
HETATM   27  N4  UNL     1      18.316  16.377   8.914  1.00  0.00    -0.293 NA
BRANCH  27  28
HETATM   28  O4  UNL     1      17.880  16.608  10.102  1.00  0.00    -0.208 OA
BRANCH  28  29
HETATM   29  C20 UNL     1      17.999  18.118  10.326  1.00  0.00     0.247 C
BRANCH  29  30
HETATM   30  C21 UNL     1      16.634  18.566  10.054  1.00  0.00     0.302 C
BRANCH  30  31
HETATM   31  N5  UNL     1      16.229  19.768   9.577  1.00  0.00     0.090 N
HETATM   32  C22 UNL     1      17.440  20.417   8.995  1.00  0.00     0.272 C
HETATM   33  C23 UNL     1      17.141  21.813   8.540  1.00  0.00     0.030 C
HETATM   34  C24 UNL     1      15.648  21.906   8.184  1.00  0.00     0.003 C
HETATM   35  C25 UNL     1      14.761  21.647   9.363  1.00  0.00     0.030 C
HETATM   36  C26 UNL     1      15.484  20.673  10.321  1.00  0.00     0.272 C
ENDBRANCH  30  31
ENDBRANCH  29  30
ENDBRANCH  28  29
ENDBRANCH  27  28
ENDBRANCH  26  27
ENDBRANCH   7  26
BRANCH   1  37
HETATM   37  O1  UNL     1      19.125  14.700   5.425  1.00  0.00    -0.355 OA
HETATM   38  C1  UNL     1      20.403  14.559   4.844  1.00  0.00     0.210 C
ENDBRANCH   1  37
TORSDOF 9
ENDMDL