MODEL 4
REMARK VINA RESULT: -9.047516382      6.189     12.322
REMARK  10 active torsions:
REMARK  status: ('A' for Active; 'I' for Inactive)
REMARK    1  A    between atoms: N1_2  and  C2_3
REMARK    2  A    between atoms: N1_2  and  C24_38
REMARK    3  A    between atoms: C2_3  and  O1_4
REMARK    4  A    between atoms: C2_3  and  C3_6
REMARK    5  A    between atoms: C3_6  and  N2_7
REMARK    6  A    between atoms: C9_16  and  N4_17
REMARK    7  A    between atoms: N4_17  and  C10_18
REMARK    8  A    between atoms: C10_18  and  C11_19
REMARK    9  A    between atoms: N5_26  and  C18_27
REMARK   10  A    between atoms: C18_27  and  C19_28
ROOT
HETATM    1  N2  UNL     1      18.893  16.429   8.434  1.00  0.00    -0.342 N
HETATM    2  C4  UNL     1      19.820  15.973   9.462  1.00  0.00     0.231 C
HETATM    3  C5  UNL     1      20.616  14.816   9.044  1.00  0.00     0.240 C
HETATM    4  O2  UNL     1      21.156  14.069   9.930  1.00  0.00    -0.271 OA
HETATM    5  N3  UNL     1      20.827  14.466   7.690  1.00  0.00    -0.321 N
ATOM      6  H3  UNL     1      21.521  13.764   7.431  1.00  0.00     0.169 HD
HETATM    7  C6  UNL     1      20.047  15.120   6.703  1.00  0.00     0.101 A
HETATM    8  C7  UNL     1      19.127  16.056   7.085  1.00  0.00     0.069 A
HETATM    9  C8  UNL     1      18.392  16.656   6.079  1.00  0.00     0.096 A
HETATM   10  C9  UNL     1      18.567  16.334   4.718  1.00  0.00     0.181 A
HETATM   11  N6  UNL     1      19.511  15.386   4.436  1.00  0.00    -0.320 N
ATOM     12  H6  UNL     1      19.659  15.132   3.459  1.00  0.00     0.169 HD
HETATM   13  C23 UNL     1      20.247  14.774   5.360  1.00  0.00     0.135 A
HETATM   14 CL1  UNL     1      21.427  13.576   4.884  1.00  0.00    -0.062 Cl
ENDROOT
BRANCH  10  15
HETATM   15  N4  UNL     1      17.944  16.833   3.837  1.00  0.00    -0.404 NA
BRANCH  15  16
HETATM   16  C10 UNL     1      17.260  17.383   2.834  1.00  0.00     0.162 C
BRANCH  16  17
HETATM   17  C11 UNL     1      16.329  18.474   3.348  1.00  0.00     0.038 C
HETATM   18  C12 UNL     1      15.715  19.257   2.190  1.00  0.00     0.014 C
HETATM   19  C13 UNL     1      15.054  20.450   2.811  1.00  0.00     0.041 C
HETATM   20  C14 UNL     1      14.085  20.151   3.889  1.00  0.00     0.088 C
HETATM   21  C15 UNL     1      14.144  18.820   4.520  1.00  0.00     0.041 C
HETATM   22  C17 UNL     1      14.230  21.207   4.966  1.00  0.00     0.166 C
HETATM   23  O4  UNL     1      12.774  20.410   3.351  1.00  0.00    -0.291 OA
HETATM   24  C16 UNL     1      15.186  17.868   4.085  1.00  0.00     0.014 C
HETATM   25  N5  UNL     1      12.964  21.889   5.043  1.00  0.00    -0.325 N
HETATM   26  C22 UNL     1      12.049  21.141   4.256  1.00  0.00     0.363 C
HETATM   27  O3  UNL     1      10.779  21.165   4.392  1.00  0.00    -0.238 OA
BRANCH  25  28
HETATM   28  C18 UNL     1      12.743  23.093   5.804  1.00  0.00     0.132 C
BRANCH  28  29
HETATM   29  C19 UNL     1      11.965  22.884   7.070  1.00  0.00     0.004 A
HETATM   30  C20 UNL     1      10.568  23.416   7.129  1.00  0.00     0.007 A
HETATM   31  C21 UNL     1      11.676  24.041   7.966  1.00  0.00     0.007 A
ENDBRANCH  28  29
ENDBRANCH  25  28
ENDBRANCH  16  17
ENDBRANCH  15  16
ENDBRANCH  10  15
BRANCH   1  32
HETATM   32  C3  UNL     1      17.797  17.251   8.842  1.00  0.00     0.147 C
BRANCH  32  33
HETATM   33  C2  UNL     1      17.951  18.683   9.010  1.00  0.00     0.153 C
BRANCH  33  34
HETATM   34  N1  UNL     1      17.445  19.804   8.374  1.00  0.00    -0.360 N
HETATM   35  C1  UNL     1      17.299  20.052   6.979  1.00  0.00     0.152 C
BRANCH  34  36
HETATM   36  C24 UNL     1      16.974  20.926   9.230  1.00  0.00     0.086 C
HETATM   37  C25 UNL     1      15.668  20.615   9.877  1.00  0.00     0.025 C
HETATM   38  C26 UNL     1      14.628  21.530   9.276  1.00  0.00     0.002 C
HETATM   39  C27 UNL     1      15.361  22.579   8.500  1.00  0.00     0.002 C
HETATM   40  C28 UNL     1      16.762  22.091   8.288  1.00  0.00     0.025 C
ENDBRANCH  34  36
ENDBRANCH  33  34
BRANCH  33  41
HETATM   41  O1  UNL     1      18.785  18.927  10.023  1.00  0.00    -0.345 OA
ATOM     42  H1  UNL     1      19.642  18.525   9.951  1.00  0.00     0.219 HD
ENDBRANCH  33  41
ENDBRANCH  32  33
ENDBRANCH   1  32
TORSDOF 10
ENDMDL