MODEL 5
REMARK VINA RESULT: -9.011943954      3.555      9.830
REMARK  9 active torsions:
REMARK  status: ('A' for Active; 'I' for Inactive)
REMARK    1  A    between atoms: C3_3  and  O1_4
REMARK    2  A    between atoms: O1_4  and  C4_5
REMARK    3  A    between atoms: C4_5  and  C5_6
REMARK    4  A    between atoms: C5_6  and  N1_7
REMARK    5  A    between atoms: C16_21  and  C17_22
REMARK    6  A    between atoms: C17_22  and  C18_23
REMARK    7  A    between atoms: C18_23  and  C19_24
REMARK    8  A    between atoms: C21_26  and  O4_27
REMARK    9  A    between atoms: C22_29  and  O5_30
ROOT
HETATM    1  C1  UNL     1       8.936  23.325   3.665  1.00  0.00     0.015 C
HETATM    2  C2  UNL     1       9.382  23.398   5.121  1.00  0.00     0.043 C
HETATM    3  C3  UNL     1       9.360  24.871   5.554  1.00  0.00     0.264 C
HETATM    4  O2  UNL     1      10.699  25.304   5.356  1.00  0.00    -0.355 OA
HETATM    5  C10 UNL     1      11.337  24.284   6.039  1.00  0.00     0.135 C
HETATM    6  C11 UNL     1      12.810  24.303   6.058  1.00  0.00     0.040 C
HETATM    7  C12 UNL     1      13.479  24.570   4.771  1.00  0.00     0.182 C
HETATM    8  O3  UNL     1      13.697  23.507   3.919  1.00  0.00    -0.350 OA
HETATM    9  C13 UNL     1      13.773  22.140   4.019  1.00  0.00     0.076 A
HETATM   10  C14 UNL     1      14.388  21.550   2.941  1.00  0.00     0.057 A
HETATM   11  C15 UNL     1      14.551  20.182   2.871  1.00  0.00     0.019 A
HETATM   12 BR1  UNL     1      15.381  19.302   1.406  1.00  0.00    -0.050 Br
HETATM   13  C16 UNL     1      14.079  19.429   3.918  1.00  0.00    -0.040 A
HETATM   14  C23 UNL     1      13.456  20.011   5.012  1.00  0.00     0.019 A
HETATM   15  C24 UNL     1      13.314  21.377   5.039  1.00  0.00    -0.020 A
HETATM   16  C25 UNL     1      12.629  21.798   6.292  1.00  0.00     0.022 C
HETATM   17  C26 UNL     1      13.281  23.045   6.761  1.00  0.00     0.018 C
HETATM   18  C27 UNL     1      11.168  21.883   6.036  1.00  0.00     0.017 C
HETATM   19  C28 UNL     1      10.858  23.083   5.216  1.00  0.00     0.024 C
ENDROOT
BRANCH  13  20
HETATM   20  C17 UNL     1      14.209  17.951   3.963  1.00  0.00     0.040 C
BRANCH  20  21
HETATM   21  C18 UNL     1      15.628  17.613   3.534  1.00  0.00     0.012 C
BRANCH  21  22
HETATM   22  C19 UNL     1      16.529  17.839   4.730  1.00  0.00     0.020 C
HETATM   23  C20 UNL     1      17.629  16.821   4.906  1.00  0.00     0.041 C
HETATM   24  C21 UNL     1      18.600  17.962   5.114  1.00  0.00     0.147 C
HETATM   25  C22 UNL     1      17.588  18.890   4.488  1.00  0.00     0.151 C
BRANCH  24  26
HETATM   26  O4  UNL     1      18.815  18.181   6.488  1.00  0.00    -0.393 OA
ATOM     27  H4  UNL     1      19.486  17.594   6.817  1.00  0.00     0.210 HD
ENDBRANCH  24  26
BRANCH  25  28
HETATM   28  O5  UNL     1      17.377  20.085   5.177  1.00  0.00    -0.393 OA
ATOM     29  H5  UNL     1      17.850  20.829   4.821  1.00  0.00     0.210 HD
ENDBRANCH  25  28
ENDBRANCH  21  22
ENDBRANCH  20  21
ENDBRANCH  13  20
BRANCH   3  30
HETATM   30  O1  UNL     1       8.461  25.612   4.864  1.00  0.00    -0.359 OA
BRANCH  30  31
HETATM   31  C4  UNL     1       7.768  26.458   5.687  1.00  0.00     0.201 C
BRANCH  31  32
HETATM   32  C5  UNL     1       8.564  27.214   6.693  1.00  0.00     0.298 C
BRANCH  32  33
HETATM   33  N1  UNL     1       7.937  27.406   7.970  1.00  0.00     0.090 N
HETATM   34  C6  UNL     1       8.863  28.064   8.874  1.00  0.00     0.272 C
HETATM   35  C7  UNL     1       9.970  27.056   9.119  1.00  0.00     0.032 C
HETATM   36  C8  UNL     1       9.245  25.741   8.926  1.00  0.00     0.032 C
HETATM   37  C9  UNL     1       7.824  26.056   8.556  1.00  0.00     0.272 C
ENDBRANCH  32  33
ENDBRANCH  31  32
ENDBRANCH  30  31
ENDBRANCH   3  30
TORSDOF 9
ENDMDL