MODEL 5
REMARK VINA RESULT: -8.622821961      2.474      6.487
REMARK  9 active torsions:
REMARK  status: ('A' for Active; 'I' for Inactive)
REMARK    1  A    between atoms: O1_2  and  C2_3
REMARK    2  A    between atoms: C4_5  and  N1_6
REMARK    3  A    between atoms: N1_6  and  C5_8
REMARK    4  A    between atoms: C7_12  and  C8_13
REMARK    5  A    between atoms: C11_18  and  N4_19
REMARK    6  A    between atoms: N4_19  and  S1_21
REMARK    7  A    between atoms: S1_21  and  C12_24
REMARK    8  A    between atoms: C20_33  and  O4_34
REMARK    9  A    between atoms: C22_36  and  O5_37
ROOT
HETATM    1  C5  UNL     1      12.310  22.238   7.479  1.00  0.00     0.151 A
HETATM    2  N2  UNL     1      13.027  22.867   8.420  1.00  0.00    -0.347 N
ATOM      3  H2  UNL     1      12.558  23.514   9.053  1.00  0.00     0.167 HD
HETATM    4  C6  UNL     1      14.350  22.665   8.550  1.00  0.00     0.115 A
HETATM    5  C7  UNL     1      15.040  21.804   7.728  1.00  0.00     0.030 A
HETATM    6  N3  UNL     1      14.303  21.167   6.772  1.00  0.00    -0.341 N
ATOM      7  H3  UNL     1      14.772  20.519   6.139  1.00  0.00     0.167 HD
HETATM    8  C11 UNL     1      12.983  21.363   6.636  1.00  0.00     0.160 A
ENDROOT
BRANCH   1   9
HETATM    9  N1  UNL     1      11.032  22.434   7.354  1.00  0.00    -0.339 N
ATOM     10  H1  UNL     1      10.400  21.665   7.574  1.00  0.00     0.167 HD
BRANCH   9  11
HETATM   11  C4  UNL     1      10.478  23.655   6.932  1.00  0.00     0.039 A
HETATM   12  C3  UNL     1      10.028  23.772   5.618  1.00  0.00     0.069 A
HETATM   13  C2  UNL     1       9.476  24.942   5.146  1.00  0.00     0.106 A
HETATM   14  C22 UNL     1       9.366  26.023   5.992  1.00  0.00     0.135 A
HETATM   15  C20 UNL     1       9.811  25.930   7.316  1.00  0.00     0.106 A
HETATM   16  C19 UNL     1      10.359  24.755   7.771  1.00  0.00     0.069 A
BRANCH  13  17
HETATM   17  O1  UNL     1       9.053  24.977   3.828  1.00  0.00    -0.353 OA
HETATM   18  C1  UNL     1       9.806  24.394   2.789  1.00  0.00     0.210 C
ENDBRANCH  13  17
BRANCH  14  19
HETATM   19  O5  UNL     1       8.821  27.196   5.545  1.00  0.00    -0.351 OA
HETATM   20  C23 UNL     1       7.459  27.499   5.647  1.00  0.00     0.210 C
ENDBRANCH  14  19
BRANCH  15  21
HETATM   21  O4  UNL     1       9.710  27.001   8.180  1.00  0.00    -0.353 OA
HETATM   22  C21 UNL     1       8.676  27.028   9.136  1.00  0.00     0.210 C
ENDBRANCH  15  21
ENDBRANCH   9  11
ENDBRANCH   1   9
BRANCH   8  23
HETATM   23  N4  UNL     1      12.261  20.786   5.755  1.00  0.00    -0.263 N
ATOM     24  H4  UNL     1      11.598  20.086   6.088  1.00  0.00     0.180 HD
BRANCH  23  25
HETATM   25  S1  UNL     1      12.299  21.074   4.078  1.00  0.00     0.264 S
HETATM   26  O2  UNL     1      10.991  20.917   3.383  1.00  0.00    -0.200 OA
HETATM   27  O3  UNL     1      12.691  22.537   3.858  1.00  0.00    -0.200 OA
BRANCH  25  28
HETATM   28  C12 UNL     1      13.580  20.114   3.375  1.00  0.00     0.080 A
HETATM   29  C13 UNL     1      14.167  20.391   2.160  1.00  0.00     0.027 A
HETATM   30  C14 UNL     1      15.172  19.579   1.680  1.00  0.00     0.021 A
HETATM   31  C15 UNL     1      15.639  18.476   2.358  1.00  0.00     0.017 A
HETATM   32 BR1  UNL     1      17.035  17.373   1.660  1.00  0.00    -0.051 Br
HETATM   33  C16 UNL     1      15.053  18.198   3.573  1.00  0.00    -0.043 A
HETATM   34  C17 UNL     1      15.483  17.035   4.380  1.00  0.00     0.049 C
HETATM   35  C18 UNL     1      14.048  19.002   4.064  1.00  0.00     0.033 A
ENDBRANCH  25  28
ENDBRANCH  23  25
ENDBRANCH   8  23
BRANCH   5  36
HETATM   36  C8  UNL     1      16.500  21.576   7.866  1.00  0.00     0.037 A
HETATM   37  C9  UNL     1      17.066  22.151   9.162  1.00  0.00     0.011 A
HETATM   38  C10 UNL     1      16.971  20.643   8.903  1.00  0.00     0.011 A
ENDBRANCH   5  36
TORSDOF 9
ENDMDL