MODEL 1
REMARK VINA RESULT: -9.480263763      0.000      0.000
REMARK  7 active torsions:
REMARK  status: ('A' for Active; 'I' for Inactive)
REMARK    1  A    between atoms: C1_2  and  C2_4
REMARK    2  A    between atoms: C2_4  and  C3_5
REMARK    3  A    between atoms: C3_5  and  N2_6
REMARK    4  A    between atoms: N3_9  and  C6_10
REMARK    5  A    between atoms: C13_19  and  C14_20
REMARK       I    between atoms: C14_20  and  N4_22
REMARK    6  A    between atoms: N4_22  and  C15_24
REMARK    7  A    between atoms: N5_31  and  C22_32
ROOT
HETATM    1  C6  UNL     1      12.756  22.429   5.953  1.00  0.00     0.050 A
HETATM    2  C7  UNL     1      13.897  22.401   6.739  1.00  0.00     0.061 A
HETATM    3  C8  UNL     1      14.921  21.482   6.474  1.00  0.00     0.051 A
HETATM    4  C9  UNL     1      14.777  20.609   5.421  1.00  0.00     0.043 A
HETATM    5  C10 UNL     1      13.647  20.627   4.625  1.00  0.00     0.039 A
HETATM    6  C11 UNL     1      12.659  21.551   4.922  1.00  0.00     0.038 A
HETATM    7 BR1  UNL     1      11.142  21.534   3.769  1.00  0.00    -0.049 Br
HETATM    8  C12 UNL     1      15.778  19.704   5.208  1.00  0.00     0.201 A
HETATM    9  O2  UNL     1      15.695  18.888   4.262  1.00  0.00    -0.286 OA
HETATM   10  C13 UNL     1      16.892  19.687   6.045  1.00  0.00     0.098 A
HETATM   11  C21 UNL     1      16.966  20.588   7.070  1.00  0.00     0.113 A
HETATM   12  N5  UNL     1      15.982  21.498   7.298  1.00  0.00    -0.350 N
ENDROOT
BRANCH   1  13
HETATM   13  N3  UNL     1      11.726  23.337   6.260  1.00  0.00    -0.376 N
HETATM   14  C5  UNL     1      10.713  23.075   7.279  1.00  0.00     0.153 C
HETATM   15  C4  UNL     1       9.504  23.954   7.059  1.00  0.00     0.292 C
HETATM   16  N2  UNL     1       9.810  25.336   7.038  1.00  0.00     0.092 N
HETATM   17  C26 UNL     1      11.015  25.701   6.388  1.00  0.00     0.292 C
HETATM   18  C25 UNL     1      11.619  24.597   5.556  1.00  0.00     0.153 C
BRANCH  16  19
HETATM   19  C3  UNL     1       8.719  26.080   6.455  1.00  0.00     0.281 C
BRANCH  19  20
HETATM   20  C2  UNL     1       7.686  26.462   7.460  1.00  0.00     0.129 C
BRANCH  20  21
HETATM   21  C1  UNL     1       8.078  27.714   8.131  1.00  0.00     0.232 C
HETATM   22  N1  UNL     1       8.039  27.884   9.549  1.00  0.00    -0.062 NA
HETATM   23  O1  UNL     1       8.469  28.687   7.437  1.00  0.00    -0.277 OA
ENDBRANCH  20  21
ENDBRANCH  19  20
ENDBRANCH  16  19
ENDBRANCH   1  13
BRANCH  12  24
HETATM   24  C22 UNL     1      16.147  22.460   8.386  1.00  0.00     0.090 A
HETATM   25  C23 UNL     1      15.940  21.961   9.781  1.00  0.00     0.028 A
HETATM   26  C24 UNL     1      17.358  22.217   9.254  1.00  0.00     0.028 A
ENDBRANCH  12  24
BRANCH  10  27
HETATM   27  C14 UNL     1      17.880  18.667   5.731  1.00  0.00     0.257 C
HETATM   28  O3  UNL     1      18.592  18.906   4.687  1.00  0.00    -0.267 OA
HETATM   29  N4  UNL     1      18.115  17.484   6.445  1.00  0.00    -0.352 N
ATOM     30  H4  UNL     1      17.521  17.278   7.249  1.00  0.00     0.163 HD
BRANCH  29  31
HETATM   31  C15 UNL     1      19.162  16.537   6.101  1.00  0.00     0.084 C
HETATM   32  C16 UNL     1      19.769  15.916   7.320  1.00  0.00     0.025 C
HETATM   33  C17 UNL     1      19.562  14.415   7.357  1.00  0.00     0.002 C
HETATM   34  C18 UNL     1      20.070  13.756   6.113  1.00  0.00     0.000 C
HETATM   35  C19 UNL     1      19.603  14.434   4.842  1.00  0.00     0.002 C
HETATM   36  C20 UNL     1      18.569  15.511   5.157  1.00  0.00     0.025 C
ENDBRANCH  29  31
ENDBRANCH  10  27
TORSDOF 7
ENDMDL