MODEL 5
REMARK VINA RESULT: -8.074085041      3.466      9.974
REMARK  10 active torsions:
REMARK  status: ('A' for Active; 'I' for Inactive)
REMARK    1  A    between atoms: O1_2  and  C2_3
REMARK    2  A    between atoms: C5_6  and  C6_7
REMARK    3  A    between atoms: C7_8  and  C8_9
REMARK    4  A    between atoms: C9_10  and  O2_11
REMARK    5  A    between atoms: O2_11  and  C10_12
REMARK    6  A    between atoms: C10_12  and  C11_13
REMARK    7  A    between atoms: C15_18  and  N1_19
REMARK    8  A    between atoms: C18_22  and  N2_23
REMARK    9  A    between atoms: N2_23  and  N3_25
REMARK   10  A    between atoms: C21_29  and  S1_30
ROOT
HETATM    1  C11 UNL     1      12.715  22.491   4.640  1.00  0.00    -0.023 A
HETATM    2  C12 UNL     1      11.807  21.765   5.379  1.00  0.00     0.052 A
HETATM    3  C13 UNL     1      12.038  20.525   5.849  1.00  0.00     0.119 A
HETATM    4  F1  UNL     1      11.105  19.851   6.571  1.00  0.00    -0.206 F
HETATM    5  C14 UNL     1      13.212  19.918   5.608  1.00  0.00     0.072 A
HETATM    6  C15 UNL     1      14.201  20.638   4.834  1.00  0.00     0.049 A
HETATM    7  C23 UNL     1      13.916  21.878   4.389  1.00  0.00    -0.026 A
HETATM    8  C24 UNL     1      14.924  22.701   3.662  1.00  0.00     0.051 C
ENDROOT
BRANCH   1   9
HETATM    9  C10 UNL     1      12.209  23.778   4.064  1.00  0.00     0.215 C
BRANCH   9  10
HETATM   10  O2  UNL     1      11.296  24.383   4.818  1.00  0.00    -0.345 OA
BRANCH  10  11
HETATM   11  C9  UNL     1      10.707  25.132   5.685  1.00  0.00     0.095 A
HETATM   12  C8  UNL     1      11.130  25.075   7.024  1.00  0.00     0.119 A
HETATM   13  C28 UNL     1      10.427  25.844   7.975  1.00  0.00     0.267 A
HETATM   14  N4  UNL     1       9.406  26.626   7.636  1.00  0.00    -0.326 N
HETATM   15  O3  UNL     1      10.801  25.778   9.204  1.00  0.00    -0.266 OA
HETATM   16  C26 UNL     1       9.012  26.699   6.358  1.00  0.00     0.011 A
ATOM     17  H4  UNL     1       8.923  27.170   8.351  1.00  0.00     0.169 HD
HETATM   18  C25 UNL     1       9.637  25.972   5.396  1.00  0.00     0.063 A
HETATM   19  C27 UNL     1       7.916  27.670   5.971  1.00  0.00     0.068 C
BRANCH  12  20
HETATM   20  C7  UNL     1      12.444  24.631   7.416  1.00  0.00    -0.053 C
HETATM   21  C6  UNL     1      13.421  24.024   7.743  1.00  0.00    -0.061 C
BRANCH  21  22
HETATM   22  C5  UNL     1      14.468  23.091   8.070  1.00  0.00     0.018 A
HETATM   23  C4  UNL     1      14.024  21.895   8.674  1.00  0.00     0.023 A
HETATM   24  C3  UNL     1      14.856  20.950   9.177  1.00  0.00     0.038 A
HETATM   25  C2  UNL     1      16.229  21.167   9.101  1.00  0.00     0.068 A
HETATM   26  C30 UNL     1      16.667  22.340   8.509  1.00  0.00     0.038 A
HETATM   27  C29 UNL     1      15.786  23.308   7.992  1.00  0.00     0.023 A
BRANCH  25  28
HETATM   28  O1  UNL     1      17.014  20.182   9.629  1.00  0.00    -0.356 OA
HETATM   29  C1  UNL     1      16.638  18.927  10.115  1.00  0.00     0.210 C
ENDBRANCH  25  28
ENDBRANCH  21  22
ENDBRANCH  12  20
ENDBRANCH  10  11
ENDBRANCH   9  10
ENDBRANCH   1   9
BRANCH   6  30
HETATM   30  N1  UNL     1      15.391  19.872   4.760  1.00  0.00    -0.316 N
HETATM   31  C16 UNL     1      16.285  20.062   5.788  1.00  0.00     0.100 A
HETATM   32  C17 UNL     1      17.359  19.235   6.009  1.00  0.00     0.049 A
HETATM   33  C18 UNL     1      17.559  18.147   5.130  1.00  0.00     0.053 A
HETATM   34  C20 UNL     1      16.673  17.989   4.123  1.00  0.00     0.068 A
HETATM   35  C21 UNL     1      15.597  18.869   3.965  1.00  0.00     0.078 A
BRANCH  33  36
HETATM   36  N2  UNL     1      18.588  17.206   5.417  1.00  0.00    -0.303 N
HETATM   37  C19 UNL     1      18.910  16.707   6.729  1.00  0.00     0.177 C
BRANCH  36  38
HETATM   38  N3  UNL     1      19.405  16.754   4.359  1.00  0.00    -0.343 N
ATOM     39  H32 UNL     1      20.113  16.060   4.600  1.00  0.00     0.177 HD
ATOM     40  H31 UNL     1      19.278  17.164   3.434  1.00  0.00     0.177 HD
ENDBRANCH  36  38
ENDBRANCH  33  36
BRANCH  35  41
HETATM   41  S1  UNL     1      14.510  18.495   2.606  1.00  0.00    -0.116 SA
HETATM   42  C22 UNL     1      14.991  19.620   1.240  1.00  0.00     0.097 C
ENDBRANCH  35  41
ENDBRANCH   6  30
TORSDOF 10
ENDMDL