MODEL 3
REMARK VINA RESULT: -9.739327798      5.778     11.328
REMARK  7 active torsions:
REMARK  status: ('A' for Active; 'I' for Inactive)
REMARK    1  A    between atoms: C2_2  and  C3_4
REMARK    2  A    between atoms: N1_7  and  C6_8
REMARK    3  A    between atoms: C6_8  and  C7_9
REMARK    4  A    between atoms: C9_11  and  C10_12
REMARK    5  A    between atoms: C10_12  and  C11_13
REMARK    6  A    between atoms: C11_13  and  S1_14
REMARK    7  A    between atoms: S1_14  and  C12_17
ROOT
HETATM    1  C10 UNL     1      14.836  21.136   8.332  1.00  0.00     0.054 C
ENDROOT
BRANCH   1   2
HETATM    2  C9  UNL     1      14.045  21.123   7.129  1.00  0.00    -0.056 A
HETATM    3  C8  UNL     1      12.897  21.950   7.054  1.00  0.00     0.020 A
HETATM    4  C7  UNL     1      12.073  22.022   5.983  1.00  0.00    -0.019 A
HETATM    5  C22 UNL     1      12.386  21.227   4.891  1.00  0.00    -0.045 A
HETATM    6  C20 UNL     1      13.433  20.446   4.904  1.00  0.00    -0.055 A
HETATM    7  C23 UNL     1      11.455  21.343   3.683  1.00  0.00     0.049 C
HETATM    8  C19 UNL     1      14.299  20.368   6.007  1.00  0.00     0.014 A
HETATM    9  C21 UNL     1      13.813  19.680   3.665  1.00  0.00     0.049 C
BRANCH   4  10
HETATM   10  C6  UNL     1      10.840  22.763   5.893  1.00  0.00     0.071 C
BRANCH  10  11
HETATM   11  N1  UNL     1      10.661  23.994   6.560  1.00  0.00    -0.292 NA
HETATM   12  C5  UNL     1       9.674  23.885   7.593  1.00  0.00     0.095 C
HETATM   13  C4  UNL     1       9.342  25.246   8.121  1.00  0.00     0.024 C
HETATM   14  C3  UNL     1       8.599  26.011   6.990  1.00  0.00     0.027 C
HETATM   15  C25 UNL     1       9.468  26.074   5.800  1.00  0.00     0.024 C
HETATM   16  C24 UNL     1      10.616  25.114   5.724  1.00  0.00     0.095 C
BRANCH  14  17
HETATM   17  C2  UNL     1       8.240  27.289   7.632  1.00  0.00    -0.017 C
HETATM   18  C1  UNL     1       9.035  27.943   8.440  1.00  0.00     0.027 C
HETATM   19 BR1  UNL     1       6.468  27.961   7.119  1.00  0.00    -0.056 Br
ENDBRANCH  14  17
ENDBRANCH  10  11
ENDBRANCH   4  10
ENDBRANCH   1   2
BRANCH   1  20
HETATM   20  C11 UNL     1      16.273  21.430   8.278  1.00  0.00     0.152 C
BRANCH  20  21
HETATM   21  S1  UNL     1      17.367  19.984   8.627  1.00  0.00     0.194 S
HETATM   22  O1  UNL     1      16.481  19.061   9.381  1.00  0.00    -0.221 OA
HETATM   23  O2  UNL     1      18.601  20.410   9.333  1.00  0.00    -0.221 OA
BRANCH  21  24
HETATM   24  C12 UNL     1      17.799  19.444   6.980  1.00  0.00     0.170 A
HETATM   25  N2  UNL     1      17.738  20.305   5.987  1.00  0.00    -0.285 N
HETATM   26  N3  UNL     1      17.905  19.948   4.738  1.00  0.00    -0.265 N
ATOM     27  H2  UNL     1      17.554  21.286   6.198  1.00  0.00     0.188 HD
HETATM   28  C13 UNL     1      18.153  18.674   4.392  1.00  0.00     0.268 A
ATOM     29  H3  UNL     1      17.846  20.658   4.008  1.00  0.00     0.190 HD
HETATM   30  O3  UNL     1      18.321  18.288   3.224  1.00  0.00    -0.266 OA
HETATM   31  C14 UNL     1      18.245  17.683   5.374  1.00  0.00     0.041 A
HETATM   32  C15 UNL     1      18.059  18.128   6.697  1.00  0.00     0.080 A
HETATM   33  C18 UNL     1      18.423  16.284   5.024  1.00  0.00     0.048 C
HETATM   34  N4  UNL     1      18.359  17.204   7.721  1.00  0.00    -0.387 N
HETATM   35  C16 UNL     1      18.707  15.808   7.482  1.00  0.00     0.120 C
ATOM     36  H4  UNL     1      18.331  17.532   8.686  1.00  0.00     0.159 HD
HETATM   37  C17 UNL     1      19.121  15.511   6.121  1.00  0.00     0.024 C
ENDBRANCH  21  24
ENDBRANCH  20  21
ENDBRANCH   1  20
TORSDOF 7
ENDMDL