MODEL 5
REMARK VINA RESULT: -8.711767638      2.685     11.247
REMARK  9 active torsions:
REMARK  status: ('A' for Active; 'I' for Inactive)
REMARK    1  A    between atoms: O1_2  and  C2_3
REMARK    2  A    between atoms: C7_9  and  N2_10
REMARK    3  A    between atoms: C13_19  and  C14_20
REMARK    4  A    between atoms: C15_21  and  C16_22
REMARK    5  A    between atoms: C16_22  and  N4_23
REMARK       I    between atoms: N4_23  and  C17_25
REMARK    6  A    between atoms: C17_25  and  C18_27
REMARK    7  A    between atoms: C18_27  and  C19_28
REMARK    8  A    between atoms: C19_28  and  O3_29
REMARK    9  A    between atoms: O3_29  and  C20_30
ROOT
HETATM    1  C2  UNL     1      17.457  19.158   4.579  1.00  0.00     0.071 A
HETATM    2  C3  UNL     1      17.988  19.300   5.848  1.00  0.00     0.059 A
HETATM    3  C4  UNL     1      17.276  19.920   6.850  1.00  0.00     0.049 A
HETATM    4  C5  UNL     1      17.858  20.053   8.164  1.00  0.00     0.099 C
HETATM    5  N1  UNL     1      18.330  20.181   9.220  1.00  0.00    -0.191 NA
HETATM    6  C6  UNL     1      16.015  20.400   6.562  1.00  0.00     0.052 A
HETATM    7  C7  UNL     1      15.441  20.283   5.313  1.00  0.00     0.036 A
HETATM    8  C27 UNL     1      16.178  19.658   4.328  1.00  0.00     0.066 A
ENDROOT
BRANCH   1   9
HETATM    9  O1  UNL     1      18.205  18.534   3.618  1.00  0.00    -0.356 OA
HETATM   10  C1  UNL     1      17.599  17.794   2.577  1.00  0.00     0.210 C
ENDBRANCH   1   9
BRANCH   7  11
HETATM   11  N2  UNL     1      14.143  20.795   5.074  1.00  0.00    -0.353 N
HETATM   12  C8  UNL     1      13.477  21.529   5.868  1.00  0.00     0.085 C
HETATM   13  C9  UNL     1      14.007  21.898   7.086  1.00  0.00     0.050 C
HETATM   14  C26 UNL     1      12.228  21.906   5.415  1.00  0.00     0.212 C
HETATM   15  C10 UNL     1      13.444  22.623   8.114  1.00  0.00     0.090 C
HETATM   16  N3  UNL     1      12.334  23.413   8.092  1.00  0.00    -0.365 N
HETATM   17  C11 UNL     1      11.431  23.601   7.098  1.00  0.00     0.049 A
ATOM     18  H3  UNL     1      12.156  23.939   8.947  1.00  0.00     0.165 HD
HETATM   19  C12 UNL     1      10.511  24.586   7.415  1.00  0.00     0.051 A
HETATM   20  C25 UNL     1      11.394  22.919   5.901  1.00  0.00     0.060 A
HETATM   21  C13 UNL     1       9.529  24.886   6.494  1.00  0.00     0.021 A
HETATM   22  C23 UNL     1       9.465  24.225   5.293  1.00  0.00     0.041 A
HETATM   23  C24 UNL     1      10.395  23.248   5.006  1.00  0.00     0.029 A
HETATM   24 BR1  UNL     1      10.360  22.292   3.353  1.00  0.00    -0.050 Br
HETATM   25  O4  UNL     1      11.734  21.291   4.441  1.00  0.00    -0.285 OA
ATOM     26  H2  UNL     1      13.704  20.552   4.186  1.00  0.00     0.166 HD
BRANCH  21  27
HETATM   27  C14 UNL     1       8.543  25.908   6.777  1.00  0.00    -0.065 C
HETATM   28  C15 UNL     1       7.713  26.748   6.996  1.00  0.00    -0.081 C
BRANCH  28  29
HETATM   29  C16 UNL     1       6.677  27.764   7.252  1.00  0.00     0.217 C
BRANCH  29  30
HETATM   30  N4  UNL     1       5.724  27.819   6.162  1.00  0.00    -0.351 N
HETATM   31  C17 UNL     1       4.551  27.042   6.243  1.00  0.00     0.220 C
HETATM   32  O2  UNL     1       4.327  26.303   7.255  1.00  0.00    -0.274 OA
ATOM     33  H4  UNL     1       5.898  28.411   5.350  1.00  0.00     0.163 HD
BRANCH  31  34
HETATM   34  C18 UNL     1       3.561  27.089   5.131  1.00  0.00     0.129 C
BRANCH  34  35
HETATM   35  C19 UNL     1       3.726  25.872   4.269  1.00  0.00     0.177 C
BRANCH  35  36
HETATM   36  O3  UNL     1       5.067  25.703   3.951  1.00  0.00    -0.386 OA
BRANCH  36  37
HETATM   37  C20 UNL     1       5.196  24.641   3.041  1.00  0.00     0.113 C
HETATM   38  C21 UNL     1       4.376  23.472   3.539  1.00  0.00     0.039 C
HETATM   39  C22 UNL     1       6.637  24.186   2.947  1.00  0.00     0.039 C
ENDBRANCH  36  37
ENDBRANCH  35  36
ENDBRANCH  34  35
ENDBRANCH  31  34
ENDBRANCH  29  30
ENDBRANCH  28  29
ENDBRANCH  21  27
ENDBRANCH   7  11
TORSDOF 9
ENDMDL