MODEL 2
REMARK VINA RESULT: -7.320266622      7.538     12.753
REMARK  7 active torsions:
REMARK  status: ('A' for Active; 'I' for Inactive)
REMARK    1  A    between atoms: C2_2  and  C3_3
REMARK    2  A    between atoms: C3_3  and  N1_4
REMARK    3  A    between atoms: N1_4  and  C4_5
REMARK       I    between atoms: N1_4  and  C6_8
REMARK    4  A    between atoms: C4_5  and  C5_6
REMARK       I    between atoms: C6_8  and  N2_10
REMARK    5  A    between atoms: N2_10  and  C7_12
REMARK    6  A    between atoms: C21_27  and  C22_28
REMARK    7  A    between atoms: C22_28  and  N4_29
ROOT
HETATM    1  C7  UNL     1       6.917  24.179   3.010  1.00  0.00     0.139 C
HETATM    2  C8  UNL     1       7.411  23.462   1.732  1.00  0.00     0.299 C
HETATM    3  N3  UNL     1       8.777  23.074   2.024  1.00  0.00     0.093 N
HETATM    4  C9  UNL     1       9.145  21.896   1.257  1.00  0.00     0.310 C
HETATM    5  C10 UNL     1       8.648  22.750   3.444  1.00  0.00     0.250 C
HETATM    6  C11 UNL     1       9.867  22.210   4.045  1.00  0.00     0.065 C
HETATM    7  C12 UNL     1      11.085  22.552   3.220  1.00  0.00    -0.028 C
HETATM    8  C13 UNL     1      12.174  21.831   3.176  1.00  0.00    -0.031 C
HETATM    9  C14 UNL     1      12.422  20.569   3.908  1.00  0.00     0.027 C
HETATM   10  C15 UNL     1      13.713  20.677   4.732  1.00  0.00     0.004 C
HETATM   11  C16 UNL     1      13.525  21.736   5.827  1.00  0.00     0.000 C
HETATM   12  C17 UNL     1      14.442  22.896   5.635  1.00  0.00     0.000 C
HETATM   13  C18 UNL     1      13.797  24.232   5.550  1.00  0.00     0.000 C
HETATM   14  C19 UNL     1      12.733  24.517   6.560  1.00  0.00     0.003 C
HETATM   15  C20 UNL     1      11.752  25.497   5.971  1.00  0.00     0.038 C
HETATM   16  C21 UNL     1      10.405  25.496   6.661  1.00  0.00     0.171 C
HETATM   17  O3  UNL     1       9.438  26.205   5.978  1.00  0.00    -0.293 OA
HETATM   18  C27 UNL     1       9.121  26.258   4.658  1.00  0.00     0.361 C
HETATM   19  O4  UNL     1       8.991  27.455   4.172  1.00  0.00    -0.238 OA
HETATM   20  N5  UNL     1       8.920  25.178   3.769  1.00  0.00    -0.328 N
ATOM     21  H5  UNL     1       9.426  25.218   2.884  1.00  0.00     0.165 HD
HETATM   22  C28 UNL     1       8.069  24.014   3.977  1.00  0.00     0.144 C
ENDROOT
BRANCH   1  23
HETATM   23  N2  UNL     1       5.687  23.544   3.441  1.00  0.00    -0.335 N
HETATM   24  C6  UNL     1       4.482  24.238   3.615  1.00  0.00     0.318 C
HETATM   25  N1  UNL     1       3.235  23.728   4.021  1.00  0.00    -0.333 N
HETATM   26  O1  UNL     1       4.537  25.496   3.372  1.00  0.00    -0.247 OA
ATOM     27  H2  UNL     1       5.699  22.541   3.627  1.00  0.00     0.164 HD
BRANCH  25  28
HETATM   28  C3  UNL     1       2.115  24.646   4.138  1.00  0.00     0.127 C
BRANCH  28  29
HETATM   29  C2  UNL     1       1.777  25.064   5.523  1.00  0.00     0.015 C
HETATM   30  C1  UNL     1       2.035  26.584   5.572  1.00  0.00     0.006 C
ENDBRANCH  28  29
ENDBRANCH  25  28
BRANCH  25  31
HETATM   31  C4  UNL     1       2.958  22.336   4.301  1.00  0.00     0.142 C
BRANCH  31  32
HETATM   32  C5  UNL     1       2.248  21.650   3.175  1.00  0.00     0.134 C
HETATM   33 CL1  UNL     1       2.188  19.910   3.337  1.00  0.00    -0.129 Cl
ENDBRANCH  31  32
ENDBRANCH  25  31
ENDBRANCH   1  23
BRANCH  16  34
HETATM   34  C22 UNL     1      10.644  25.929   8.066  1.00  0.00     0.090 C
BRANCH  34  35
HETATM   35  N4  UNL     1       9.527  26.189   8.877  1.00  0.00    -0.387 N
HETATM   36  C23 UNL     1       8.369  25.393   8.729  1.00  0.00     0.148 C
HETATM   37  C24 UNL     1       7.169  26.337   8.645  1.00  0.00     0.187 C
HETATM   38  O2  UNL     1       7.458  27.368   7.755  1.00  0.00    -0.388 OA
HETATM   39  C25 UNL     1       8.436  28.214   8.219  1.00  0.00     0.187 C
HETATM   40  C26 UNL     1       9.280  27.536   9.250  1.00  0.00     0.148 C
ENDBRANCH  34  35
ENDBRANCH  16  34
TORSDOF 7
ENDMDL