MODEL 1
REMARK VINA RESULT: -9.548511968      0.000      0.000
REMARK  10 active torsions:
REMARK  status: ('A' for Active; 'I' for Inactive)
REMARK    1  A    between atoms: O1_2  and  C2_3
REMARK    2  A    between atoms: C6_7  and  O2_8
REMARK    3  A    between atoms: C10_13  and  N1_14
REMARK    4  A    between atoms: N1_14  and  C11_16
REMARK    5  A    between atoms: C11_16  and  O3_17
REMARK    6  A    between atoms: C11_16  and  C12_19
REMARK    7  A    between atoms: C12_19  and  N2_20
REMARK       I    between atoms: N2_20  and  C13_22
REMARK    8  A    between atoms: C13_22  and  C14_24
REMARK    9  A    between atoms: N4_32  and  C20_33
REMARK   10  A    between atoms: C20_33  and  C21_34
ROOT
HETATM    1  C12 UNL     1      12.614  22.660   6.166  1.00  0.00     0.125 C
HETATM    2  C19 UNL     1      13.468  22.463   4.912  1.00  0.00     0.277 C
HETATM    3  N4  UNL     1      12.999  21.375   4.073  1.00  0.00    -0.064 N
HETATM    4  C24 UNL     1      12.723  20.221   4.900  1.00  0.00     0.238 C
HETATM    5  C25 UNL     1      11.560  20.545   5.804  1.00  0.00     0.035 C
HETATM    6  C26 UNL     1      11.299  22.079   5.834  1.00  0.00     0.027 C
HETATM    7  C27 UNL     1      10.784  22.373   4.457  1.00  0.00     0.035 C
HETATM    8  C28 UNL     1      11.732  21.706   3.446  1.00  0.00     0.238 C
ENDROOT
BRANCH   1   9
HETATM    9  C11 UNL     1      12.684  24.057   6.590  1.00  0.00     0.143 C
BRANCH   9  10
HETATM   10  N1  UNL     1      12.020  24.671   7.646  1.00  0.00    -0.367 N
ATOM     11  H1  UNL     1      12.141  24.285   8.582  1.00  0.00     0.161 HD
BRANCH  10  12
HETATM   12  C10 UNL     1      11.160  25.839   7.484  1.00  0.00     0.091 C
HETATM   13  C4  UNL     1       9.973  25.511   6.613  1.00  0.00     0.014 C
HETATM   14  C3  UNL     1       9.194  26.776   6.373  1.00  0.00     0.045 C
HETATM   15  C5  UNL     1       9.053  24.511   7.285  1.00  0.00     0.044 C
HETATM   16  C2  UNL     1       8.735  27.362   7.682  1.00  0.00     0.064 C
HETATM   17  C9  UNL     1       9.892  27.590   8.630  1.00  0.00     0.045 C
HETATM   18  C29 UNL     1       7.797  26.369   8.329  1.00  0.00     0.076 C
HETATM   19  C8  UNL     1      10.673  26.316   8.807  1.00  0.00     0.014 C
HETATM   20  C7  UNL     1       9.754  25.316   9.480  1.00  0.00     0.044 C
HETATM   21  C6  UNL     1       8.565  25.089   8.592  1.00  0.00     0.061 C
BRANCH  16  22
HETATM   22  O1  UNL     1       8.131  28.578   7.437  1.00  0.00    -0.385 OA
HETATM   23  C1  UNL     1       6.808  28.508   7.072  1.00  0.00     0.202 C
ENDBRANCH  16  22
BRANCH  21  24
HETATM   24  O2  UNL     1       7.680  24.165   9.140  1.00  0.00    -0.390 OA
ATOM     25  H2  UNL     1       8.170  23.650   9.771  1.00  0.00     0.210 HD
ENDBRANCH  21  24
ENDBRANCH  10  12
ENDBRANCH   9  10
BRANCH   9  26
HETATM   26  O3  UNL     1      13.481  24.804   5.870  1.00  0.00    -0.348 OA
ATOM     27  H3  UNL     1      14.375  24.501   5.759  1.00  0.00     0.219 HD
ENDBRANCH   9  26
ENDBRANCH   1   9
BRANCH   1  28
HETATM   28  N2  UNL     1      13.286  21.903   7.245  1.00  0.00    -0.338 N
HETATM   29  C13 UNL     1      14.703  21.887   7.362  1.00  0.00     0.255 C
HETATM   30  O4  UNL     1      15.432  22.530   6.551  1.00  0.00    -0.268 OA
ATOM     31  H2  UNL     1      12.722  21.383   7.917  1.00  0.00     0.164 HD
BRANCH  29  32
HETATM   32  C14 UNL     1      15.390  21.141   8.396  1.00  0.00     0.070 A
HETATM   33  C15 UNL     1      16.518  20.338   8.248  1.00  0.00     0.108 A
HETATM   34  N3  UNL     1      16.840  19.788   9.456  1.00  0.00    -0.368 N
HETATM   35  C16 UNL     1      17.963  18.890   9.681  1.00  0.00     0.154 C
HETATM   36  C17 UNL     1      15.957  20.211  10.382  1.00  0.00     0.114 A
HETATM   37  C18 UNL     1      15.057  21.054   9.712  1.00  0.00     0.066 A
HETATM   38 CL1  UNL     1      13.742  21.824  10.610  1.00  0.00    -0.082 Cl
ENDBRANCH  29  32
ENDBRANCH   1  28
BRANCH   3  39
HETATM   39  C20 UNL     1      14.031  21.152   3.115  1.00  0.00     0.241 C
BRANCH  39  40
HETATM   40  C21 UNL     1      14.552  19.786   2.929  1.00  0.00     0.003 C
HETATM   41  C22 UNL     1      14.864  19.379   1.510  1.00  0.00     0.011 C
HETATM   42  C23 UNL     1      15.883  19.701   3.690  1.00  0.00     0.011 C
ENDBRANCH  39  40
ENDBRANCH   3  39
TORSDOF 10
ENDMDL