MODEL 3
REMARK VINA RESULT: -9.667423645      4.114      6.311
REMARK  7 active torsions:
REMARK  status: ('A' for Active; 'I' for Inactive)
REMARK       I    between atoms: C1_2  and  N1_3
REMARK    1  A    between atoms: C1_2  and  C7_11
REMARK    2  A    between atoms: N1_3  and  C2_5
REMARK    3  A    between atoms: C2_5  and  C3_6
REMARK    4  A    between atoms: C9_13  and  N2_14
REMARK       I    between atoms: N3_17  and  C12_18
REMARK    5  A    between atoms: C12_18  and  C13_20
REMARK    6  A    between atoms: C21_30  and  N4_31
REMARK       I    between atoms: N4_31  and  C22_33
REMARK    7  A    between atoms: C22_33  and  C23_35
ROOT
HETATM    1  C7  UNL     1      16.686  20.087   7.608  1.00  0.00     0.060 A
HETATM    2  C8  UNL     1      15.601  20.848   7.158  1.00  0.00     0.050 A
HETATM    3  C9  UNL     1      14.669  21.420   7.997  1.00  0.00     0.053 A
HETATM    4  C19 UNL     1      14.850  21.207   9.334  1.00  0.00     0.062 A
HETATM    5 CL1  UNL     1      13.712  21.887  10.479  1.00  0.00    -0.082 Cl
HETATM    6  C20 UNL     1      15.909  20.460   9.825  1.00  0.00     0.056 A
HETATM    7  C21 UNL     1      16.849  19.881   8.985  1.00  0.00     0.052 A
ENDROOT
BRANCH   3   8
HETATM    8  N2  UNL     1      13.582  22.199   7.469  1.00  0.00    -0.376 N
HETATM    9  C10 UNL     1      12.340  21.602   7.044  1.00  0.00     0.143 C
HETATM   10  C11 UNL     1      11.740  22.353   5.844  1.00  0.00     0.145 C
HETATM   11  N3  UNL     1      11.551  23.735   6.205  1.00  0.00    -0.347 N
HETATM   12  C12 UNL     1      10.572  24.508   5.557  1.00  0.00     0.248 C
HETATM   13  C17 UNL     1      12.373  24.312   7.234  1.00  0.00     0.145 C
HETATM   14  O3  UNL     1      10.422  25.715   5.885  1.00  0.00    -0.270 OA
HETATM   15  C18 UNL     1      13.717  23.652   7.349  1.00  0.00     0.143 C
BRANCH  12  16
HETATM   16  C13 UNL     1       9.683  23.981   4.490  1.00  0.00     0.213 C
HETATM   17  C14 UNL     1      10.238  24.219   3.096  1.00  0.00     0.043 C
HETATM   18  C15 UNL     1       8.965  24.014   2.261  1.00  0.00     0.029 C
HETATM   19  C16 UNL     1       7.906  24.444   3.225  1.00  0.00     0.168 C
HETATM   20  O4  UNL     1       8.497  24.668   4.442  1.00  0.00    -0.376 OA
ENDBRANCH  12  16
ENDBRANCH   3   8
BRANCH   1  21
HETATM   21  C1  UNL     1      17.675  19.597   6.667  1.00  0.00     0.254 C
HETATM   22  O1  UNL     1      18.852  20.019   6.686  1.00  0.00    -0.268 OA
HETATM   23  N1  UNL     1      17.345  18.606   5.677  1.00  0.00    -0.354 N
ATOM     24  H1  UNL     1      16.394  18.238   5.644  1.00  0.00     0.162 HD
BRANCH  23  25
HETATM   25  C2  UNL     1      18.317  18.115   4.729  1.00  0.00     0.155 C
BRANCH  25  26
HETATM   26  C3  UNL     1      17.706  17.294   3.625  1.00  0.00     0.139 C
HETATM   27  C4  UNL     1      16.190  17.295   3.733  1.00  0.00     0.035 C
HETATM   28  C5  UNL     1      15.767  17.987   2.465  1.00  0.00     0.029 C
HETATM   29  C6  UNL     1      17.024  18.785   2.137  1.00  0.00     0.168 C
HETATM   30  O2  UNL     1      18.001  17.842   2.375  1.00  0.00    -0.384 OA
ENDBRANCH  25  26
ENDBRANCH  23  25
ENDBRANCH   1  21
BRANCH   7  31
HETATM   31  N4  UNL     1      17.831  19.039   9.534  1.00  0.00    -0.326 N
HETATM   32  C22 UNL     1      17.610  17.848  10.227  1.00  0.00     0.226 C
HETATM   33  O5  UNL     1      16.488  17.366  10.469  1.00  0.00    -0.273 OA
ATOM     34  H4  UNL     1      18.802  19.327   9.413  1.00  0.00     0.169 HD
BRANCH  32  35
HETATM   35  C23 UNL     1      18.771  17.026  10.755  1.00  0.00     0.078 C
HETATM   36  C24 UNL     1      19.420  16.293   9.629  1.00  0.00     0.014 C
HETATM   37  C25 UNL     1      20.140  15.042  10.078  1.00  0.00     0.001 C
HETATM   38  C26 UNL     1      20.626  15.125  11.497  1.00  0.00     0.000 C
HETATM   39  C27 UNL     1      19.562  15.511  12.479  1.00  0.00     0.001 C
HETATM   40  C28 UNL     1      18.320  16.051  11.796  1.00  0.00     0.014 C
ENDBRANCH  32  35
ENDBRANCH   7  31
TORSDOF 7
ENDMDL