MODEL 2
REMARK VINA RESULT: -8.689347292      0.930      1.219
REMARK  9 active torsions:
REMARK  status: ('A' for Active; 'I' for Inactive)
REMARK       I    between atoms: C1_2  and  N1_3
REMARK    1  A    between atoms: C1_2  and  C9_15
REMARK    2  A    between atoms: N1_3  and  C2_5
REMARK    3  A    between atoms: C2_5  and  C3_6
REMARK    4  A    between atoms: C3_6  and  C4_7
REMARK       I    between atoms: N3_19  and  C13_20
REMARK    5  A    between atoms: C13_20  and  C14_22
REMARK    6  A    between atoms: N4_26  and  C18_27
REMARK    7  A    between atoms: C18_27  and  C19_29
REMARK    8  A    between atoms: C20_30  and  C21_31
REMARK    9  A    between atoms: C24_34  and  O3_35
ROOT
HETATM    1  C9  UNL     1      10.115  26.173   7.920  1.00  0.00     0.179 C
HETATM    2  C10 UNL     1       9.710  25.889   9.368  1.00  0.00     0.037 C
HETATM    3  C11 UNL     1       8.636  24.839   9.177  1.00  0.00     0.022 C
HETATM    4  C12 UNL     1       9.089  24.099   7.917  1.00  0.00     0.127 C
HETATM    5  N3  UNL     1      10.209  24.832   7.389  1.00  0.00    -0.337 N
HETATM    6  C13 UNL     1      11.224  24.364   6.521  1.00  0.00     0.243 C
HETATM    7  O2  UNL     1      12.161  25.067   6.126  1.00  0.00    -0.271 OA
ENDROOT
BRANCH   6   8
HETATM    8  C14 UNL     1      11.104  22.952   6.095  1.00  0.00     0.177 C
HETATM    9  C15 UNL     1      12.488  22.283   6.342  1.00  0.00     0.037 C
HETATM   10  C16 UNL     1      12.185  20.948   5.706  1.00  0.00     0.022 C
HETATM   11  C17 UNL     1      11.384  21.296   4.485  1.00  0.00     0.125 C
HETATM   12  N4  UNL     1      10.866  22.659   4.740  1.00  0.00    -0.358 N
BRANCH  12  13
HETATM   13  C18 UNL     1      10.213  23.340   3.687  1.00  0.00     0.099 C
HETATM   14  S1  UNL     1      11.028  24.081   2.516  1.00  0.00    -0.061 SA
BRANCH  13  15
HETATM   15  C19 UNL     1       8.748  23.423   3.661  1.00  0.00     0.042 C
HETATM   16  C20 UNL     1       8.048  23.081   2.603  1.00  0.00     0.014 C
BRANCH  16  17
HETATM   17  C21 UNL     1       6.602  23.161   2.565  1.00  0.00    -0.034 A
HETATM   18  C22 UNL     1       5.770  22.640   3.525  1.00  0.00     0.014 A
HETATM   19  C23 UNL     1       4.377  22.728   3.452  1.00  0.00     0.039 A
HETATM   20  C24 UNL     1       3.796  23.364   2.380  1.00  0.00     0.087 A
HETATM   21  C25 UNL     1       4.645  23.890   1.414  1.00  0.00     0.068 A
HETATM   22 CL1  UNL     1       3.879  24.705   0.043  1.00  0.00    -0.081 Cl
HETATM   23  C26 UNL     1       6.010  23.809   1.474  1.00  0.00     0.038 A
BRANCH  20  24
HETATM   24  O3  UNL     1       2.425  23.481   2.259  1.00  0.00    -0.359 OA
ATOM     25  H3  UNL     1       1.925  22.929   1.669  1.00  0.00     0.217 HD
ENDBRANCH  20  24
ENDBRANCH  16  17
ENDBRANCH  13  15
ENDBRANCH  12  13
ENDBRANCH   6   8
BRANCH   1  26
HETATM   26  C1  UNL     1       9.050  26.887   7.203  1.00  0.00     0.240 C
HETATM   27  O1  UNL     1       8.598  27.959   7.668  1.00  0.00    -0.271 OA
HETATM   28  N1  UNL     1       8.537  26.363   5.989  1.00  0.00    -0.359 N
ATOM     29  H1  UNL     1       8.902  25.489   5.611  1.00  0.00     0.162 HD
BRANCH  28  30
HETATM   30  C2  UNL     1       7.475  27.091   5.283  1.00  0.00     0.125 C
BRANCH  30  31
HETATM   31  C3  UNL     1       6.216  26.286   5.381  1.00  0.00     0.052 C
BRANCH  31  32
HETATM   32  C4  UNL     1       5.466  26.709   6.626  1.00  0.00     0.187 C
HETATM   33  C5  UNL     1       4.039  26.205   6.460  1.00  0.00     0.033 C
HETATM   34  C6  UNL     1       3.226  26.764   7.611  1.00  0.00     0.004 C
HETATM   35  C7  UNL     1       3.301  28.267   7.614  1.00  0.00     0.027 C
HETATM   36  C8  UNL     1       4.231  28.772   6.544  1.00  0.00     0.232 C
HETATM   37  N2  UNL     1       5.523  28.156   6.729  1.00  0.00    -0.071 N
ATOM     38  H22 UNL     1       5.945  28.446   7.611  1.00  0.00     0.277 HD
ATOM     39  H21 UNL     1       6.211  28.544   6.084  1.00  0.00     0.277 HD
ENDBRANCH  31  32
ENDBRANCH  30  31
ENDBRANCH  28  30
ENDBRANCH   1  26
TORSDOF 9
ENDMDL