MODEL 4
REMARK VINA RESULT: -9.859802720      2.939     10.235
REMARK  7 active torsions:
REMARK  status: ('A' for Active; 'I' for Inactive)
REMARK    1  A    between atoms: C8_9  and  C9_10
REMARK       I    between atoms: C9_10  and  N1_12
REMARK    2  A    between atoms: N1_12  and  C10_14
REMARK    3  A    between atoms: C15_20  and  C16_21
REMARK    4  A    between atoms: C16_21  and  N2_22
REMARK       I    between atoms: N2_22  and  C17_24
REMARK    5  A    between atoms: C17_24  and  C18_26
REMARK    6  A    between atoms: C22_30  and  C23_31
REMARK       I    between atoms: C23_31  and  N3_33
REMARK    7  A    between atoms: N3_33  and  C24_35
ROOT
HETATM    1  C1  UNL     1       8.085  22.348   1.999  1.00  0.00     0.045 C
HETATM    2  C2  UNL     1       8.614  23.695   2.467  1.00  0.00     0.054 C
HETATM    3  C3  UNL     1       8.288  24.780   1.474  1.00  0.00     0.045 C
HETATM    4  C4  UNL     1      10.115  23.641   2.631  1.00  0.00     0.050 C
HETATM    5  C5  UNL     1      10.269  23.173   4.054  1.00  0.00    -0.002 C
HETATM    6  C6  UNL     1       8.910  23.265   4.638  1.00  0.00     0.179 C
HETATM    7  O1  UNL     1       8.084  23.906   3.729  1.00  0.00    -0.380 OA
HETATM    8  C7  UNL     1      10.921  21.802   4.097  1.00  0.00     0.027 C
HETATM    9  C8  UNL     1      11.734  22.265   5.298  1.00  0.00     0.092 C
HETATM   10  C22 UNL     1      11.427  23.701   4.835  1.00  0.00     0.101 C
ENDROOT
BRANCH   9  11
HETATM   11  C9  UNL     1      13.171  22.000   5.259  1.00  0.00     0.223 C
HETATM   12  O2  UNL     1      13.714  21.654   4.156  1.00  0.00    -0.273 OA
HETATM   13  N1  UNL     1      14.031  22.103   6.389  1.00  0.00    -0.356 N
ATOM     14  H1  UNL     1      13.628  22.376   7.286  1.00  0.00     0.162 HD
BRANCH  13  15
HETATM   15  C10 UNL     1      15.446  21.839   6.320  1.00  0.00     0.085 C
HETATM   16  C11 UNL     1      16.244  22.387   7.450  1.00  0.00     0.034 C
HETATM   17  C12 UNL     1      17.238  21.298   7.843  1.00  0.00     0.041 A
HETATM   18  C13 UNL     1      16.734  20.059   8.532  1.00  0.00     0.114 A
HETATM   19  C15 UNL     1      16.984  20.105   7.082  1.00  0.00     0.020 A
HETATM   20  C14 UNL     1      15.366  20.016   9.135  1.00  0.00     0.053 C
HETATM   21  F1  UNL     1      17.680  19.352   9.258  1.00  0.00    -0.242 F
HETATM   22  C21 UNL     1      15.699  20.372   6.244  1.00  0.00     0.040 C
BRANCH  19  23
HETATM   23  C16 UNL     1      18.017  19.300   6.388  1.00  0.00     0.136 C
BRANCH  23  24
HETATM   24  N2  UNL     1      17.844  19.194   4.980  1.00  0.00    -0.360 N
HETATM   25  C17 UNL     1      17.955  18.112   4.098  1.00  0.00     0.221 C
HETATM   26  O3  UNL     1      18.236  16.937   4.420  1.00  0.00    -0.273 OA
ATOM     27  H2  UNL     1      17.592  20.073   4.527  1.00  0.00     0.162 HD
BRANCH  25  28
HETATM   28  C18 UNL     1      17.715  18.379   2.632  1.00  0.00     0.078 A
HETATM   29  C19 UNL     1      16.313  18.473   2.156  1.00  0.00     0.015 A
HETATM   30  C20 UNL     1      17.200  17.287   1.790  1.00  0.00     0.015 A
ENDBRANCH  25  28
ENDBRANCH  23  24
ENDBRANCH  19  23
ENDBRANCH  13  15
ENDBRANCH   9  11
BRANCH  10  31
HETATM   31  C23 UNL     1      11.120  24.562   5.988  1.00  0.00     0.223 C
HETATM   32  O4  UNL     1      12.003  24.806   6.843  1.00  0.00    -0.273 OA
HETATM   33  N3  UNL     1       9.837  25.121   6.143  1.00  0.00    -0.356 N
ATOM     34  H3  UNL     1       9.106  24.934   5.458  1.00  0.00     0.162 HD
BRANCH  33  35
HETATM   35  C24 UNL     1       9.570  25.961   7.285  1.00  0.00     0.084 C
HETATM   36  C25 UNL     1       9.039  25.070   8.410  1.00  0.00     0.025 C
HETATM   37  C26 UNL     1       9.043  25.919   9.663  1.00  0.00     0.002 C
HETATM   38  C27 UNL     1       9.201  27.390   9.360  1.00  0.00     0.000 C
HETATM   39  C28 UNL     1       8.350  27.852   8.212  1.00  0.00     0.002 C
HETATM   40  C29 UNL     1       8.488  26.980   6.991  1.00  0.00     0.025 C
ENDBRANCH  33  35
ENDBRANCH  10  31
TORSDOF 7
ENDMDL