MODEL 2
REMARK VINA RESULT: -9.738546175      1.114      1.489
REMARK  10 active torsions:
REMARK  status: ('A' for Active; 'I' for Inactive)
REMARK    1  A    between atoms: C2_2  and  C3_3
REMARK    2  A    between atoms: C3_3  and  N1_4
REMARK    3  A    between atoms: N1_4  and  C4_6
REMARK    4  A    between atoms: C5_9  and  N3_10
REMARK    5  A    between atoms: N3_10  and  C6_12
REMARK    6  A    between atoms: C6_12  and  C7_13
REMARK    7  A    between atoms: C13_21  and  N5_22
REMARK    8  A    between atoms: N5_22  and  C14_24
REMARK    9  A    between atoms: N6_27  and  C17_28
REMARK   10  A    between atoms: C17_28  and  C18_29
ROOT
HETATM    1  C4  UNL     1      11.370  25.236   8.292  1.00  0.00     0.707 A
HETATM    2  N2  UNL     1      10.925  25.336   7.044  1.00  0.00    -0.022 N
ATOM      3  H2  UNL     1      10.014  25.766   6.880  1.00  0.00     0.203 HD
HETATM    4  C5  UNL     1      11.627  24.891   5.988  1.00  0.00     0.707 A
HETATM    5  N4  UNL     1      12.817  24.332   6.241  1.00  0.00    -0.022 N
ATOM      6  H4  UNL     1      13.380  23.983   5.465  1.00  0.00     0.203 HD
HETATM    7  C13 UNL     1      13.295  24.219   7.521  1.00  0.00     0.707 A
HETATM    8  N7  UNL     1      12.557  24.677   8.537  1.00  0.00    -0.021 N
ATOM      9  H7  UNL     1      12.900  24.600   9.495  1.00  0.00     0.203 HD
ENDROOT
BRANCH   7  10
HETATM   10  N5  UNL     1      14.425  23.682   7.689  1.00  0.00    -0.220 N
ATOM     11  H5  UNL     1      15.242  24.283   7.576  1.00  0.00     0.178 HD
BRANCH  10  12
HETATM   12  C14 UNL     1      14.669  22.323   8.020  1.00  0.00     0.102 C
HETATM   13  C15 UNL     1      13.988  21.481   6.920  1.00  0.00     0.056 C
HETATM   14  C16 UNL     1      14.881  21.579   5.721  1.00  0.00     0.275 C
HETATM   15  N6  UNL     1      16.017  20.654   5.920  1.00  0.00     0.092 N
HETATM   16  C24 UNL     1      16.360  20.700   7.354  1.00  0.00     0.275 C
HETATM   17  C25 UNL     1      16.184  22.101   7.831  1.00  0.00     0.056 C
BRANCH  15  18
HETATM   18  C17 UNL     1      15.560  19.307   5.593  1.00  0.00     0.312 C
BRANCH  18  19
HETATM   19  C18 UNL     1      16.397  18.733   4.515  1.00  0.00    -0.013 A
HETATM   20  C19 UNL     1      17.605  18.106   4.686  1.00  0.00     0.010 A
HETATM   21  C20 UNL     1      18.376  17.624   3.636  1.00  0.00     0.001 A
HETATM   22  C21 UNL     1      17.917  17.778   2.365  1.00  0.00     0.001 A
HETATM   23  C22 UNL     1      16.705  18.405   2.164  1.00  0.00     0.019 A
HETATM   24  C23 UNL     1      15.941  18.882   3.192  1.00  0.00     0.019 A
HETATM   25 BR1  UNL     1      14.263  19.750   2.902  1.00  0.00    -0.051 Br
ENDBRANCH  18  19
ENDBRANCH  15  18
ENDBRANCH  10  12
ENDBRANCH   7  10
BRANCH   4  26
HETATM   26  N3  UNL     1      11.199  24.981   4.764  1.00  0.00    -0.225 N
ATOM     27  H3  UNL     1      11.885  25.168   4.033  1.00  0.00     0.177 HD
BRANCH  26  28
HETATM   28  C6  UNL     1       9.836  24.835   4.377  1.00  0.00     0.142 C
BRANCH  28  29
HETATM   29  C7  UNL     1       9.647  23.775   3.303  1.00  0.00     0.004 C
HETATM   30  C8  UNL     1      10.857  22.880   3.201  1.00  0.00     0.006 C
HETATM   31  C9  UNL     1      10.502  21.424   3.401  1.00  0.00     0.000 C
HETATM   32  C10 UNL     1       9.431  21.089   2.384  1.00  0.00     0.000 C
HETATM   33  C11 UNL     1       8.182  21.812   2.758  1.00  0.00     0.000 C
HETATM   34  C12 UNL     1       8.387  23.035   3.594  1.00  0.00     0.006 C
ENDBRANCH  28  29
ENDBRANCH  26  28
ENDBRANCH   4  26
BRANCH   1  35
HETATM   35  N1  UNL     1      10.611  25.699   9.252  1.00  0.00    -0.222 N
ATOM     36  H1  UNL     1      10.983  26.437   9.851  1.00  0.00     0.178 HD
BRANCH  35  37
HETATM   37  C3  UNL     1       9.285  25.223   9.504  1.00  0.00     0.164 C
BRANCH  37  38
HETATM   38  C2  UNL     1       8.248  26.193   9.084  1.00  0.00    -0.017 C
HETATM   39  C1  UNL     1       8.555  27.472   8.896  1.00  0.00     0.008 C
ENDBRANCH  37  38
ENDBRANCH  35  37
ENDBRANCH   1  35
TORSDOF 10
ENDMDL