MODEL 4
REMARK VINA RESULT: -8.226689169      2.613      6.146
REMARK  8 active torsions:
REMARK  status: ('A' for Active; 'I' for Inactive)
REMARK    1  A    between atoms: C2_2  and  N1_3
REMARK       I    between atoms: N1_3  and  C3_5
REMARK       I    between atoms: C3_5  and  N2_7
REMARK    2  A    between atoms: N2_7  and  C4_9
REMARK    3  A    between atoms: N5_18  and  C9_19
REMARK    4  A    between atoms: C9_19  and  C10_20
REMARK    5  A    between atoms: C10_20  and  N6_21
REMARK       I    between atoms: N7_25  and  C14_26
REMARK    6  A    between atoms: C14_26  and  C15_28
REMARK    7  A    between atoms: C23_36  and  C24_37
REMARK    8  A    between atoms: C23_36  and  C26_39
ROOT
HETATM    1  C4  UNL     1      15.016  21.393   5.919  1.00  0.00     0.132 A
HETATM    2  N3  UNL     1      14.557  20.785   7.020  1.00  0.00    -0.285 N
ATOM      3  H3  UNL     1      15.021  20.019   7.508  1.00  0.00     0.188 HD
HETATM    4  N4  UNL     1      13.390  21.343   7.381  1.00  0.00    -0.300 N
ATOM      5  H4  UNL     1      12.825  21.070   8.185  1.00  0.00     0.186 HD
HETATM    6  C5  UNL     1      13.092  22.309   6.518  1.00  0.00     0.064 A
HETATM    7  C6  UNL     1      14.086  22.359   5.602  1.00  0.00     0.015 A
HETATM    8  C7  UNL     1      14.084  23.316   4.493  1.00  0.00     0.064 C
HETATM    9  C8  UNL     1      12.748  23.927   4.203  1.00  0.00     0.123 C
HETATM   10  N5  UNL     1      11.672  23.417   4.980  1.00  0.00    -0.393 N
HETATM   11  C23 UNL     1      11.950  23.304   6.359  1.00  0.00     0.072 C
ENDROOT
BRANCH  10  12
HETATM   12  C9  UNL     1      10.979  22.308   4.451  1.00  0.00     0.163 C
BRANCH  12  13
HETATM   13  C10 UNL     1      10.552  22.457   3.011  1.00  0.00     0.087 C
BRANCH  13  14
HETATM   14  N6  UNL     1       9.335  23.143   2.880  1.00  0.00    -0.351 N
HETATM   15  C11 UNL     1       8.159  22.465   2.553  1.00  0.00     0.069 C
HETATM   16  C12 UNL     1       7.055  22.762   3.556  1.00  0.00     0.065 C
HETATM   17  C13 UNL     1       6.467  24.138   3.289  1.00  0.00     0.131 C
HETATM   18  N7  UNL     1       7.260  25.079   4.027  1.00  0.00    -0.347 N
HETATM   19  C14 UNL     1       6.530  26.082   4.702  1.00  0.00     0.224 C
HETATM   20  C21 UNL     1       8.683  25.134   4.155  1.00  0.00     0.170 C
HETATM   21  O2  UNL     1       5.246  26.110   4.609  1.00  0.00    -0.273 OA
HETATM   22  C22 UNL     1       9.372  24.541   2.935  1.00  0.00     0.087 C
BRANCH  19  23
HETATM   23  C15 UNL     1       7.140  27.143   5.541  1.00  0.00     0.078 C
HETATM   24  C16 UNL     1       6.167  27.469   6.658  1.00  0.00     0.014 C
HETATM   25  C17 UNL     1       6.310  26.488   7.802  1.00  0.00     0.001 C
HETATM   26  C18 UNL     1       7.608  26.758   8.492  1.00  0.00     0.000 C
HETATM   27  C19 UNL     1       8.679  27.074   7.517  1.00  0.00     0.001 C
HETATM   28  C20 UNL     1       8.433  26.591   6.106  1.00  0.00     0.014 C
ENDBRANCH  19  23
ENDBRANCH  13  14
ENDBRANCH  12  13
ENDBRANCH  10  12
BRANCH  11  29
HETATM   29  C24 UNL     1      12.489  24.579   6.976  1.00  0.00     0.033 C
HETATM   30  C25 UNL     1      13.059  24.434   8.340  1.00  0.00     0.008 C
ENDBRANCH  11  29
BRANCH  11  31
HETATM   31  C26 UNL     1      10.876  22.766   7.234  1.00  0.00     0.033 C
HETATM   32  C27 UNL     1       9.827  23.705   7.691  1.00  0.00     0.008 C
ENDBRANCH  11  31
BRANCH   1  33
HETATM   33  N2  UNL     1      16.113  21.107   5.315  1.00  0.00    -0.293 N
HETATM   34  C3  UNL     1      16.801  19.876   5.443  1.00  0.00     0.321 C
HETATM   35  N1  UNL     1      17.355  19.195   4.331  1.00  0.00    -0.343 N
HETATM   36  O1  UNL     1      16.934  19.357   6.580  1.00  0.00    -0.247 OA
ATOM     37  H1  UNL     1      17.263  19.592   3.396  1.00  0.00     0.164 HD
ATOM     38  H2  UNL     1      16.515  21.816   4.702  1.00  0.00     0.172 HD
BRANCH  35  39
HETATM   39  C2  UNL     1      18.044  17.952   4.513  1.00  0.00     0.120 C
HETATM   40  C1  UNL     1      18.412  17.311   3.170  1.00  0.00     0.026 C
ENDBRANCH  35  39
ENDBRANCH   1  33
TORSDOF 8
ENDMDL