MODEL 1
REMARK VINA RESULT: -9.646834971      0.000      0.000
REMARK  8 active torsions:
REMARK  status: ('A' for Active; 'I' for Inactive)
REMARK    1  A    between atoms: C6_7  and  C7_8
REMARK       I    between atoms: C7_8  and  N1_10
REMARK    2  A    between atoms: N1_10  and  C8_12
REMARK    3  A    between atoms: C11_15  and  C12_16
REMARK       I    between atoms: C12_16  and  N2_18
REMARK    4  A    between atoms: N2_18  and  C13_20
REMARK    5  A    between atoms: C13_20  and  C14_21
REMARK    6  A    between atoms: C13_20  and  C21_28
REMARK    7  A    between atoms: C14_21  and  C15_22
REMARK    8  A    between atoms: C26_35  and  C27_36
ROOT
HETATM    1  C8  UNL     1      13.764  20.537   3.569  1.00  0.00     0.084 C
HETATM    2  C9  UNL     1      13.978  19.124   4.006  1.00  0.00     0.026 C
HETATM    3  C10 UNL     1      14.551  18.980   5.364  1.00  0.00     0.016 C
HETATM    4  C11 UNL     1      15.658  19.934   5.709  1.00  0.00     0.078 C
HETATM    5  C22 UNL     1      15.584  21.244   5.020  1.00  0.00     0.016 C
HETATM    6  C23 UNL     1      15.109  21.229   3.609  1.00  0.00     0.026 C
ENDROOT
BRANCH   1   7
HETATM    7  N1  UNL     1      12.873  21.272   4.443  1.00  0.00    -0.356 N
HETATM    8  C7  UNL     1      11.521  21.496   4.134  1.00  0.00     0.230 C
HETATM    9  O2  UNL     1      11.045  21.057   3.070  1.00  0.00    -0.273 OA
ATOM     10  H1  UNL     1      13.243  21.642   5.319  1.00  0.00     0.162 HD
BRANCH   8  11
HETATM   11  C6  UNL     1      10.668  22.251   5.066  1.00  0.00     0.155 C
HETATM   12  C5  UNL     1       9.697  23.123   4.401  1.00  0.00     0.141 C
HETATM   13  C4  UNL     1       9.679  24.600   4.410  1.00  0.00     0.088 C
HETATM   14  O1  UNL     1       8.794  22.563   3.764  1.00  0.00    -0.297 OA
HETATM   15  C3  UNL     1      10.466  25.044   5.654  1.00  0.00     0.026 C
HETATM   16  C2  UNL     1      11.774  24.327   5.514  1.00  0.00    -0.079 C
HETATM   17  C28 UNL     1       9.765  24.424   6.822  1.00  0.00     0.005 A
HETATM   18  C1  UNL     1      12.860  24.804   4.968  1.00  0.00     0.015 C
HETATM   19  C24 UNL     1      11.493  23.005   6.125  1.00  0.00     0.039 C
HETATM   20  C25 UNL     1      10.564  23.221   7.261  1.00  0.00     0.006 A
HETATM   21  C26 UNL     1      10.464  24.370   8.133  1.00  0.00     0.010 A
BRANCH  21  22
HETATM   22  C27 UNL     1      11.569  25.305   8.503  1.00  0.00     0.120 C
HETATM   23 CL1  UNL     1      11.692  25.514  10.282  1.00  0.00    -0.130 Cl
ENDBRANCH  21  22
ENDBRANCH   8  11
ENDBRANCH   1   7
BRANCH   4  24
HETATM   24  C12 UNL     1      17.006  19.322   5.443  1.00  0.00     0.222 C
HETATM   25  O3  UNL     1      18.010  20.020   5.235  1.00  0.00    -0.273 OA
HETATM   26  N2  UNL     1      17.083  17.906   5.438  1.00  0.00    -0.346 N
ATOM     27  H2  UNL     1      16.217  17.396   5.613  1.00  0.00     0.163 HD
BRANCH  26  28
HETATM   28  C13 UNL     1      18.259  17.128   5.213  1.00  0.00     0.185 C
BRANCH  28  29
HETATM   29  C14 UNL     1      18.213  15.863   6.019  1.00  0.00     0.041 C
BRANCH  29  30
HETATM   30  C15 UNL     1      19.517  15.620   6.753  1.00  0.00    -0.012 C
HETATM   31  C16 UNL     1      20.118  14.281   6.471  1.00  0.00     0.005 C
HETATM   32  C17 UNL     1      19.085  13.211   6.701  1.00  0.00     0.000 C
HETATM   33  C18 UNL     1      18.776  13.183   8.197  1.00  0.00     0.000 C
HETATM   34  C19 UNL     1      18.305  14.526   8.653  1.00  0.00     0.000 C
HETATM   35  C20 UNL     1      19.202  15.662   8.242  1.00  0.00     0.005 C
ENDBRANCH  29  30
ENDBRANCH  28  29
BRANCH  28  36
HETATM   36  C21 UNL     1      18.430  16.819   3.778  1.00  0.00     0.196 C
HETATM   37  O4  UNL     1      18.452  15.635   3.382  1.00  0.00    -0.646 OA
HETATM   38  O5  UNL     1      18.572  17.866   2.845  1.00  0.00    -0.646 OA
ENDBRANCH  28  36
ENDBRANCH  26  28
ENDBRANCH   4  24
TORSDOF 8
ENDMDL