MODEL 3
REMARK VINA RESULT: -8.741755444      2.525      4.334
REMARK  8 active torsions:
REMARK  status: ('A' for Active; 'I' for Inactive)
REMARK    1  A    between atoms: C7_7  and  N1_8
REMARK    2  A    between atoms: C12_14  and  N2_15
REMARK    3  A    between atoms: C15_18  and  C16_19
REMARK    4  A    between atoms: C16_19  and  N3_20
REMARK    5  A    between atoms: N3_20  and  C17_23
REMARK    6  A    between atoms: C17_23  and  C18_24
REMARK    7  A    between atoms: C18_24  and  N4_25
REMARK    8  A    between atoms: C20_30  and  C22_32
ROOT
HETATM    1  N2  UNL     1      12.556  23.369   6.588  1.00  0.00    -0.391 N
HETATM    2  C13 UNL     1      12.022  22.093   6.274  1.00  0.00     0.119 C
HETATM    3  C14 UNL     1      12.967  20.952   6.174  1.00  0.00     0.026 C
HETATM    4  C15 UNL     1      14.198  21.045   7.017  1.00  0.00     0.023 C
HETATM    5  C20 UNL     1      14.730  22.455   6.895  1.00  0.00    -0.010 C
HETATM    6  C21 UNL     1      14.953  22.735   5.431  1.00  0.00     0.018 C
HETATM    7  C23 UNL     1      13.616  23.344   7.474  1.00  0.00     0.129 C
ENDROOT
BRANCH   1   8
HETATM    8  C12 UNL     1      11.673  24.442   6.468  1.00  0.00     0.184 C
HETATM    9  N1  UNL     1      10.269  24.204   6.649  1.00  0.00    -0.326 N
HETATM   10  C8  UNL     1       9.829  24.020   7.976  1.00  0.00     0.221 C
HETATM   11  O1  UNL     1       8.877  23.288   8.264  1.00  0.00    -0.273 OA
HETATM   12  C9  UNL     1      10.548  24.750   9.098  1.00  0.00     0.103 C
HETATM   13  C10 UNL     1      11.351  25.872   8.541  1.00  0.00     0.013 C
HETATM   14  C11 UNL     1      12.083  25.631   7.272  1.00  0.00     0.047 C
BRANCH   9  15
HETATM   15  C7  UNL     1       9.334  24.172   5.559  1.00  0.00     0.090 C
HETATM   16  C6  UNL     1       9.027  25.538   5.053  1.00  0.00     0.030 C
HETATM   17  C5  UNL     1       8.239  25.512   3.754  1.00  0.00    -0.011 C
HETATM   18  C4  UNL     1       6.916  24.828   3.884  1.00  0.00     0.013 C
HETATM   19  C27 UNL     1       9.166  24.829   2.764  1.00  0.00     0.014 C
HETATM   20  C2  UNL     1       6.726  23.675   2.932  1.00  0.00    -0.047 C
HETATM   21  C1  UNL     1       5.482  22.916   3.402  1.00  0.00     0.015 C
HETATM   22  C3  UNL     1       6.420  24.141   1.529  1.00  0.00     0.015 C
HETATM   23  C28 UNL     1       7.866  22.702   2.971  1.00  0.00     0.018 C
HETATM   24  C25 UNL     1       9.202  23.387   3.152  1.00  0.00    -0.041 C
HETATM   25  C24 UNL     1       9.695  23.161   4.523  1.00  0.00     0.034 C
HETATM   26  C26 UNL     1      10.173  22.703   2.178  1.00  0.00     0.015 C
ENDBRANCH   9  15
ENDBRANCH   1   8
BRANCH   5  27
HETATM   27  C22 UNL     1      16.023  22.676   7.621  1.00  0.00     0.126 C
HETATM   28 CL1  UNL     1      16.027  22.056   9.266  1.00  0.00    -0.130 Cl
ENDBRANCH   5  27
BRANCH   4  29
HETATM   29  C16 UNL     1      15.228  20.045   6.613  1.00  0.00     0.237 C
BRANCH  29  30
HETATM   30  N3  UNL     1      14.729  19.084   5.647  1.00  0.00    -0.073 N
ATOM     31  H32 UNL     1      14.699  18.131   6.011  1.00  0.00     0.277 HD
ATOM     32  H31 UNL     1      13.731  19.187   5.463  1.00  0.00     0.277 HD
BRANCH  30  33
HETATM   33  C17 UNL     1      15.541  19.206   4.448  1.00  0.00     0.251 C
BRANCH  33  34
HETATM   34  C18 UNL     1      17.006  19.335   4.773  1.00  0.00     0.149 C
BRANCH  34  35
HETATM   35  N4  UNL     1      17.661  18.059   4.965  1.00  0.00    -0.365 N
HETATM   36  C19 UNL     1      18.295  17.473   3.990  1.00  0.00     0.197 C
HETATM   37  N5  UNL     1      18.330  18.120   2.726  1.00  0.00    -0.067 NA
HETATM   38  N6  UNL     1      18.944  16.225   4.155  1.00  0.00    -0.067 NA
ATOM     39  H4  UNL     1      17.624  17.610   5.880  1.00  0.00     0.161 HD
ENDBRANCH  34  35
ENDBRANCH  33  34
ENDBRANCH  30  33
ENDBRANCH  29  30
ENDBRANCH   4  29
TORSDOF 8
ENDMDL