MODEL 3
REMARK VINA RESULT: -8.536387953      4.098      9.576
REMARK  7 active torsions:
REMARK  status: ('A' for Active; 'I' for Inactive)
REMARK       I    between atoms: C2_2  and  N1_4
REMARK    1  A    between atoms: N1_4  and  C3_6
REMARK    2  A    between atoms: C3_6  and  C4_7
REMARK    3  A    between atoms: C3_6  and  C22_34
REMARK       I    between atoms: C4_7  and  N2_9
REMARK    4  A    between atoms: C8_13  and  C10_15
REMARK       I    between atoms: C10_15  and  N3_17
REMARK    5  A    between atoms: N3_17  and  C11_19
REMARK    6  A    between atoms: C11_19  and  C13_21
REMARK       I    between atoms: C13_21  and  N4_23
REMARK    7  A    between atoms: N4_23  and  C14_25
ROOT
HETATM    1  C4  UNL     1      12.547  23.072   6.009  1.00  0.00     0.244 C
HETATM    2  O2  UNL     1      13.172  24.156   5.709  1.00  0.00    -0.271 OA
HETATM    3  N2  UNL     1      13.256  21.850   6.120  1.00  0.00    -0.332 N
HETATM    4  C5  UNL     1      12.767  20.529   6.407  1.00  0.00     0.127 C
HETATM    5  C6  UNL     1      13.464  19.686   5.353  1.00  0.00     0.023 C
HETATM    6  C7  UNL     1      14.784  20.401   5.193  1.00  0.00     0.042 C
HETATM    7  C8  UNL     1      14.679  21.694   5.956  1.00  0.00     0.112 C
HETATM    8  C9  UNL     1      15.313  22.811   5.163  1.00  0.00     0.049 C
ENDROOT
BRANCH   7   9
HETATM    9  C10 UNL     1      15.401  21.649   7.255  1.00  0.00     0.246 C
HETATM   10  O3  UNL     1      15.510  22.704   7.902  1.00  0.00    -0.271 OA
HETATM   11  N3  UNL     1      15.938  20.439   7.717  1.00  0.00    -0.346 N
ATOM     12  H3  UNL     1      15.820  19.601   7.147  1.00  0.00     0.163 HD
BRANCH  11  13
HETATM   13  C11 UNL     1      16.653  20.333   8.972  1.00  0.00     0.172 C
HETATM   14  C12 UNL     1      15.598  20.259  10.082  1.00  0.00     0.042 C
BRANCH  13  15
HETATM   15  C13 UNL     1      17.479  19.122   8.937  1.00  0.00     0.240 C
HETATM   16  O4  UNL     1      18.029  18.796   7.868  1.00  0.00    -0.271 OA
HETATM   17  N4  UNL     1      17.667  18.318  10.081  1.00  0.00    -0.354 N
ATOM     18  H4  UNL     1      17.214  18.595  10.951  1.00  0.00     0.162 HD
BRANCH  17  19
HETATM   19  C14 UNL     1      18.484  17.102  10.073  1.00  0.00     0.093 C
HETATM   20  C15 UNL     1      17.690  15.914   9.573  1.00  0.00     0.026 C
HETATM   21  C16 UNL     1      16.831  15.388  10.684  1.00  0.00     0.004 C
HETATM   22  C17 UNL     1      17.759  14.753  11.690  1.00  0.00     0.021 C
HETATM   23  C18 UNL     1      19.055  15.439  11.876  1.00  0.00     0.092 C
HETATM   24 CL1  UNL     1      20.431  14.482  11.224  1.00  0.00    -0.124 Cl
HETATM   25  C19 UNL     1      19.137  16.849  11.385  1.00  0.00    -0.010 C
HETATM   26  C20 UNL     1      20.640  17.162  11.276  1.00  0.00     0.018 C
HETATM   27  C21 UNL     1      18.650  17.765  12.504  1.00  0.00     0.018 C
ENDBRANCH  17  19
ENDBRANCH  13  15
ENDBRANCH  11  13
ENDBRANCH   7   9
BRANCH   1  28
HETATM   28  C3  UNL     1      11.093  23.254   6.202  1.00  0.00     0.180 C
BRANCH  28  29
HETATM   29  N1  UNL     1      10.509  23.902   4.999  1.00  0.00    -0.348 N
HETATM   30  C2  UNL     1       9.969  23.125   3.937  1.00  0.00     0.214 C
HETATM   31  C1  UNL     1       9.403  23.839   2.769  1.00  0.00     0.117 C
HETATM   32  O1  UNL     1       9.991  21.880   4.025  1.00  0.00    -0.274 OA
ATOM     33  H1  UNL     1      10.494  24.919   4.934  1.00  0.00     0.163 HD
ENDBRANCH  28  29
BRANCH  28  34
HETATM   34  C22 UNL     1      10.744  24.212   7.326  1.00  0.00     0.018 C
HETATM   35  C23 UNL     1      11.798  24.389   8.358  1.00  0.00     0.007 C
HETATM   36  C24 UNL     1      11.499  25.677   9.109  1.00  0.00     0.000 C
HETATM   37  C25 UNL     1      10.144  26.238   8.820  1.00  0.00     0.000 C
HETATM   38  C26 UNL     1       9.105  25.154   8.868  1.00  0.00     0.000 C
HETATM   39  C27 UNL     1       9.445  23.957   8.004  1.00  0.00     0.007 C
ENDBRANCH  28  34
ENDBRANCH   1  28
TORSDOF 7
ENDMDL