MODEL 2
REMARK VINA RESULT: -9.891454200      1.531      2.263
REMARK  7 active torsions:
REMARK  status: ('A' for Active; 'I' for Inactive)
REMARK    1  A    between atoms: C6_6  and  C7_7
REMARK    2  A    between atoms: C7_7  and  N1_8
REMARK       I    between atoms: N1_8  and  C8_10
REMARK    3  A    between atoms: C8_10  and  C9_12
REMARK    4  A    between atoms: C9_12  and  C10_13
REMARK    5  A    between atoms: C19_23  and  O2_24
REMARK    6  A    between atoms: O2_24  and  C20_25
REMARK    7  A    between atoms: C20_25  and  C21_26
ROOT
HETATM    1  C10 UNL     1      10.070  26.042   7.806  1.00  0.00    -0.062 C
HETATM    2  C11 UNL     1      11.345  26.189   8.557  1.00  0.00     0.000 C
HETATM    3  C12 UNL     1      11.971  25.028   8.616  1.00  0.00    -0.020 C
HETATM    4  C13 UNL     1      11.168  23.977   7.902  1.00  0.00     0.025 C
HETATM    5  C14 UNL     1      11.992  23.521   6.762  1.00  0.00     0.002 C
HETATM    6  C15 UNL     1      12.775  24.623   6.089  1.00  0.00     0.047 C
HETATM    7  C16 UNL     1      13.781  24.001   5.187  1.00  0.00     0.200 C
HETATM    8  F1  UNL     1      14.991  23.950   5.865  1.00  0.00    -0.245 F
HETATM    9  C17 UNL     1      13.389  22.666   4.665  1.00  0.00    -0.039 C
HETATM   10  C18 UNL     1      14.341  21.937   4.078  1.00  0.00     0.011 C
HETATM   11  C19 UNL     1      14.177  20.603   3.496  1.00  0.00     0.145 C
HETATM   12  C22 UNL     1      12.992  19.855   4.075  1.00  0.00     0.037 C
HETATM   13  C23 UNL     1      12.260  20.610   5.121  1.00  0.00     0.017 C
HETATM   14  C24 UNL     1      12.046  22.090   4.757  1.00  0.00    -0.014 C
HETATM   15  C25 UNL     1      11.274  22.078   3.458  1.00  0.00     0.020 C
HETATM   16  C26 UNL     1      11.180  22.722   5.811  1.00  0.00     0.003 C
HETATM   17  C27 UNL     1      10.132  23.627   5.231  1.00  0.00     0.007 C
HETATM   18  C28 UNL     1       9.304  24.344   6.206  1.00  0.00     0.015 C
HETATM   19  C29 UNL     1       9.829  24.579   7.579  1.00  0.00    -0.013 C
HETATM   20  C30 UNL     1       8.834  23.945   8.537  1.00  0.00     0.021 C
ENDROOT
BRANCH   1  21
HETATM   21  C9  UNL     1       8.977  26.918   8.195  1.00  0.00     0.137 C
BRANCH  21  22
HETATM   22  C8  UNL     1       7.887  27.172   7.229  1.00  0.00     0.221 C
HETATM   23  N1  UNL     1       6.594  26.705   7.603  1.00  0.00    -0.359 N
ATOM     24  H1  UNL     1       6.541  26.230   8.504  1.00  0.00     0.162 HD
HETATM   25  O1  UNL     1       8.027  27.747   6.146  1.00  0.00    -0.273 OA
BRANCH  23  26
HETATM   26  C7  UNL     1       5.376  26.812   6.895  1.00  0.00     0.155 C
BRANCH  26  27
HETATM   27  C6  UNL     1       4.122  27.069   7.634  1.00  0.00     0.207 C
HETATM   28  C4  UNL     1       2.961  26.559   6.770  1.00  0.00     0.016 C
HETATM   29  C3  UNL     1       2.585  27.822   6.031  1.00  0.00     0.039 C
HETATM   30  C5  UNL     1       1.846  25.992   7.598  1.00  0.00     0.012 C
HETATM   31  C2  UNL     1       2.801  28.892   7.074  1.00  0.00     0.182 C
HETATM   32  C1  UNL     1       1.495  29.254   7.742  1.00  0.00     0.040 C
HETATM   33  N3  UNL     1       3.786  28.395   7.986  1.00  0.00    -0.065 N
ATOM     34  H32 UNL     1       4.606  29.001   8.038  1.00  0.00     0.278 HD
ATOM     35  H31 UNL     1       3.487  28.473   8.958  1.00  0.00     0.278 HD
ENDBRANCH  26  27
ENDBRANCH  23  26
ENDBRANCH  21  22
ENDBRANCH   1  21
BRANCH  11  36
HETATM   36  O2  UNL     1      15.340  19.879   3.690  1.00  0.00    -0.373 OA
BRANCH  36  37
HETATM   37  C20 UNL     1      15.710  19.031   2.694  1.00  0.00     0.268 C
BRANCH  37  38
HETATM   38  C21 UNL     1      17.059  18.500   2.688  1.00  0.00     0.254 C
HETATM   39  N2  UNL     1      17.881  18.745   3.829  1.00  0.00    -0.060 NA
HETATM   40  O3  UNL     1      17.553  17.844   1.757  1.00  0.00    -0.275 OA
ENDBRANCH  37  38
ENDBRANCH  36  37
ENDBRANCH  11  36
TORSDOF 7
ENDMDL