MODEL 1
REMARK VINA RESULT: -10.758242575      0.000      0.000
REMARK  7 active torsions:
REMARK  status: ('A' for Active; 'I' for Inactive)
REMARK    1  A    between atoms: C5_6  and  C6_7
REMARK    2  A    between atoms: C8_9  and  C9_10
REMARK       I    between atoms: N1_15  and  C14_17
REMARK    3  A    between atoms: C14_17  and  C15_19
REMARK    4  A    between atoms: C19_25  and  S1_26
REMARK    5  A    between atoms: S1_26  and  N3_29
REMARK    6  A    between atoms: N3_29  and  C20_31
REMARK    7  A    between atoms: C24_35  and  C25_36
ROOT
HETATM    1  C1  UNL     1       9.722  23.202   4.357  1.00  0.00     0.052 C
HETATM    2  C2  UNL     1      11.029  22.573   4.453  1.00  0.00    -0.017 A
HETATM    3  C3  UNL     1      11.249  21.411   3.692  1.00  0.00     0.042 A
HETATM    4 CL1  UNL     1       9.938  20.876   2.643  1.00  0.00    -0.084 Cl
HETATM    5  C4  UNL     1      12.435  20.722   3.764  1.00  0.00     0.038 A
HETATM    6  C5  UNL     1      13.459  21.130   4.576  1.00  0.00    -0.006 A
HETATM    7  C18 UNL     1      13.249  22.259   5.315  1.00  0.00     0.039 A
HETATM    8  C19 UNL     1      12.034  23.000   5.266  1.00  0.00     0.087 A
ENDROOT
BRANCH   6   9
HETATM    9  C6  UNL     1      14.733  20.416   4.674  1.00  0.00     0.044 A
HETATM   10  C7  UNL     1      15.379  19.869   3.592  1.00  0.00     0.038 A
HETATM   11  C8  UNL     1      16.585  19.188   3.661  1.00  0.00    -0.048 A
HETATM   12  C12 UNL     1      17.163  19.059   4.904  1.00  0.00     0.056 A
HETATM   13  C13 UNL     1      16.531  19.601   5.999  1.00  0.00     0.108 A
HETATM   14  N1  UNL     1      17.087  19.470   7.156  1.00  0.00    -0.313 N
HETATM   15  N2  UNL     1      15.334  20.265   5.865  1.00  0.00    -0.342 N
HETATM   16  C14 UNL     1      16.567  19.965   8.361  1.00  0.00     0.227 C
ATOM     17  H1  UNL     1      17.973  18.967   7.198  1.00  0.00     0.170 HD
HETATM   18  O1  UNL     1      15.828  19.248   9.113  1.00  0.00    -0.273 OA
ATOM     19  H2  UNL     1      14.889  20.656   6.696  1.00  0.00     0.167 HD
BRANCH  11  20
HETATM   20  C9  UNL     1      17.224  18.621   2.436  1.00  0.00     0.019 A
HETATM   21  C10 UNL     1      17.971  17.345   2.514  1.00  0.00     0.010 A
HETATM   22  C11 UNL     1      16.610  17.339   1.869  1.00  0.00     0.010 A
ENDBRANCH  11  20
BRANCH  16  23
HETATM   23  C15 UNL     1      16.827  21.354   8.869  1.00  0.00     0.078 A
HETATM   24  C16 UNL     1      15.763  21.989   9.731  1.00  0.00     0.015 A
HETATM   25  C17 UNL     1      16.070  22.499   8.339  1.00  0.00     0.015 A
ENDBRANCH  16  23
ENDBRANCH   6   9
BRANCH   8  26
HETATM   26  S1  UNL     1      11.916  24.464   6.197  1.00  0.00     0.259 S
HETATM   27  O2  UNL     1      12.752  24.289   7.444  1.00  0.00    -0.201 OA
HETATM   28  O3  UNL     1      12.730  25.530   5.423  1.00  0.00    -0.201 OA
BRANCH  26  29
HETATM   29  N3  UNL     1      10.414  25.098   6.433  1.00  0.00    -0.310 N
ATOM     30  H3  UNL     1      10.006  25.561   5.620  1.00  0.00     0.172 HD
BRANCH  29  31
HETATM   31  C20 UNL     1       9.630  25.098   7.556  1.00  0.00     0.105 C
HETATM   32  C21 UNL     1      10.084  25.974   8.707  1.00  0.00     0.027 C
HETATM   33  C22 UNL     1       8.814  26.166   9.504  1.00  0.00     0.003 C
HETATM   34  C23 UNL     1       7.644  25.987   8.591  1.00  0.00     0.016 C
HETATM   35  C24 UNL     1       8.265  25.752   7.222  1.00  0.00     0.098 C
BRANCH  35  36
HETATM   36  C25 UNL     1       8.372  27.054   6.579  1.00  0.00     0.237 C
HETATM   37  N4  UNL     1       8.627  27.078   5.186  1.00  0.00    -0.062 NA
HETATM   38  O4  UNL     1       8.255  28.148   7.162  1.00  0.00    -0.276 OA
ENDBRANCH  35  36
ENDBRANCH  29  31
ENDBRANCH  26  29
ENDBRANCH   8  26
TORSDOF 7
ENDMDL