MODEL 5
REMARK VINA RESULT: -7.955787727      3.888      9.533
REMARK  11 active torsions:
REMARK  status: ('A' for Active; 'I' for Inactive)
REMARK       I    between atoms: C1_2  and  N2_4
REMARK    1  A    between atoms: N2_4  and  C2_6
REMARK    2  A    between atoms: C2_6  and  C3_7
REMARK    3  A    between atoms: C3_7  and  C4_8
REMARK    4  A    between atoms: C4_8  and  C5_9
REMARK    5  A    between atoms: C5_9  and  N3_10
REMARK    6  A    between atoms: C6_11  and  C7_12
REMARK    7  A    between atoms: C8_13  and  C9_14
REMARK    8  A    between atoms: C15_21  and  N4_22
REMARK    9  A    between atoms: N5_25  and  C18_26
REMARK   10  A    between atoms: C18_26  and  N6_28
REMARK   11  A    between atoms: N6_28  and  C19_30
ROOT
HETATM    1  N3  UNL     1      11.988  22.441   5.197  1.00  0.00    -0.320 N
HETATM    2  C6  UNL     1      12.790  22.806   6.167  1.00  0.00     0.097 A
HETATM    3  C14 UNL     1      12.698  24.100   6.608  1.00  0.00     0.092 A
HETATM    4  S1  UNL     1      11.468  24.737   5.617  1.00  0.00    -0.063 SA
HETATM    5  C15 UNL     1      11.138  23.335   4.699  1.00  0.00     0.149 A
ENDROOT
BRANCH   5   6
HETATM    6  N4  UNL     1      10.150  23.229   3.664  1.00  0.00    -0.358 N
HETATM    7  C16 UNL     1       9.248  22.106   3.666  1.00  0.00     0.145 C
HETATM    8  C17 UNL     1       8.247  22.252   2.529  1.00  0.00     0.145 C
HETATM    9  N5  UNL     1       7.711  23.596   2.567  1.00  0.00    -0.355 N
HETATM   10  C24 UNL     1       8.605  24.730   2.641  1.00  0.00     0.145 C
HETATM   11  C25 UNL     1      10.036  24.237   2.633  1.00  0.00     0.145 C
BRANCH   9  12
HETATM   12  C18 UNL     1       6.311  23.847   2.534  1.00  0.00     0.170 C
HETATM   13  S2  UNL     1       5.573  23.900   1.084  1.00  0.00    -0.041 SA
BRANCH  12  14
HETATM   14  N6  UNL     1       5.544  24.051   3.696  1.00  0.00    -0.362 N
ATOM     15  H6  UNL     1       5.984  23.878   4.600  1.00  0.00     0.162 HD
BRANCH  14  16
HETATM   16  C19 UNL     1       4.168  24.493   3.682  1.00  0.00     0.083 C
HETATM   17  C20 UNL     1       3.258  23.484   4.309  1.00  0.00     0.025 C
HETATM   18  C21 UNL     1       2.331  24.274   5.175  1.00  0.00     0.002 C
HETATM   19  C22 UNL     1       3.171  25.415   5.677  1.00  0.00     0.002 C
HETATM   20  C23 UNL     1       4.000  25.794   4.449  1.00  0.00     0.025 C
ENDBRANCH  14  16
ENDBRANCH  12  14
ENDBRANCH   9  12
ENDBRANCH   5   6
BRANCH   1  21
HETATM   21  C5  UNL     1      11.967  21.058   4.632  1.00  0.00     0.132 C
BRANCH  21  22
HETATM   22  C4  UNL     1      13.065  20.875   3.661  1.00  0.00     0.022 C
BRANCH  22  23
HETATM   23  C3  UNL     1      13.883  19.630   3.751  1.00  0.00     0.021 C
BRANCH  23  24
HETATM   24  C2  UNL     1      15.348  19.773   3.864  1.00  0.00     0.124 C
BRANCH  24  25
HETATM   25  N2  UNL     1      16.159  18.943   3.044  1.00  0.00    -0.345 N
HETATM   26  C1  UNL     1      17.499  18.634   3.391  1.00  0.00     0.328 C
HETATM   27  N1  UNL     1      18.310  17.812   2.584  1.00  0.00    -0.040 NA
HETATM   28  O1  UNL     1      17.973  19.107   4.446  1.00  0.00    -0.251 OA
ATOM     29  H2  UNL     1      15.768  18.559   2.184  1.00  0.00     0.163 HD
ENDBRANCH  24  25
ENDBRANCH  23  24
ENDBRANCH  22  23
ENDBRANCH  21  22
ENDBRANCH   1  21
BRANCH   2  30
HETATM   30  C7  UNL     1      13.778  21.912   6.802  1.00  0.00    -0.048 C
HETATM   31  C8  UNL     1      14.598  21.181   7.316  1.00  0.00    -0.095 C
BRANCH  31  32
HETATM   32  C9  UNL     1      15.585  20.284   7.916  1.00  0.00     0.065 C
HETATM   33  C10 UNL     1      16.996  20.812   7.760  1.00  0.00     0.017 C
HETATM   34  C11 UNL     1      17.229  21.761   8.893  1.00  0.00     0.001 C
HETATM   35  C12 UNL     1      15.963  21.739   9.716  1.00  0.00     0.001 C
HETATM   36  C13 UNL     1      15.431  20.341   9.433  1.00  0.00     0.017 C
ENDBRANCH  31  32
ENDBRANCH   2  30
TORSDOF 11
ENDMDL