MODEL 5
REMARK VINA RESULT: -9.193784783      2.040      3.131
REMARK  10 active torsions:
REMARK  status: ('A' for Active; 'I' for Inactive)
REMARK    1  A    between atoms: C4_4  and  S1_5
REMARK    2  A    between atoms: S1_5  and  N1_8
REMARK    3  A    between atoms: N1_8  and  C6_10
REMARK    4  A    between atoms: C6_10  and  N2_11
REMARK    5  A    between atoms: C11_16  and  C12_17
REMARK    6  A    between atoms: C15_22  and  N4_23
REMARK    7  A    between atoms: N4_23  and  C16_25
REMARK    8  A    between atoms: C16_25  and  C17_26
REMARK    9  A    between atoms: C17_26  and  N5_27
REMARK   10  A    between atoms: N5_27  and  C18_29
ROOT
HETATM    1  C12 UNL     1      15.409  21.808   7.678  1.00  0.00     0.117 A
HETATM    2  N3  UNL     1      16.256  22.450   8.558  1.00  0.00    -0.351 N
ATOM      3  H3  UNL     1      15.965  23.362   8.911  1.00  0.00     0.166 HD
HETATM    4  C13 UNL     1      17.416  21.973   8.979  1.00  0.00     0.093 A
HETATM    5  C14 UNL     1      17.841  20.730   8.516  1.00  0.00     0.065 A
HETATM    6  C15 UNL     1      17.026  20.062   7.641  1.00  0.00     0.103 A
HETATM    7  N7  UNL     1      15.836  20.629   7.254  1.00  0.00    -0.328 N
ATOM      8  H7  UNL     1      15.246  20.110   6.603  1.00  0.00     0.169 HD
ENDROOT
BRANCH   6   9
HETATM    9  N4  UNL     1      17.371  18.911   7.182  1.00  0.00    -0.375 N
ATOM     10  H4  UNL     1      17.046  18.083   7.680  1.00  0.00     0.161 HD
BRANCH   9  11
HETATM   11  C16 UNL     1      18.180  18.717   6.024  1.00  0.00     0.141 C
BRANCH  11  12
HETATM   12  C17 UNL     1      18.164  17.302   5.485  1.00  0.00     0.139 C
BRANCH  12  13
HETATM   13  N5  UNL     1      16.892  17.020   4.850  1.00  0.00    -0.388 N
ATOM     14  H5  UNL     1      16.229  16.404   5.319  1.00  0.00     0.159 HD
BRANCH  13  15
HETATM   15  C18 UNL     1      16.578  17.528   3.705  1.00  0.00     0.042 A
HETATM   16  C19 UNL     1      17.254  17.237   2.540  1.00  0.00     0.047 A
HETATM   17  C20 UNL     1      16.854  17.824   1.345  1.00  0.00     0.090 A
HETATM   18  N6  UNL     1      15.823  18.679   1.262  1.00  0.00    -0.365 N
HETATM   19  C21 UNL     1      15.154  18.972   2.391  1.00  0.00     0.046 A
ATOM     20  H6  UNL     1      15.554  19.093   0.370  1.00  0.00     0.165 HD
HETATM   21  C22 UNL     1      14.094  19.847   2.322  1.00  0.00     0.054 A
HETATM   22  C26 UNL     1      15.518  18.406   3.621  1.00  0.00     0.017 A
HETATM   23  C23 UNL     1      13.410  20.147   3.479  1.00  0.00     0.036 A
HETATM   24 CL1  UNL     1      12.061  21.257   3.395  1.00  0.00    -0.084 Cl
HETATM   25  C24 UNL     1      13.766  19.589   4.696  1.00  0.00     0.025 A
HETATM   26  C25 UNL     1      14.828  18.713   4.766  1.00  0.00     0.018 A
ENDBRANCH  13  15
ENDBRANCH  12  13
ENDBRANCH  11  12
ENDBRANCH   9  11
ENDBRANCH   6   9
BRANCH   1  27
HETATM   27  C11 UNL     1      14.203  22.518   7.271  1.00  0.00     0.014 A
HETATM   28  C2  UNL     1      13.935  23.069   6.062  1.00  0.00    -0.047 A
HETATM   29  C1  UNL     1      14.943  23.160   5.007  1.00  0.00     0.049 C
HETATM   30  C3  UNL     1      12.688  23.651   5.777  1.00  0.00     0.032 A
HETATM   31  C4  UNL     1      11.689  23.690   6.704  1.00  0.00     0.075 A
HETATM   32  C9  UNL     1      11.964  23.132   7.931  1.00  0.00     0.026 A
HETATM   33  C10 UNL     1      13.159  22.566   8.222  1.00  0.00     0.017 A
BRANCH  31  34
HETATM   34  S1  UNL     1      10.122  24.404   6.390  1.00  0.00     0.248 S
HETATM   35  O1  UNL     1      10.251  25.891   6.728  1.00  0.00    -0.205 OA
HETATM   36  O2  UNL     1       9.092  23.883   7.338  1.00  0.00    -0.205 OA
BRANCH  34  37
HETATM   37  N1  UNL     1       9.658  24.276   4.758  1.00  0.00    -0.172 NA
HETATM   38  C5  UNL     1       9.463  22.861   4.460  1.00  0.00     0.136 C
BRANCH  37  39
HETATM   39  C6  UNL     1       8.470  24.979   4.394  1.00  0.00     0.163 C
BRANCH  39  40
HETATM   40  N2  UNL     1       7.869  24.675   3.165  1.00  0.00    -0.389 N
HETATM   41  C7  UNL     1       8.351  25.306   1.991  1.00  0.00     0.149 C
HETATM   42  C8  UNL     1       6.477  24.442   3.147  1.00  0.00     0.149 C
ENDBRANCH  39  40
ENDBRANCH  37  39
ENDBRANCH  34  37
ENDBRANCH  31  34
ENDBRANCH   1  27
TORSDOF 10
ENDMDL