MODEL 5
REMARK VINA RESULT: -8.591422202      3.214      4.999
REMARK  10 active torsions:
REMARK  status: ('A' for Active; 'I' for Inactive)
REMARK    1  A    between atoms: C3_3  and  C4_4
REMARK    2  A    between atoms: C6_6  and  S1_7
REMARK    3  A    between atoms: S1_7  and  N1_8
REMARK    4  A    between atoms: C9_15  and  N2_16
REMARK       I    between atoms: N2_16  and  C10_18
REMARK    5  A    between atoms: C10_18  and  C11_20
REMARK    6  A    between atoms: C11_20  and  C12_21
REMARK    7  A    between atoms: C12_21  and  C13_22
REMARK    8  A    between atoms: C13_22  and  C14_23
REMARK    9  A    between atoms: C14_23  and  C15_24
REMARK   10  A    between atoms: C15_24  and  N3_25
ROOT
HETATM    1  C1  UNL     1      14.777  19.153   1.738  1.00  0.00     0.112 C
HETATM    2  C2  UNL     1      14.681  19.948   2.957  1.00  0.00    -0.105 C
HETATM    3  C3  UNL     1      14.620  20.621   3.973  1.00  0.00    -0.065 C
ENDROOT
BRANCH   3   4
HETATM    4  C4  UNL     1      14.530  21.422   5.165  1.00  0.00     0.045 A
HETATM    5  C5  UNL     1      15.397  21.239   6.194  1.00  0.00     0.048 A
HETATM    6  C6  UNL     1      15.337  21.979   7.333  1.00  0.00     0.080 A
HETATM    7  C7  UNL     1      14.372  22.941   7.448  1.00  0.00     0.027 A
HETATM    8  C8  UNL     1      13.471  23.140   6.394  1.00  0.00     0.032 A
HETATM    9  C9  UNL     1      13.525  22.399   5.246  1.00  0.00     0.053 A
BRANCH   6  10
HETATM   10  S1  UNL     1      16.509  21.665   8.609  1.00  0.00     0.256 S
HETATM   11  O1  UNL     1      16.063  20.465   9.393  1.00  0.00    -0.201 OA
HETATM   12  O2  UNL     1      16.591  22.849   9.506  1.00  0.00    -0.201 OA
BRANCH  10  13
HETATM   13  N1  UNL     1      18.074  21.355   7.910  1.00  0.00    -0.324 N
ATOM     14  H12 UNL     1      18.240  20.714   7.135  1.00  0.00     0.169 HD
ATOM     15  H11 UNL     1      18.784  21.906   8.392  1.00  0.00     0.169 HD
ENDBRANCH  10  13
ENDBRANCH   6  10
BRANCH   9  16
HETATM   16  N2  UNL     1      12.667  22.524   4.138  1.00  0.00    -0.326 N
HETATM   17  C10 UNL     1      11.384  21.971   4.018  1.00  0.00     0.222 C
HETATM   18  O3  UNL     1      10.806  21.278   4.890  1.00  0.00    -0.273 OA
ATOM     19  H2  UNL     1      13.011  23.069   3.347  1.00  0.00     0.169 HD
BRANCH  17  20
HETATM   20  C11 UNL     1      10.639  22.236   2.729  1.00  0.00     0.103 C
BRANCH  20  21
HETATM   21  C12 UNL     1       9.275  21.592   2.823  1.00  0.00     0.009 C
BRANCH  21  22
HETATM   22  C13 UNL     1       8.171  22.495   2.319  1.00  0.00     0.002 C
BRANCH  22  23
HETATM   23  C14 UNL     1       7.689  23.355   3.464  1.00  0.00     0.020 C
BRANCH  23  24
HETATM   24  C15 UNL     1       8.162  24.762   3.427  1.00  0.00     0.135 C
BRANCH  24  25
HETATM   25  N3  UNL     1       8.177  25.466   4.677  1.00  0.00    -0.279 N
HETATM   26  C16 UNL     1       7.260  26.391   5.218  1.00  0.00     0.268 A
HETATM   27  O4  UNL     1       6.229  26.791   4.695  1.00  0.00    -0.266 OA
HETATM   28  C17 UNL     1       7.786  26.783   6.542  1.00  0.00     0.090 A
HETATM   29  S2  UNL     1       7.539  27.735   7.932  1.00  0.00    -0.094 SA
HETATM   30  C20 UNL     1       8.962  26.142   6.810  1.00  0.00     0.073 A
HETATM   31  C18 UNL     1       8.920  27.308   8.824  1.00  0.00     0.070 A
HETATM   32  C19 UNL     1       9.556  26.414   8.003  1.00  0.00     0.034 A
HETATM   33 BR1  UNL     1      11.238  25.646   8.650  1.00  0.00    -0.049 Br
HETATM   34  C21 UNL     1       9.246  25.280   5.626  1.00  0.00     0.263 A
HETATM   35  O5  UNL     1      10.238  24.522   5.468  1.00  0.00    -0.267 OA
ENDBRANCH  24  25
ENDBRANCH  23  24
ENDBRANCH  22  23
ENDBRANCH  21  22
ENDBRANCH  20  21
ENDBRANCH  17  20
ENDBRANCH   9  16
ENDBRANCH   3   4
TORSDOF 10
ENDMDL