MODEL 1
REMARK VINA RESULT: -8.404659145      0.000      0.000
REMARK  10 active torsions:
REMARK  status: ('A' for Active; 'I' for Inactive)
REMARK    1  A    between atoms: C2_2  and  C3_3
REMARK    2  A    between atoms: C3_3  and  C4_4
REMARK       I    between atoms: C4_4  and  N1_6
REMARK    3  A    between atoms: N1_6  and  C5_8
REMARK    4  A    between atoms: C5_8  and  C6_9
REMARK       I    between atoms: C6_9  and  N2_11
REMARK    5  A    between atoms: N2_11  and  C7_13
REMARK       I    between atoms: N3_15  and  C9_16
REMARK    6  A    between atoms: C9_16  and  O4_18
REMARK    7  A    between atoms: O4_18  and  C10_19
REMARK    8  A    between atoms: C17_27  and  C18_28
REMARK    9  A    between atoms: C18_28  and  O6_30
REMARK   10  A    between atoms: O6_30  and  C19_31
ROOT
HETATM    1  C7  UNL     1      11.137  23.028   5.715  1.00  0.00     0.082 A
HETATM    2  C8  UNL     1      12.224  23.371   4.716  1.00  0.00     0.162 A
HETATM    3  N3  UNL     1      12.516  21.967   4.482  1.00  0.00    -0.318 N
HETATM    4  C9  UNL     1      13.418  21.289   3.639  1.00  0.00     0.363 C
HETATM    5  O3  UNL     1      14.213  21.945   2.885  1.00  0.00    -0.238 OA
HETATM    6  C13 UNL     1      11.517  21.598   5.461  1.00  0.00     0.121 A
HETATM    7  C14 UNL     1      12.128  20.883   6.630  1.00  0.00     0.044 C
HETATM    8  C15 UNL     1      13.138  21.629   7.411  1.00  0.00     0.060 C
HETATM    9 BR1  UNL     1      14.957  21.268   6.802  1.00  0.00    -0.091 Br
HETATM   10  C16 UNL     1      12.885  23.090   7.528  1.00  0.00     0.033 C
HETATM   11  C17 UNL     1      11.443  23.380   7.126  1.00  0.00     0.118 C
ENDROOT
BRANCH   1  12
HETATM   12  N2  UNL     1       9.824  23.429   5.322  1.00  0.00    -0.345 N
HETATM   13  C6  UNL     1       9.490  24.101   4.128  1.00  0.00     0.246 C
HETATM   14  O2  UNL     1      10.403  24.371   3.318  1.00  0.00    -0.271 OA
ATOM     15  H2  UNL     1       9.060  23.211   5.962  1.00  0.00     0.163 HD
BRANCH  13  16
HETATM   16  C5  UNL     1       8.129  24.515   3.752  1.00  0.00     0.113 A
HETATM   17  C21 UNL     1       8.069  25.305   2.484  1.00  0.00     0.041 A
HETATM   18  C22 UNL     1       7.307  24.516   1.455  1.00  0.00     0.003 A
HETATM   19  C23 UNL     1       6.815  23.275   2.109  1.00  0.00     0.003 A
HETATM   20  C24 UNL     1       7.318  23.284   3.497  1.00  0.00     0.041 A
BRANCH  16  21
HETATM   21  N1  UNL     1       7.558  25.291   4.851  1.00  0.00    -0.343 N
HETATM   22  C4  UNL     1       7.680  26.687   4.980  1.00  0.00     0.218 C
HETATM   23  O1  UNL     1       8.296  27.345   4.117  1.00  0.00    -0.274 OA
ATOM     24  H1  UNL     1       7.038  24.789   5.570  1.00  0.00     0.163 HD
BRANCH  22  25
HETATM   25  C3  UNL     1       7.067  27.354   6.153  1.00  0.00     0.102 C
BRANCH  25  26
HETATM   26  C2  UNL     1       5.580  27.272   6.199  1.00  0.00     0.005 C
HETATM   27  C1  UNL     1       5.067  26.940   7.596  1.00  0.00     0.005 C
ENDBRANCH  25  26
ENDBRANCH  22  25
ENDBRANCH  16  21
ENDBRANCH  13  16
ENDBRANCH   1  12
BRANCH  11  28
HETATM   28  C18 UNL     1      11.272  24.842   7.431  1.00  0.00     0.265 C
HETATM   29  O5  UNL     1      12.276  25.542   7.674  1.00  0.00    -0.265 OA
BRANCH  28  30
HETATM   30  O6  UNL     1      10.038  25.435   7.455  1.00  0.00    -0.321 OA
BRANCH  30  31
HETATM   31  C19 UNL     1       9.209  25.612   8.561  1.00  0.00     0.174 C
HETATM   32  C20 UNL     1       9.390  26.895   9.301  1.00  0.00     0.034 C
ENDBRANCH  30  31
ENDBRANCH  28  30
ENDBRANCH  11  28
BRANCH   4  33
HETATM   33  O4  UNL     1      13.522  19.917   3.553  1.00  0.00    -0.298 OA
BRANCH  33  34
HETATM   34  C10 UNL     1      14.758  19.235   3.539  1.00  0.00     0.134 A
HETATM   35  C11 UNL     1      15.077  18.267   2.463  1.00  0.00     0.035 A
HETATM   36  C12 UNL     1      14.629  17.734   3.770  1.00  0.00     0.035 A
ENDBRANCH  33  34
ENDBRANCH   4  33
TORSDOF 10
ENDMDL