MODEL 1
REMARK VINA RESULT: -8.969954127      0.000      0.000
REMARK  9 active torsions:
REMARK  status: ('A' for Active; 'I' for Inactive)
REMARK    1  A    between atoms: C3_3  and  N1_4
REMARK    2  A    between atoms: C7_9  and  N2_10
REMARK       I    between atoms: N2_10  and  C8_12
REMARK    3  A    between atoms: C8_12  and  C9_14
REMARK    4  A    between atoms: N3_17  and  S1_18
REMARK    5  A    between atoms: S1_18  and  C12_21
REMARK    6  A    between atoms: C17_28  and  C18_29
REMARK    7  A    between atoms: C18_29  and  O5_31
REMARK    8  A    between atoms: O5_31  and  C19_32
REMARK    9  A    between atoms: C23_36  and  C24_37
ROOT
HETATM    1  C1  UNL     1      15.914  19.076   9.663  1.00  0.00     0.014 C
HETATM    2  C2  UNL     1      16.446  19.834   8.889  1.00  0.00    -0.097 C
HETATM    3  C3  UNL     1      17.088  20.751   7.919  1.00  0.00     0.221 C
ENDROOT
BRANCH   3   4
HETATM    4  N1  UNL     1      16.254  20.779   6.764  1.00  0.00    -0.339 N
HETATM    5  C4  UNL     1      16.389  20.013   5.671  1.00  0.00     0.033 A
HETATM    6  C5  UNL     1      17.405  18.974   5.385  1.00  0.00     0.070 C
HETATM    7  C6  UNL     1      15.382  20.330   4.757  1.00  0.00     0.085 A
HETATM    8 CL1  UNL     1      15.105  19.627   3.177  1.00  0.00    -0.080 Cl
HETATM    9  C7  UNL     1      14.623  21.328   5.343  1.00  0.00     0.081 A
HETATM   10  C23 UNL     1      15.187  21.571   6.563  1.00  0.00     0.041 A
BRANCH   9  11
HETATM   11  N2  UNL     1      13.500  21.966   4.766  1.00  0.00    -0.324 N
HETATM   12  C8  UNL     1      12.213  21.445   4.976  1.00  0.00     0.226 C
HETATM   13  O1  UNL     1      12.043  20.411   5.672  1.00  0.00    -0.273 OA
ATOM     14  H2  UNL     1      13.624  22.804   4.198  1.00  0.00     0.169 HD
BRANCH  12  15
HETATM   15  C9  UNL     1      10.999  22.081   4.395  1.00  0.00     0.080 C
HETATM   16  C10 UNL     1      11.508  23.093   3.359  1.00  0.00     0.029 C
HETATM   17  C11 UNL     1      10.276  23.687   2.732  1.00  0.00     0.108 C
HETATM   18  N3  UNL     1       9.392  24.318   3.618  1.00  0.00    -0.206 NA
HETATM   19  C21 UNL     1       9.173  23.726   4.887  1.00  0.00     0.108 C
HETATM   20  C22 UNL     1      10.271  22.880   5.421  1.00  0.00     0.029 C
BRANCH  18  21
HETATM   21  S1  UNL     1       7.910  24.655   2.793  1.00  0.00     0.246 S
HETATM   22  O2  UNL     1       8.205  25.700   1.755  1.00  0.00    -0.206 OA
HETATM   23  O3  UNL     1       7.453  23.418   2.049  1.00  0.00    -0.206 OA
BRANCH  21  24
HETATM   24  C12 UNL     1       6.653  25.167   3.897  1.00  0.00     0.115 A
HETATM   25  C13 UNL     1       5.422  24.565   4.033  1.00  0.00     0.029 A
HETATM   26  C14 UNL     1       4.814  23.409   3.365  1.00  0.00     0.070 C
HETATM   27  N4  UNL     1       4.753  25.268   4.992  1.00  0.00    -0.361 N
HETATM   28  C15 UNL     1       5.537  26.274   5.439  1.00  0.00     0.023 A
ATOM     29  H4  UNL     1       3.809  25.066   5.320  1.00  0.00     0.165 HD
HETATM   30  C16 UNL     1       5.173  27.267   6.485  1.00  0.00     0.069 C
HETATM   31  C17 UNL     1       6.737  26.237   4.771  1.00  0.00     0.086 A
BRANCH  31  32
HETATM   32  C18 UNL     1       7.873  27.109   4.914  1.00  0.00     0.296 C
HETATM   33  O4  UNL     1       8.412  27.704   3.919  1.00  0.00    -0.259 OA
BRANCH  32  34
HETATM   34  O5  UNL     1       8.477  27.375   6.150  1.00  0.00    -0.318 OA
BRANCH  34  35
HETATM   35  C19 UNL     1       8.944  26.305   6.979  1.00  0.00     0.174 C
HETATM   36  C20 UNL     1       8.312  26.416   8.326  1.00  0.00     0.034 C
ENDBRANCH  34  35
ENDBRANCH  32  34
ENDBRANCH  31  32
ENDBRANCH  21  24
ENDBRANCH  18  21
ENDBRANCH  12  15
ENDBRANCH   9  11
BRANCH  10  37
HETATM   37  C24 UNL     1      14.721  22.567   7.545  1.00  0.00     0.055 C
HETATM   38  C25 UNL     1      13.583  22.082   8.377  1.00  0.00     0.011 C
ENDBRANCH  10  37
ENDBRANCH   3   4
TORSDOF 9
ENDMDL