MODEL 4
REMARK VINA RESULT: -8.667668757      3.418      5.478
REMARK  10 active torsions:
REMARK  status: ('A' for Active; 'I' for Inactive)
REMARK    1  A    between atoms: O1_2  and  N1_3
REMARK    2  A    between atoms: N1_3  and  C8_12
REMARK    3  A    between atoms: C2_4  and  C3_5
REMARK    4  A    between atoms: C3_5  and  O2_6
REMARK    5  A    between atoms: C3_5  and  C4_8
REMARK    6  A    between atoms: C8_12  and  C9_13
REMARK    7  A    between atoms: C11_15  and  C12_16
REMARK    8  A    between atoms: C14_18  and  C15_19
REMARK    9  A    between atoms: C15_19  and  S1_20
REMARK   10  A    between atoms: C19_29  and  N3_30
ROOT
HETATM    1  C9  UNL     1      13.278  22.279   4.867  1.00  0.00    -0.020 A
HETATM    2  C10 UNL     1      12.326  23.037   5.428  1.00  0.00     0.026 A
HETATM    3  C11 UNL     1      10.950  23.026   5.049  1.00  0.00     0.024 A
HETATM    4  C19 UNL     1      10.604  22.167   4.050  1.00  0.00     0.116 A
HETATM    5  C20 UNL     1      11.615  21.366   3.462  1.00  0.00     0.056 A
HETATM    6  C21 UNL     1      12.907  21.395   3.831  1.00  0.00     0.021 A
HETATM    7 BR1  UNL     1      14.269  20.290   3.026  1.00  0.00    -0.050 Br
ENDROOT
BRANCH   3   8
HETATM    8  C12 UNL     1      10.083  24.148   5.480  1.00  0.00     0.048 A
HETATM    9  C13 UNL     1       9.683  24.478   6.743  1.00  0.00     0.038 A
HETATM   10  C14 UNL     1       8.781  25.518   6.942  1.00  0.00    -0.037 A
HETATM   11  C17 UNL     1       8.316  26.210   5.845  1.00  0.00     0.082 A
HETATM   12  C18 UNL     1       8.742  25.862   4.568  1.00  0.00     0.246 A
HETATM   13  O5  UNL     1       8.263  26.557   3.587  1.00  0.00    -0.268 OA
HETATM   14  N2  UNL     1       9.585  24.878   4.393  1.00  0.00    -0.323 N
ATOM     15  H2  UNL     1       9.885  24.637   3.448  1.00  0.00     0.169 HD
BRANCH  10  16
HETATM   16  C15 UNL     1       8.233  25.855   8.271  1.00  0.00     0.178 C
BRANCH  16  17
HETATM   17  S1  UNL     1       9.004  27.274   8.947  1.00  0.00     0.144 S
HETATM   18  C16 UNL     1      10.652  26.862   9.494  1.00  0.00     0.161 C
HETATM   19  O3  UNL     1       9.113  28.396   7.984  1.00  0.00    -0.228 OA
HETATM   20  O4  UNL     1       8.257  27.695  10.207  1.00  0.00    -0.228 OA
ENDBRANCH  16  17
ENDBRANCH  10  16
ENDBRANCH   3   8
BRANCH   4  21
HETATM   21  N3  UNL     1       9.359  22.016   3.431  1.00  0.00    -0.115 N
HETATM   22  O6  UNL     1       8.326  22.607   3.557  1.00  0.00    -0.532 OA
HETATM   23  O7  UNL     1       9.281  20.890   2.532  1.00  0.00    -0.532 OA
ENDBRANCH   4  21
BRANCH   1  24
HETATM   24  C8  UNL     1      14.716  22.452   5.077  1.00  0.00     0.194 C
BRANCH  24  25
HETATM   25  N1  UNL     1      15.401  21.813   6.145  1.00  0.00    -0.267 N
HETATM   26  C2  UNL     1      15.540  22.488   7.271  1.00  0.00     0.122 C
BRANCH  25  27
HETATM   27  O1  UNL     1      15.758  20.535   6.041  1.00  0.00    -0.283 OA
HETATM   28  C1  UNL     1      16.824  19.786   5.685  1.00  0.00     0.237 C
ENDBRANCH  25  27
BRANCH  26  29
HETATM   29  C3  UNL     1      16.072  21.978   8.535  1.00  0.00     0.166 C
BRANCH  29  30
HETATM   30  O2  UNL     1      16.455  23.087   9.324  1.00  0.00    -0.390 OA
ATOM     31  H2  UNL     1      17.401  23.165   9.278  1.00  0.00     0.210 HD
ENDBRANCH  29  30
BRANCH  29  32
HETATM   32  C4  UNL     1      14.988  21.263   9.309  1.00  0.00    -0.021 C
HETATM   33  C5  UNL     1      13.593  21.598   8.861  1.00  0.00     0.017 C
HETATM   34  C6  UNL     1      15.171  19.788   9.441  1.00  0.00     0.017 C
HETATM   35  C7  UNL     1      15.078  21.818  10.788  1.00  0.00     0.017 C
ENDBRANCH  29  32
ENDBRANCH  26  29
ENDBRANCH  24  25
ENDBRANCH   1  24
TORSDOF 10
ENDMDL