MODEL 1
REMARK VINA RESULT: -9.529089649      0.000      0.000
REMARK  10 active torsions:
REMARK  status: ('A' for Active; 'I' for Inactive)
REMARK    1  A    between atoms: C6_9  and  S1_10
REMARK    2  A    between atoms: S1_10  and  N3_13
REMARK    3  A    between atoms: N3_13  and  C7_15
REMARK    4  A    between atoms: C7_15  and  C8_16
REMARK    5  A    between atoms: C11_19  and  C12_20
REMARK       I    between atoms: C12_20  and  N4_22
REMARK    6  A    between atoms: N4_22  and  C13_24
REMARK    7  A    between atoms: C13_24  and  C14_25
REMARK    8  A    between atoms: N5_28  and  C17_29
REMARK    9  A    between atoms: C17_29  and  C18_30
REMARK   10  A    between atoms: C19_31  and  C20_32
ROOT
HETATM    1  C8  UNL     1      16.818  20.955   9.162  1.00  0.00     0.004 C
HETATM    2  C9  UNL     1      16.793  21.943   8.047  1.00  0.00     0.007 C
HETATM    3  C10 UNL     1      15.607  22.869   8.079  1.00  0.00     0.014 C
HETATM    4  C11 UNL     1      14.368  21.975   8.068  1.00  0.00     0.078 C
HETATM    5  C25 UNL     1      14.341  21.317   9.428  1.00  0.00     0.014 C
HETATM    6  C26 UNL     1      15.530  20.426   9.630  1.00  0.00     0.007 C
ENDROOT
BRANCH   4   7
HETATM    7  C12 UNL     1      13.142  22.775   7.833  1.00  0.00     0.221 C
HETATM    8  O3  UNL     1      12.032  22.233   8.069  1.00  0.00    -0.273 OA
HETATM    9  N4  UNL     1      13.198  24.091   7.362  1.00  0.00    -0.360 N
ATOM     10  H4  UNL     1      14.102  24.525   7.172  1.00  0.00     0.162 HD
BRANCH   9  11
HETATM   11  C13 UNL     1      11.973  24.845   7.141  1.00  0.00     0.127 C
BRANCH  11  12
HETATM   12  C14 UNL     1      11.668  24.835   5.671  1.00  0.00     0.007 C
HETATM   13  C15 UNL     1      10.555  23.871   5.378  1.00  0.00     0.036 C
HETATM   14  C16 UNL     1      10.543  23.562   3.914  1.00  0.00     0.274 C
HETATM   15  N5  UNL     1      11.701  22.768   3.513  1.00  0.00     0.099 N
HETATM   16  C23 UNL     1      12.836  23.045   4.385  1.00  0.00     0.274 C
HETATM   17  C24 UNL     1      12.854  24.491   4.826  1.00  0.00     0.036 C
BRANCH  15  18
HETATM   18  C17 UNL     1      11.358  21.382   3.681  1.00  0.00     0.365 C
BRANCH  18  19
HETATM   19  C18 UNL     1      12.595  20.604   3.617  1.00  0.00    -0.074 C
HETATM   20  C19 UNL     1      13.615  19.948   3.545  1.00  0.00    -0.079 C
BRANCH  20  21
HETATM   21  C20 UNL     1      14.852  19.152   3.432  1.00  0.00     0.093 C
HETATM   22  C21 UNL     1      14.604  17.720   3.862  1.00  0.00     0.046 C
HETATM   23  C22 UNL     1      15.284  19.072   1.961  1.00  0.00     0.046 C
HETATM   24 CL1  UNL     1      16.085  19.942   4.421  1.00  0.00    -0.106 Cl
ENDBRANCH  20  21
ENDBRANCH  18  19
ENDBRANCH  15  18
ENDBRANCH  11  12
ENDBRANCH   9  11
ENDBRANCH   4   7
BRANCH   1  25
HETATM   25  C7  UNL     1      17.718  19.807   8.751  1.00  0.00     0.136 C
BRANCH  25  26
HETATM   26  N3  UNL     1      17.023  18.562   8.796  1.00  0.00    -0.315 N
ATOM     27  H3  UNL     1      16.169  18.384   8.267  1.00  0.00     0.172 HD
BRANCH  26  28
HETATM   28  S1  UNL     1      17.740  17.399   9.807  1.00  0.00     0.262 S
HETATM   29  O1  UNL     1      19.043  17.974  10.347  1.00  0.00    -0.200 OA
HETATM   30  O2  UNL     1      16.802  17.087  10.939  1.00  0.00    -0.200 OA
BRANCH  28  31
HETATM   31  C6  UNL     1      18.159  15.983   8.889  1.00  0.00     0.126 A
HETATM   32  C2  UNL     1      18.243  14.688   9.356  1.00  0.00     0.047 A
HETATM   33  C1  UNL     1      17.995  14.280  10.755  1.00  0.00     0.071 C
HETATM   34  N1  UNL     1      18.580  13.894   8.346  1.00  0.00    -0.302 N
HETATM   35  N2  UNL     1      18.710  14.642   7.260  1.00  0.00    -0.299 N
ATOM     36  H1  UNL     1      18.716  12.884   8.397  1.00  0.00     0.186 HD
HETATM   37  C3  UNL     1      19.074  14.111   5.961  1.00  0.00     0.177 C
HETATM   38  C4  UNL     1      18.459  15.934   7.553  1.00  0.00     0.049 A
HETATM   39  C5  UNL     1      18.516  17.013   6.548  1.00  0.00     0.071 C
ENDBRANCH  28  31
ENDBRANCH  26  28
ENDBRANCH  25  26
ENDBRANCH   1  25
TORSDOF 10
ENDMDL