MODEL 2
REMARK VINA RESULT: -8.802953810      0.807      1.287
REMARK  8 active torsions:
REMARK  status: ('A' for Active; 'I' for Inactive)
REMARK    1  A    between atoms: C5_8  and  C6_9
REMARK    2  A    between atoms: C6_9  and  C7_10
REMARK    3  A    between atoms: C7_10  and  C8_12
REMARK    4  A    between atoms: N2_20  and  C15_21
REMARK    5  A    between atoms: C15_21  and  C16_22
REMARK       I    between atoms: C16_22  and  N3_24
REMARK    6  A    between atoms: N3_24  and  C17_25
REMARK    7  A    between atoms: C17_25  and  C18_26
REMARK    8  A    between atoms: C18_26  and  N4_27
ROOT
HETATM    1  C1  UNL     1       9.565  27.600   8.626  1.00  0.00     0.019 C
HETATM    2  C2  UNL     1       9.091  27.043   7.668  1.00  0.00    -0.063 C
HETATM    3  C3  UNL     1       8.539  26.391   6.495  1.00  0.00     0.109 C
HETATM    4 CL1  UNL     1       7.200  27.169   5.718  1.00  0.00    -0.072 Cl
HETATM    5  C4  UNL     1       9.053  25.265   6.057  1.00  0.00     0.046 C
HETATM    6  N1  UNL     1       8.523  24.617   4.905  1.00  0.00    -0.356 N
ATOM      7  H1  UNL     1       7.510  24.504   4.862  1.00  0.00     0.166 HD
HETATM    8  C5  UNL     1       9.217  24.151   3.893  1.00  0.00     0.085 C
HETATM    9  C14 UNL     1      10.704  24.289   3.759  1.00  0.00     0.267 C
HETATM   10  O2  UNL     1      11.088  24.140   2.593  1.00  0.00    -0.266 OA
HETATM   11  N2  UNL     1      11.658  24.557   4.770  1.00  0.00    -0.332 N
HETATM   12  C23 UNL     1      11.520  24.791   6.193  1.00  0.00     0.098 C
HETATM   13  C24 UNL     1      12.563  24.119   7.036  1.00  0.00     0.026 C
HETATM   14  C25 UNL     1      11.957  23.542   8.309  1.00  0.00     0.002 C
HETATM   15  C26 UNL     1      10.815  22.589   7.969  1.00  0.00     0.001 C
HETATM   16  C27 UNL     1       9.887  23.119   6.935  1.00  0.00     0.013 C
HETATM   17  C28 UNL     1      10.198  24.618   6.810  1.00  0.00     0.061 C
ENDROOT
BRANCH   8  18
HETATM   18  C6  UNL     1       8.510  23.489   2.811  1.00  0.00     0.141 C
BRANCH  18  19
HETATM   19  C7  UNL     1       7.405  24.142   2.136  1.00  0.00     0.136 C
HETATM   20  O1  UNL     1       7.448  25.193   1.587  1.00  0.00    -0.297 OA
BRANCH  19  21
HETATM   21  C8  UNL     1       6.108  23.364   2.160  1.00  0.00     0.056 C
HETATM   22  C9  UNL     1       4.900  24.184   1.889  1.00  0.00     0.012 C
HETATM   23  C10 UNL     1       4.392  24.805   3.178  1.00  0.00     0.001 C
HETATM   24  C11 UNL     1       4.024  23.796   4.220  1.00  0.00     0.000 C
HETATM   25  C12 UNL     1       4.453  22.427   3.762  1.00  0.00     0.001 C
HETATM   26  C13 UNL     1       5.940  22.569   3.425  1.00  0.00     0.012 C
ENDBRANCH  19  21
ENDBRANCH  18  19
ENDBRANCH   8  18
BRANCH  11  27
HETATM   27  C15 UNL     1      13.012  24.768   4.359  1.00  0.00     0.245 C
BRANCH  27  28
HETATM   28  C16 UNL     1      13.867  23.497   4.450  1.00  0.00     0.304 C
HETATM   29  O3  UNL     1      15.070  23.690   4.822  1.00  0.00    -0.256 OA
HETATM   30  N3  UNL     1      13.309  22.316   4.153  1.00  0.00    -0.412 NA
BRANCH  30  31
HETATM   31  C17 UNL     1      12.729  21.080   3.843  1.00  0.00     0.252 C
BRANCH  31  32
HETATM   32  C18 UNL     1      13.839  20.107   3.377  1.00  0.00     0.305 C
BRANCH  32  33
HETATM   33  N4  UNL     1      14.978  20.136   4.264  1.00  0.00     0.094 N
HETATM   34  C19 UNL     1      15.910  19.046   3.973  1.00  0.00     0.291 C
HETATM   35  C20 UNL     1      17.165  19.339   4.781  1.00  0.00     0.144 C
HETATM   36  N5  UNL     1      16.891  19.430   6.188  1.00  0.00    -0.418 N
HETATM   37  C21 UNL     1      15.755  20.224   6.526  1.00  0.00     0.144 C
ATOM     38  H5  UNL     1      17.464  18.963   6.890  1.00  0.00     0.153 HD
HETATM   39  C22 UNL     1      14.567  19.877   5.646  1.00  0.00     0.291 C
ENDBRANCH  32  33
ENDBRANCH  31  32
ENDBRANCH  30  31
ENDBRANCH  27  28
ENDBRANCH  11  27
TORSDOF 8
ENDMDL