MODEL 4
REMARK VINA RESULT: -9.239814998      0.806      1.025
REMARK  9 active torsions:
REMARK  status: ('A' for Active; 'I' for Inactive)
REMARK    1  A    between atoms: C5_7  and  N2_8
REMARK    2  A    between atoms: N2_8  and  C6_10
REMARK    3  A    between atoms: C6_10  and  C7_11
REMARK    4  A    between atoms: C7_11  and  C8_12
REMARK    5  A    between atoms: C8_12  and  N3_13
REMARK    6  A    between atoms: N3_13  and  C9_14
REMARK       I    between atoms: N3_13  and  C13_19
REMARK    7  A    between atoms: C9_14  and  C10_15
REMARK    8  A    between atoms: C10_15  and  N4_16
REMARK    9  A    between atoms: C13_19  and  C14_21
ROOT
HETATM    1  N3  UNL     1      12.057  23.689   6.781  1.00  0.00    -0.346 N
HETATM    2  C13 UNL     1      12.356  22.328   6.923  1.00  0.00     0.260 C
HETATM    3  O1  UNL     1      11.974  21.770   8.011  1.00  0.00    -0.267 OA
ENDROOT
BRANCH   1   4
HETATM    4  C8  UNL     1      11.394  24.440   7.818  1.00  0.00     0.127 C
BRANCH   4   5
HETATM    5  C7  UNL     1       9.929  24.592   7.739  1.00  0.00     0.040 C
BRANCH   5   6
HETATM    6  C6  UNL     1       9.371  25.947   8.076  1.00  0.00     0.139 C
BRANCH   6   7
HETATM    7  N2  UNL     1       8.814  26.583   6.891  1.00  0.00    -0.226 N
ATOM      8  H2  UNL     1       9.454  26.780   6.122  1.00  0.00     0.177 HD
BRANCH   7   9
HETATM    9  C5  UNL     1       7.592  26.915   6.731  1.00  0.00     0.678 A
HETATM   10  N1  UNL     1       6.991  27.951   7.337  1.00  0.00    -0.202 N
HETATM   11  C4  UNL     1       5.691  28.245   7.119  1.00  0.00     0.108 A
ATOM     12  H1  UNL     1       7.531  28.532   7.980  1.00  0.00     0.183 HD
HETATM   13  C3  UNL     1       4.995  27.445   6.252  1.00  0.00     0.042 A
HETATM   14  C2  UNL     1       5.605  26.381   5.627  1.00  0.00     0.024 A
HETATM   15  C1  UNL     1       4.784  25.541   4.686  1.00  0.00     0.068 C
HETATM   16  N6  UNL     1       6.885  26.129   5.870  1.00  0.00    -0.196 N
ATOM     17  H6  UNL     1       7.343  25.342   5.411  1.00  0.00     0.184 HD
ENDBRANCH   7   9
ENDBRANCH   6   7
ENDBRANCH   5   6
ENDBRANCH   4   5
ENDBRANCH   1   4
BRANCH   1  18
HETATM   18  C9  UNL     1      12.436  24.354   5.529  1.00  0.00     0.156 C
BRANCH  18  19
HETATM   19  C10 UNL     1      11.326  25.019   4.810  1.00  0.00     0.291 C
BRANCH  19  20
HETATM   20  N4  UNL     1      10.632  23.995   4.031  1.00  0.00     0.081 N
HETATM   21  C11 UNL     1       9.210  24.059   4.131  1.00  0.00     0.309 C
HETATM   22  C12 UNL     1      11.108  23.953   2.681  1.00  0.00     0.309 C
ENDBRANCH  19  20
ENDBRANCH  18  19
ENDBRANCH   1  18
BRANCH   2  23
HETATM   23  C14 UNL     1      13.044  21.457   6.001  1.00  0.00     0.118 A
HETATM   24  C15 UNL     1      14.372  21.114   6.017  1.00  0.00     0.044 A
HETATM   25 BR1  UNL     1      15.488  21.792   7.392  1.00  0.00    -0.049 Br
HETATM   26  C16 UNL     1      14.943  20.280   5.044  1.00  0.00     0.012 A
HETATM   27  C17 UNL     1      16.296  19.966   5.116  1.00  0.00     0.053 A
HETATM   28  C24 UNL     1      14.174  19.772   4.026  1.00  0.00     0.047 A
HETATM   29  C18 UNL     1      16.834  19.141   4.146  1.00  0.00     0.086 A
HETATM   30  O2  UNL     1      18.044  18.687   3.964  1.00  0.00    -0.321 OA
HETATM   31  C22 UNL     1      16.041  18.632   3.119  1.00  0.00     0.008 A
HETATM   32  C19 UNL     1      18.115  17.920   2.899  1.00  0.00     0.150 A
HETATM   33  C20 UNL     1      16.854  17.857   2.327  1.00  0.00    -0.027 A
HETATM   34  C21 UNL     1      16.460  17.099   1.095  1.00  0.00     0.051 C
HETATM   35  C23 UNL     1      14.701  18.947   3.054  1.00  0.00     0.045 A
HETATM   36  N5  UNL     1      12.879  20.106   4.009  1.00  0.00    -0.322 N
HETATM   37  C25 UNL     1      12.323  20.902   4.931  1.00  0.00     0.263 A
ATOM     38  H5  UNL     1      12.289  19.739   3.262  1.00  0.00     0.169 HD
HETATM   39  O3  UNL     1      11.104  21.163   4.832  1.00  0.00    -0.267 OA
ENDBRANCH   2  23
TORSDOF 9
ENDMDL