MODEL 2
REMARK VINA RESULT: -9.684632896      2.761     10.094
REMARK  8 active torsions:
REMARK  status: ('A' for Active; 'I' for Inactive)
REMARK    1  A    between atoms: C4_9  and  C5_10
REMARK    2  A    between atoms: C5_10  and  C6_11
REMARK    3  A    between atoms: C12_18  and  O2_19
REMARK    4  A    between atoms: O2_19  and  C13_20
REMARK    5  A    between atoms: C13_20  and  C14_21
REMARK    6  A    between atoms: C14_21  and  C15_22
REMARK    7  A    between atoms: C15_22  and  N3_23
REMARK    8  A    between atoms: C21_30  and  C22_31
ROOT
HETATM    1  C6  UNL     1       9.532  24.998   5.172  1.00  0.00    -0.041 A
HETATM    2  C7  UNL     1       8.444  25.060   4.282  1.00  0.00     0.010 A
HETATM    3  C8  UNL     1       8.123  24.074   3.404  1.00  0.00     0.025 A
HETATM    4  C9  UNL     1       8.880  22.954   3.361  1.00  0.00     0.045 A
HETATM    5 CL1  UNL     1       8.502  21.637   2.242  1.00  0.00    -0.083 Cl
HETATM    6  C10 UNL     1       9.962  22.827   4.203  1.00  0.00    -0.000 A
HETATM    7  C11 UNL     1      10.724  21.665   4.140  1.00  0.00     0.051 A
HETATM    8  C12 UNL     1      11.795  21.500   4.946  1.00  0.00     0.084 A
HETATM    9  C21 UNL     1      12.120  22.494   5.827  1.00  0.00     0.048 A
HETATM   10  C27 UNL     1      11.396  23.701   5.947  1.00  0.00    -0.034 A
HETATM   11  C28 UNL     1      11.848  24.743   6.848  1.00  0.00     0.050 C
HETATM   12  C29 UNL     1      10.306  23.847   5.118  1.00  0.00    -0.011 A
ENDROOT
BRANCH   8  13
HETATM   13  O2  UNL     1      12.547  20.343   4.881  1.00  0.00    -0.350 OA
BRANCH  13  14
HETATM   14  C13 UNL     1      13.448  20.088   3.798  1.00  0.00     0.177 C
BRANCH  14  15
HETATM   15  C14 UNL     1      14.408  19.019   4.219  1.00  0.00     0.057 C
BRANCH  15  16
HETATM   16  C15 UNL     1      15.635  19.403   4.915  1.00  0.00     0.274 C
BRANCH  16  17
HETATM   17  N3  UNL     1      16.882  19.449   4.231  1.00  0.00     0.091 N
HETATM   18  C16 UNL     1      17.995  19.485   5.197  1.00  0.00     0.302 C
HETATM   19  C17 UNL     1      18.197  18.196   5.913  1.00  0.00     0.302 C
HETATM   20  N4  UNL     1      18.617  17.143   4.979  1.00  0.00     0.087 N
HETATM   21  C18 UNL     1      17.933  15.902   5.228  1.00  0.00     0.310 C
HETATM   22  C19 UNL     1      18.433  17.615   3.626  1.00  0.00     0.302 C
HETATM   23  C20 UNL     1      17.079  18.270   3.408  1.00  0.00     0.302 C
ENDBRANCH  16  17
ENDBRANCH  15  16
ENDBRANCH  14  15
ENDBRANCH  13  14
ENDBRANCH   8  13
BRANCH   9  24
HETATM   24  C22 UNL     1      13.280  22.283   6.695  1.00  0.00     0.112 C
HETATM   25  N5  UNL     1      13.146  21.696   7.829  1.00  0.00    -0.376 N
HETATM   26  C23 UNL     1      14.220  21.443   8.751  1.00  0.00     0.123 C
ATOM     27  H5  UNL     1      12.210  21.387   8.096  1.00  0.00     0.161 HD
HETATM   28  C24 UNL     1      15.281  22.519   8.619  1.00  0.00     0.039 C
HETATM   29  C25 UNL     1      15.675  22.580   7.175  1.00  0.00     0.125 C
HETATM   30  N6  UNL     1      14.555  22.719   6.277  1.00  0.00    -0.371 N
HETATM   31  C26 UNL     1      14.791  23.306   4.957  1.00  0.00     0.151 C
ENDBRANCH   9  24
BRANCH   1  32
HETATM   32  C5  UNL     1       9.799  26.051   6.119  1.00  0.00     0.098 C
BRANCH  32  33
HETATM   33  C4  UNL     1       8.445  26.439   6.712  1.00  0.00     0.040 A
HETATM   34  C2  UNL     1       7.892  25.985   7.917  1.00  0.00     0.033 A
HETATM   35  C1  UNL     1       8.552  25.009   8.824  1.00  0.00     0.070 C
HETATM   36  N1  UNL     1       6.694  26.570   8.107  1.00  0.00    -0.311 N
HETATM   37  C3  UNL     1       6.474  27.380   7.057  1.00  0.00     0.324 A
ATOM     38  H1  UNL     1       6.070  26.426   8.900  1.00  0.00     0.170 HD
HETATM   39  O1  UNL     1       5.474  28.112   6.839  1.00  0.00    -0.247 OA
HETATM   40  N2  UNL     1       7.524  27.293   6.234  1.00  0.00    -0.310 N
ATOM     41  H2  UNL     1       7.614  27.807   5.358  1.00  0.00     0.170 HD
ENDBRANCH  32  33
ENDBRANCH   1  32
TORSDOF 8
ENDMDL