MODEL 3
REMARK VINA RESULT: -8.953697859      1.293      2.003
REMARK  7 active torsions:
REMARK  status: ('A' for Active; 'I' for Inactive)
REMARK    1  A    between atoms: C4_9  and  C5_10
REMARK    2  A    between atoms: N4_13  and  C8_14
REMARK    3  A    between atoms: C8_14  and  C9_15
REMARK    4  A    between atoms: C9_15  and  C10_16
REMARK    5  A    between atoms: C12_18  and  C13_19
REMARK    6  A    between atoms: C20_27  and  C21_28
REMARK       I    between atoms: N6_31  and  C22_32
REMARK    7  A    between atoms: C22_32  and  C23_34
ROOT
HETATM    1  N1  UNL     1      17.416  18.512   3.435  1.00  0.00    -0.191 NA
HETATM    2  C1  UNL     1      17.074  19.061   4.396  1.00  0.00     0.103 C
HETATM    3  C2  UNL     1      16.662  19.733   5.616  1.00  0.00     0.085 A
HETATM    4  C3  UNL     1      17.456  19.896   6.749  1.00  0.00     0.131 A
HETATM    5  N2  UNL     1      16.730  20.546   7.649  1.00  0.00    -0.310 N
ATOM      6  H2  UNL     1      17.041  20.813   8.583  1.00  0.00     0.186 HD
HETATM    7  N3  UNL     1      15.531  20.794   7.131  1.00  0.00    -0.303 N
ATOM      8  H3  UNL     1      14.781  21.284   7.619  1.00  0.00     0.186 HD
HETATM    9  C4  UNL     1      15.439  20.311   5.875  1.00  0.00     0.052 A
ENDROOT
BRANCH   9  10
HETATM   10  C5  UNL     1      14.269  20.390   4.949  1.00  0.00     0.042 C
HETATM   11  C6  UNL     1      12.955  20.198   5.638  1.00  0.00     0.041 C
HETATM   12  C7  UNL     1      11.937  21.269   5.219  1.00  0.00     0.273 C
HETATM   13  N4  UNL     1      11.961  21.344   3.802  1.00  0.00     0.088 N
HETATM   14  C28 UNL     1      13.150  22.003   3.373  1.00  0.00     0.273 C
HETATM   15  C29 UNL     1      14.335  21.762   4.280  1.00  0.00     0.041 C
BRANCH  13  16
HETATM   16  C8  UNL     1      10.792  21.922   3.177  1.00  0.00     0.274 C
BRANCH  16  17
HETATM   17  C9  UNL     1       9.884  22.453   4.222  1.00  0.00     0.055 C
BRANCH  17  18
HETATM   18  C10 UNL     1       9.472  23.878   4.112  1.00  0.00     0.090 C
HETATM   19  C11 UNL     1       9.966  24.725   5.240  1.00  0.00     0.033 C
HETATM   20  C12 UNL     1       8.953  25.790   5.413  1.00  0.00     0.025 C
HETATM   21  C20 UNL     1       7.945  25.618   4.361  1.00  0.00     0.193 C
HETATM   22  N6  UNL     1       8.115  24.207   3.956  1.00  0.00    -0.332 N
HETATM   23  C22 UNL     1       7.053  23.400   3.481  1.00  0.00     0.225 C
HETATM   24  O3  UNL     1       7.274  22.211   3.070  1.00  0.00    -0.273 OA
BRANCH  20  25
HETATM   25  C13 UNL     1       8.469  25.980   6.805  1.00  0.00    -0.001 C
HETATM   26  C14 UNL     1       9.225  25.111   7.808  1.00  0.00     0.036 C
HETATM   27  C15 UNL     1       8.329  25.138   9.057  1.00  0.00     0.272 C
HETATM   28  N5  UNL     1       8.055  26.492   9.476  1.00  0.00     0.088 N
HETATM   29  C16 UNL     1       9.350  27.155   9.594  1.00  0.00     0.273 C
HETATM   30  C19 UNL     1       7.325  27.263   8.479  1.00  0.00     0.277 C
HETATM   31  C17 UNL     1       9.561  27.764   8.233  1.00  0.00     0.037 C
HETATM   32  C18 UNL     1       8.399  27.338   7.366  1.00  0.00     0.020 C
ENDBRANCH  20  25
BRANCH  21  33
HETATM   33  C21 UNL     1       8.310  26.472   3.210  1.00  0.00     0.197 C
HETATM   34  O1  UNL     1       8.494  27.710   3.461  1.00  0.00    -0.646 OA
HETATM   35  O2  UNL     1       8.450  25.986   1.934  1.00  0.00    -0.646 OA
ENDBRANCH  21  33
BRANCH  23  36
HETATM   36  C23 UNL     1       5.634  23.821   3.413  1.00  0.00     0.081 C
HETATM   37  C24 UNL     1       5.209  24.193   2.039  1.00  0.00     0.017 C
HETATM   38  C25 UNL     1       3.841  23.545   1.791  1.00  0.00     0.038 C
HETATM   39  C26 UNL     1       3.941  22.291   2.606  1.00  0.00     0.171 C
HETATM   40  F1  UNL     1       2.701  21.795   2.961  1.00  0.00    -0.249 F
HETATM   41  C27 UNL     1       4.757  22.664   3.823  1.00  0.00     0.051 C
ENDBRANCH  23  36
ENDBRANCH  17  18
ENDBRANCH  16  17
ENDBRANCH  13  16
ENDBRANCH   9  10
TORSDOF 7
ENDMDL