MODEL 1
REMARK VINA RESULT: -7.635205177      0.000      0.000
REMARK  6 active torsions:
REMARK  status: ('A' for Active; 'I' for Inactive)
REMARK       I    between atoms: N2_5  and  C4_6
REMARK    1  A    between atoms: C4_6  and  C5_8
REMARK    2  A    between atoms: C5_8  and  C6_9
REMARK    3  A    between atoms: C6_9  and  C7_10
REMARK    4  A    between atoms: C7_10  and  C8_11
REMARK    5  A    between atoms: C8_11  and  O2_12
REMARK    6  A    between atoms: N3_14  and  O3_16
ROOT
HETATM    1  N1  UNL     1      -2.274  34.389   1.940  1.00  0.00    -0.197 NA
HETATM    2  C1  UNL     1      -1.937  35.154   2.760  1.00  0.00     0.066 C
HETATM    3  C2  UNL     1      -1.541  36.123   3.782  1.00  0.00     0.119 C
HETATM    4  C3  UNL     1      -0.660  37.154   3.105  1.00  0.00     0.145 C
HETATM    5  N2  UNL     1       0.622  36.614   2.710  1.00  0.00    -0.351 N
HETATM    6  C4  UNL     1       1.161  36.948   1.441  1.00  0.00     0.219 C
HETATM    7  O1  UNL     1       0.521  37.709   0.672  1.00  0.00    -0.273 OA
HETATM    8  C9  UNL     1       1.311  35.749   3.632  1.00  0.00     0.126 C
HETATM    9  C10 UNL     1       0.393  34.722   4.237  1.00  0.00     0.031 C
HETATM   10  C11 UNL     1      -0.819  35.398   4.898  1.00  0.00    -0.018 C
HETATM   11  C12 UNL     1      -1.713  34.269   5.354  1.00  0.00     0.030 C
HETATM   12  C13 UNL     1      -2.842  34.866   6.140  1.00  0.00     0.114 C
HETATM   13  N4  UNL     1      -2.294  35.451   7.319  1.00  0.00    -0.421 N
ATOM     14  H4  UNL     1      -2.567  35.143   8.252  1.00  0.00     0.153 HD
HETATM   15  C14 UNL     1      -1.350  36.482   7.117  1.00  0.00     0.114 C
HETATM   16  C15 UNL     1      -0.390  36.300   5.993  1.00  0.00     0.030 C
ENDROOT
BRANCH   6  17
HETATM   17  C5  UNL     1       2.473  36.429   0.970  1.00  0.00     0.103 C
BRANCH  17  18
HETATM   18  C6  UNL     1       3.578  37.215   1.572  1.00  0.00     0.017 C
BRANCH  18  19
HETATM   19  C7  UNL     1       4.942  36.638   1.473  1.00  0.00     0.086 C
BRANCH  19  20
HETATM   20  C8  UNL     1       5.168  35.354   2.124  1.00  0.00     0.135 C
HETATM   21  N3  UNL     1       5.846  34.449   1.532  1.00  0.00    -0.251 N
ATOM     22  H3  UNL     1       6.232  34.618   0.604  1.00  0.00     0.196 HD
BRANCH  20  23
HETATM   23  O2  UNL     1       4.660  35.096   3.377  1.00  0.00    -0.348 OA
ATOM     24  H2  UNL     1       3.860  34.596   3.486  1.00  0.00     0.219 HD
ENDBRANCH  20  23
BRANCH  21  25
HETATM   25  O3  UNL     1       6.050  33.248   2.156  1.00  0.00    -0.288 OA
ATOM     26  H3  UNL     1       6.891  33.070   2.561  1.00  0.00     0.244 HD
ENDBRANCH  21  25
ENDBRANCH  19  20
ENDBRANCH  18  19
ENDBRANCH  17  18
ENDBRANCH   6  17
TORSDOF 6
ENDMDL