MODEL 5
REMARK VINA RESULT: -6.453544289      8.233      9.934
REMARK  7 active torsions:
REMARK  status: ('A' for Active; 'I' for Inactive)
REMARK    1  A    between atoms: C4_5  and  O1_6
REMARK    2  A    between atoms: C5_8  and  C6_9
REMARK    3  A    between atoms: C6_9  and  C9_12
REMARK    4  A    between atoms: C9_12  and  C10_13
REMARK    5  A    between atoms: C12_16  and  C13_17
REMARK    6  A    between atoms: C13_17  and  O2_18
REMARK    7  A    between atoms: N3_20  and  O3_22
ROOT
HETATM    1  C10 UNL     1       6.356  26.689  -0.030  1.00  0.00     0.124 C
HETATM    2  C11 UNL     1       7.048  27.844  -0.606  1.00  0.00     0.059 C
HETATM    3  N2  UNL     1       7.609  28.776  -1.048  1.00  0.00    -0.197 NA
ENDROOT
BRANCH   1   4
HETATM    4  C9  UNL     1       5.150  27.230   0.709  1.00  0.00     0.023 C
BRANCH   4   5
HETATM    5  C6  UNL     1       5.232  26.881   2.203  1.00  0.00    -0.036 C
HETATM    6  C7  UNL     1       6.619  26.267   2.430  1.00  0.00     0.015 C
HETATM    7  C8  UNL     1       4.206  25.842   2.446  1.00  0.00     0.015 C
BRANCH   5   8
HETATM    8  C5  UNL     1       5.154  28.092   3.058  1.00  0.00     0.080 C
HETATM    9  C4  UNL     1       5.097  27.863   4.555  1.00  0.00     0.146 C
HETATM   10  C3  UNL     1       3.727  27.984   5.150  1.00  0.00     0.081 C
HETATM   11  N4  UNL     1       5.918  29.045   4.720  1.00  0.00    -0.288 N
HETATM   12  C2  UNL     1       3.660  28.694   6.458  1.00  0.00     0.132 C
HETATM   13  N1  UNL     1       4.925  29.198   6.935  1.00  0.00    -0.338 N
HETATM   14  C1  UNL     1       5.275  29.248   8.345  1.00  0.00     0.154 C
HETATM   15  C14 UNL     1       5.872  29.670   5.991  1.00  0.00     0.323 C
HETATM   16  O4  UNL     1       6.664  30.620   6.247  1.00  0.00    -0.247 OA
HETATM   17  C12 UNL     1       6.364  28.888   3.339  1.00  0.00     0.178 C
BRANCH   9  18
HETATM   18  O1  UNL     1       5.825  26.769   5.015  1.00  0.00    -0.370 OA
ATOM     19  H1  UNL     1       6.732  26.758   4.733  1.00  0.00     0.212 HD
ENDBRANCH   9  18
BRANCH  17  20
HETATM   20  C13 UNL     1       6.416  30.253   2.734  1.00  0.00     0.159 C
HETATM   21  N3  UNL     1       5.887  31.285   3.225  1.00  0.00    -0.249 N
ATOM     22  H3  UNL     1       5.373  31.226   4.104  1.00  0.00     0.196 HD
BRANCH  20  23
HETATM   23  O2  UNL     1       7.111  30.348   1.538  1.00  0.00    -0.347 OA
ATOM     24  H2  UNL     1       7.160  29.547   1.030  1.00  0.00     0.219 HD
ENDBRANCH  20  23
BRANCH  21  25
HETATM   25  O3  UNL     1       6.001  32.487   2.579  1.00  0.00    -0.288 OA
ATOM     26  H3  UNL     1       5.526  32.640   1.770  1.00  0.00     0.244 HD
ENDBRANCH  21  25
ENDBRANCH  17  20
ENDBRANCH   5   8
ENDBRANCH   4   5
ENDBRANCH   1   4
TORSDOF 7
ENDMDL