MODEL 4
REMARK VINA RESULT: -8.304248675      1.657      2.368
REMARK  7 active torsions:
REMARK  status: ('A' for Active; 'I' for Inactive)
REMARK    1  A    between atoms: C3_5  and  N2_6
REMARK    2  A    between atoms: N2_6  and  C4_8
REMARK    3  A    between atoms: C4_8  and  C5_9
REMARK    4  A    between atoms: C8_14  and  N4_15
REMARK    5  A    between atoms: N4_15  and  C9_17
REMARK    6  A    between atoms: C13_21  and  C14_22
REMARK    7  A    between atoms: C14_22  and  O1_24
ROOT
HETATM    1  C1  UNL     1      -2.735  36.601   1.032  1.00  0.00     0.090 C
HETATM    2  C2  UNL     1      -1.550  36.650   1.964  1.00  0.00     0.109 A
HETATM    3  N1  UNL     1      -1.681  36.365   3.264  1.00  0.00    -0.180 N
ATOM      4  H1  UNL     1      -2.594  36.111   3.643  1.00  0.00     0.185 HD
HETATM    5  C3  UNL     1      -0.587  36.417   4.084  1.00  0.00     0.694 A
HETATM    6  N3  UNL     1       0.560  36.757   3.519  1.00  0.00    -0.022 N
ATOM      7  H3  UNL     1       1.388  36.803   4.111  1.00  0.00     0.203 HD
HETATM    8  C8  UNL     1       0.709  37.055   2.172  1.00  0.00     0.696 A
HETATM    9  N5  UNL     1      -0.382  36.995   1.392  1.00  0.00    -0.180 N
ATOM     10  H5  UNL     1      -0.327  37.204   0.395  1.00  0.00     0.185 HD
ENDROOT
BRANCH   8  11
HETATM   11  N4  UNL     1       1.842  37.378   1.759  1.00  0.00    -0.199 N
ATOM     12  H4  UNL     1       2.043  38.304   2.135  1.00  0.00     0.180 HD
BRANCH  11  13
HETATM   13  C9  UNL     1       2.916  37.012   1.021  1.00  0.00     0.238 C
HETATM   14  C10 UNL     1       2.602  36.675  -0.429  1.00  0.00     0.054 C
HETATM   15  C11 UNL     1       3.972  36.663  -1.152  1.00  0.00     0.007 C
HETATM   16  C12 UNL     1       4.900  35.713  -0.405  1.00  0.00     0.035 C
HETATM   17  C13 UNL     1       4.939  36.100   1.031  1.00  0.00     0.152 C
HETATM   18  O2  UNL     1       3.646  35.948   1.579  1.00  0.00    -0.358 OA
BRANCH  17  19
HETATM   19  C14 UNL     1       5.955  35.345   1.827  1.00  0.00     0.143 C
HETATM   20  C15 UNL     1       7.342  35.881   1.654  1.00  0.00     0.042 C
BRANCH  19  21
HETATM   21  O1  UNL     1       5.888  33.975   1.618  1.00  0.00    -0.393 OA
ATOM     22  H1  UNL     1       5.244  33.551   2.173  1.00  0.00     0.210 HD
ENDBRANCH  19  21
ENDBRANCH  17  19
ENDBRANCH  11  13
ENDBRANCH   8  11
BRANCH   5  23
HETATM   23  N2  UNL     1      -0.706  36.165   5.334  1.00  0.00    -0.225 N
ATOM     24  H2  UNL     1      -1.016  36.949   5.907  1.00  0.00     0.177 HD
BRANCH  23  25
HETATM   25  C4  UNL     1      -0.472  34.962   6.037  1.00  0.00     0.142 C
BRANCH  25  26
HETATM   26  C5  UNL     1      -0.398  33.839   5.009  1.00  0.00    -0.004 C
HETATM   27  C6  UNL     1      -1.636  33.014   4.968  1.00  0.00     0.011 C
HETATM   28  C7  UNL     1       0.840  33.009   5.310  1.00  0.00     0.011 C
ENDBRANCH  25  26
ENDBRANCH  23  25
ENDBRANCH   5  23
TORSDOF 7
ENDMDL