MODEL 2
REMARK VINA RESULT: -5.796009313      7.727      9.530
REMARK  7 active torsions:
REMARK  status: ('A' for Active; 'I' for Inactive)
REMARK    1  A    between atoms: O1_2  and  C2_3
REMARK    2  A    between atoms: C5_7  and  O3_8
REMARK    3  A    between atoms: C6_10  and  C8_12
REMARK    4  A    between atoms: C8_12  and  O4_13
REMARK    5  A    between atoms: C12_18  and  C14_20
REMARK    6  A    between atoms: C14_20  and  C15_21
REMARK    7  A    between atoms: C15_21  and  C16_22
ROOT
HETATM    1  C2  UNL     1      -3.370  28.148  -1.583  1.00  0.00     0.158 C
HETATM    2  C3  UNL     1      -2.959  27.108  -2.584  1.00  0.00     0.156 C
HETATM    3  O2  UNL     1      -2.462  25.974  -1.913  1.00  0.00    -0.380 OA
HETATM    4  C4  UNL     1      -2.548  24.897  -2.786  1.00  0.00     0.200 C
HETATM    5  C5  UNL     1      -1.798  25.062  -4.064  1.00  0.00     0.152 C
HETATM    6  C6  UNL     1      -1.062  26.373  -4.055  1.00  0.00     0.011 C
HETATM    7  C7  UNL     1      -0.607  26.741  -5.478  1.00  0.00     0.020 C
HETATM    8  C9  UNL     1      -1.989  27.479  -3.620  1.00  0.00     0.030 C
HETATM    9  C10 UNL     1      -1.230  28.753  -3.382  1.00  0.00     0.009 C
HETATM   10  C11 UNL     1      -2.307  29.827  -3.147  1.00  0.00     0.012 C
HETATM   11  C12 UNL     1      -2.835  29.502  -1.746  1.00  0.00    -0.015 C
HETATM   12  C13 UNL     1      -1.524  29.546  -0.887  1.00  0.00     0.018 C
ENDROOT
BRANCH  11  13
HETATM   13  C14 UNL     1      -3.614  30.663  -1.280  1.00  0.00     0.022 C
BRANCH  13  14
HETATM   14  C15 UNL     1      -3.229  31.436  -0.092  1.00  0.00     0.114 C
BRANCH  14  15
HETATM   15  C16 UNL     1      -2.694  32.789  -0.302  1.00  0.00     0.172 C
HETATM   16  O5  UNL     1      -2.183  33.120  -1.430  1.00  0.00    -0.648 OA
HETATM   17  O6  UNL     1      -2.729  33.735   0.704  1.00  0.00    -0.648 OA
ENDBRANCH  14  15
ENDBRANCH  13  14
ENDBRANCH  11  13
BRANCH   1  18
HETATM   18  O1  UNL     1      -4.746  28.166  -1.409  1.00  0.00    -0.387 OA
HETATM   19  C1  UNL     1      -5.412  27.688  -2.557  1.00  0.00     0.202 C
ENDBRANCH   1  18
BRANCH   6  20
HETATM   20  C8  UNL     1       0.163  26.234  -3.197  1.00  0.00     0.176 C
BRANCH  20  21
HETATM   21  O4  UNL     1       1.244  26.048  -4.060  1.00  0.00    -0.400 OA
ATOM     22  H4  UNL     1       2.032  26.185  -3.548  1.00  0.00     0.209 HD
ENDBRANCH  20  21
ENDBRANCH   6  20
BRANCH   5  23
HETATM   23  O3  UNL     1      -2.617  25.004  -5.189  1.00  0.00    -0.393 OA
ATOM     24  H3  UNL     1      -2.233  24.511  -5.904  1.00  0.00     0.210 HD
ENDBRANCH   5  23
TORSDOF 7
ENDMDL