MODEL 5
REMARK VINA RESULT: -6.726313878      8.311     10.637
REMARK  6 active torsions:
REMARK  status: ('A' for Active; 'I' for Inactive)
REMARK    1  A    between atoms: C4_5  and  C5_6
REMARK    2  A    between atoms: C5_6  and  O2_7
REMARK    3  A    between atoms: C6_9  and  C7_10
REMARK    4  A    between atoms: C11_14  and  N1_15
REMARK    5  A    between atoms: N1_15  and  C12_18
REMARK    6  A    between atoms: C17_23  and  O3_24
ROOT
HETATM    1  C7  UNL     1       0.238  36.003   3.398  1.00  0.00     0.048 C
HETATM    2  C8  UNL     1      -0.536  34.902   4.200  1.00  0.00     0.009 C
HETATM    3  C9  UNL     1       0.363  34.889   5.438  1.00  0.00     0.002 C
HETATM    4  C10 UNL     1       1.748  35.092   4.912  1.00  0.00     0.033 C
HETATM    5  C11 UNL     1       1.575  35.483   3.420  1.00  0.00     0.193 C
ENDROOT
BRANCH   5   6
HETATM    6  N1  UNL     1       2.723  36.340   3.229  1.00  0.00    -0.064 N
ATOM      7  H12 UNL     1       2.492  37.310   3.446  1.00  0.00     0.278 HD
ATOM      8  H11 UNL     1       3.426  36.169   3.948  1.00  0.00     0.278 HD
BRANCH   6   9
HETATM    9  C12 UNL     1       3.293  36.234   1.932  1.00  0.00     0.214 C
HETATM   10  C13 UNL     1       2.776  37.227   0.926  1.00  0.00     0.036 C
HETATM   11  C14 UNL     1       2.950  36.612  -0.439  1.00  0.00     0.002 C
HETATM   12  C15 UNL     1       4.417  36.343  -0.646  1.00  0.00     0.003 C
HETATM   13  C16 UNL     1       5.033  35.524   0.443  1.00  0.00     0.034 C
HETATM   14  C17 UNL     1       4.768  36.141   1.822  1.00  0.00     0.148 C
BRANCH  14  15
HETATM   15  O3  UNL     1       5.315  35.203   2.732  1.00  0.00    -0.393 OA
ATOM     16  H3  UNL     1       6.073  34.756   2.376  1.00  0.00     0.210 HD
ENDBRANCH  14  15
ENDBRANCH   6   9
ENDBRANCH   5   6
BRANCH   1  17
HETATM   17  C6  UNL     1      -0.535  36.485   2.290  1.00  0.00     0.162 C
HETATM   18  C4  UNL     1      -1.522  37.481   2.130  1.00  0.00     0.178 C
HETATM   19  O1  UNL     1      -2.658  36.723   1.671  1.00  0.00    -0.346 OA
HETATM   20  C2  UNL     1      -1.996  35.942   0.699  1.00  0.00     0.158 C
HETATM   21  C1  UNL     1      -2.941  34.905   0.145  1.00  0.00     0.078 C
HETATM   22  C3  UNL     1      -1.450  36.739  -0.451  1.00  0.00     0.078 C
HETATM   23  O4  UNL     1      -1.002  35.395   1.493  1.00  0.00    -0.348 OA
BRANCH  18  24
HETATM   24  C5  UNL     1      -2.086  38.424   3.088  1.00  0.00     0.198 C
BRANCH  24  25
HETATM   25  O2  UNL     1      -2.404  38.028   4.346  1.00  0.00    -0.398 OA
ATOM     26  H2  UNL     1      -2.229  38.590   5.091  1.00  0.00     0.209 HD
ENDBRANCH  24  25
ENDBRANCH  18  24
ENDBRANCH   1  17
TORSDOF 6
ENDMDL