MODEL 4
REMARK VINA RESULT: -6.051867259     11.370     14.302
REMARK  8 active torsions:
REMARK  status: ('A' for Active; 'I' for Inactive)
REMARK    1  A    between atoms: C1_2  and  O2_3
REMARK    2  A    between atoms: C1_2  and  C7_9
REMARK    3  A    between atoms: O2_3  and  C2_4
REMARK    4  A    between atoms: C7_9  and  C8_10
REMARK    5  A    between atoms: C8_10  and  O3_11
REMARK    6  A    between atoms: C14_18  and  O4_19
REMARK    7  A    between atoms: C16_22  and  C17_23
REMARK    8  A    between atoms: C17_23  and  O5_24
ROOT
HETATM    1  C7  UNL     1      -2.184  36.284   6.618  1.00  0.00     0.100 C
HETATM    2  C9  UNL     1      -0.915  36.309   7.408  1.00  0.00     0.025 C
HETATM    3  C10 UNL     1      -0.596  37.610   8.048  1.00  0.00     0.006 C
HETATM    4  C11 UNL     1      -1.518  37.979   9.178  1.00  0.00    -0.008 C
HETATM    5  C12 UNL     1      -2.204  36.748   9.768  1.00  0.00     0.008 C
HETATM    6  C13 UNL     1      -3.249  36.192   8.868  1.00  0.00     0.039 C
HETATM    7  C14 UNL     1      -3.304  36.804   7.505  1.00  0.00     0.077 C
HETATM    8  C15 UNL     1      -3.368  38.302   7.537  1.00  0.00     0.046 C
HETATM    9  C16 UNL     1      -2.635  38.899   8.724  1.00  0.00     0.016 C
ENDROOT
BRANCH   1  10
HETATM   10  C1  UNL     1      -2.108  37.056   5.359  1.00  0.00     0.273 C
HETATM   11  O1  UNL     1      -2.612  38.214   5.290  1.00  0.00    -0.264 OA
BRANCH  10  12
HETATM   12  O2  UNL     1      -1.523  36.635   4.202  1.00  0.00    -0.315 OA
BRANCH  12  13
HETATM   13  C2  UNL     1      -0.192  36.701   3.847  1.00  0.00     0.132 C
HETATM   14  C3  UNL     1       0.074  37.055   2.412  1.00  0.00     0.032 C
HETATM   15  C4  UNL     1       1.595  36.962   2.397  1.00  0.00     0.002 C
HETATM   16  C5  UNL     1       1.929  35.869   3.393  1.00  0.00     0.002 C
HETATM   17  C6  UNL     1       0.608  35.451   4.019  1.00  0.00     0.032 C
ENDBRANCH  12  13
ENDBRANCH  10  12
ENDBRANCH   1  10
BRANCH   1  18
HETATM   18  C8  UNL     1      -2.447  34.839   6.236  1.00  0.00     0.187 C
BRANCH  18  19
HETATM   19  O3  UNL     1      -3.298  34.694   5.169  1.00  0.00    -0.399 OA
ATOM     20  H3  UNL     1      -3.687  33.830   5.103  1.00  0.00     0.209 HD
ENDBRANCH  18  19
ENDBRANCH   1  18
BRANCH   7  21
HETATM   21  O4  UNL     1      -4.513  36.362   6.917  1.00  0.00    -0.388 OA
ATOM     22  H4  UNL     1      -5.206  36.876   7.314  1.00  0.00     0.210 HD
ENDBRANCH   7  21
BRANCH   9  23
HETATM   23  C17 UNL     1      -2.150  40.290   8.447  1.00  0.00     0.169 C
BRANCH  23  24
HETATM   24  O5  UNL     1      -2.521  40.612   7.141  1.00  0.00    -0.400 OA
ATOM     25  H5  UNL     1      -3.455  40.781   7.142  1.00  0.00     0.209 HD
ENDBRANCH  23  24
ENDBRANCH   9  23
TORSDOF 8
ENDMDL