MODEL 1
REMARK VINA RESULT: -8.630827439      0.000      0.000
REMARK  5 active torsions:
REMARK  status: ('A' for Active; 'I' for Inactive)
REMARK    1  A    between atoms: N1_1  and  C1_4
REMARK    2  A    between atoms: C4_13  and  C5_14
REMARK    3  A    between atoms: C5_14  and  C6_15
REMARK    4  A    between atoms: C11_20  and  N5_21
REMARK    5  A    between atoms: N5_21  and  C12_23
ROOT
HETATM    1  C1  UNL     1      -1.932  37.799   5.813  1.00  0.00     0.690 A
HETATM    2  N2  UNL     1      -2.771  38.323   4.891  1.00  0.00    -0.132 N
ATOM      3  H2  UNL     1      -3.646  38.761   5.175  1.00  0.00     0.205 HD
HETATM    4  N3  UNL     1      -2.440  38.258   3.626  1.00  0.00    -0.289 N
ATOM      5  H3  UNL     1      -3.067  38.652   2.925  1.00  0.00     0.187 HD
HETATM    6  C2  UNL     1      -1.263  37.669   3.224  1.00  0.00     0.051 A
HETATM    7  C3  UNL     1      -0.408  37.136   4.142  1.00  0.00     0.057 A
HETATM    8  N4  UNL     1      -0.784  37.223   5.427  1.00  0.00    -0.192 N
ATOM      9  H4  UNL     1      -0.170  36.834   6.143  1.00  0.00     0.184 HD
HETATM   10  C4  UNL     1       0.774  36.571   3.445  1.00  0.00     0.061 A
HETATM   11  C11 UNL     1       0.533  36.722   2.003  1.00  0.00     0.092 A
HETATM   12  C17 UNL     1      -0.736  37.513   1.874  1.00  0.00     0.086 A
ENDROOT
BRANCH  11  13
HETATM   13  N5  UNL     1       1.676  37.363   1.402  1.00  0.00    -0.412 N
ATOM     14  H5  UNL     1       1.683  38.368   1.230  1.00  0.00     0.154 HD
BRANCH  13  15
HETATM   15  C12 UNL     1       2.778  36.562   1.059  1.00  0.00     0.081 C
HETATM   16  C13 UNL     1       3.006  36.737  -0.454  1.00  0.00     0.051 C
HETATM   17  C14 UNL     1       4.404  36.188  -0.697  1.00  0.00     0.169 C
HETATM   18  O1  UNL     1       4.738  35.211   0.240  1.00  0.00    -0.391 OA
HETATM   19  C15 UNL     1       5.089  35.827   1.441  1.00  0.00     0.169 C
HETATM   20  C16 UNL     1       4.077  36.954   1.689  1.00  0.00     0.051 C
ENDBRANCH  13  15
ENDBRANCH  11  13
BRANCH  10  21
HETATM   21  C5  UNL     1       1.251  35.307   4.028  1.00  0.00     0.017 C
BRANCH  21  22
HETATM   22  C6  UNL     1       0.358  34.430   4.792  1.00  0.00    -0.014 C
HETATM   23  C7  UNL     1      -0.812  33.941   4.025  1.00  0.00     0.005 C
HETATM   24  C8  UNL     1      -1.167  32.577   4.618  1.00  0.00     0.000 C
HETATM   25  C9  UNL     1       0.090  32.064   5.244  1.00  0.00     0.000 C
HETATM   26  C10 UNL     1       1.096  33.195   5.281  1.00  0.00     0.005 C
ENDBRANCH  21  22
ENDBRANCH  10  21
BRANCH   1  27
HETATM   27  N1  UNL     1      -2.286  37.877   7.047  1.00  0.00    -0.233 N
ATOM     28  H12 UNL     1      -3.141  37.449   7.400  1.00  0.00     0.174 HD
ATOM     29  H11 UNL     1      -1.674  38.395   7.679  1.00  0.00     0.174 HD
ENDBRANCH   1  27
TORSDOF 5
ENDMDL