MODEL 4
REMARK VINA RESULT: -7.194244955      1.951      2.558
REMARK  6 active torsions:
REMARK  status: ('A' for Active; 'I' for Inactive)
REMARK    1  A    between atoms: C2_2  and  N1_3
REMARK    2  A    between atoms: N1_3  and  C3_5
REMARK    3  A    between atoms: C4_8  and  O1_9
REMARK    4  A    between atoms: O1_9  and  C5_10
REMARK    5  A    between atoms: N3_14  and  C9_15
REMARK    6  A    between atoms: C16_23  and  N5_24
ROOT
HETATM    1  C3  UNL     1       1.631  36.997   2.119  1.00  0.00     0.681 A
HETATM    2  N2  UNL     1       0.764  36.467   2.984  1.00  0.00    -0.169 N
ATOM      3  H2  UNL     1       1.106  36.204   3.908  1.00  0.00     0.186 HD
HETATM    4  C4  UNL     1      -0.559  36.257   2.702  1.00  0.00     0.183 A
HETATM    5  C14 UNL     1      -1.001  36.614   1.461  1.00  0.00     0.140 A
HETATM    6  C15 UNL     1      -2.346  36.414   1.046  1.00  0.00     0.107 C
HETATM    7  N4  UNL     1      -3.430  36.237   0.689  1.00  0.00    -0.191 NA
HETATM    8  C16 UNL     1      -0.120  37.177   0.516  1.00  0.00     0.140 A
HETATM    9  N6  UNL     1       1.157  37.345   0.883  1.00  0.00    -0.175 N
ATOM     10  H6  UNL     1       1.806  37.751   0.211  1.00  0.00     0.186 HD
ENDROOT
BRANCH   4  11
HETATM   11  O1  UNL     1      -1.357  35.716   3.637  1.00  0.00    -0.323 OA
BRANCH  11  12
HETATM   12  C5  UNL     1      -1.348  35.822   5.025  1.00  0.00     0.069 C
HETATM   13  C6  UNL     1      -0.175  35.201   5.694  1.00  0.00     0.047 C
HETATM   14  C7  UNL     1      -1.299  37.320   5.331  1.00  0.00     0.068 C
HETATM   15  C8  UNL     1      -2.445  37.751   6.229  1.00  0.00     0.276 C
HETATM   16  N3  UNL     1      -2.362  36.962   7.414  1.00  0.00     0.092 N
HETATM   17  C12 UNL     1      -2.643  35.597   7.108  1.00  0.00     0.276 C
HETATM   18  C13 UNL     1      -2.611  35.269   5.650  1.00  0.00     0.068 C
BRANCH  16  19
HETATM   19  C9  UNL     1      -3.049  37.466   8.553  1.00  0.00     0.215 C
HETATM   20  C10 UNL     1      -3.566  38.866   8.422  1.00  0.00     0.042 C
HETATM   21  C11 UNL     1      -2.267  37.355   9.818  1.00  0.00     0.042 C
ENDBRANCH  16  19
ENDBRANCH  11  12
ENDBRANCH   4  11
BRANCH   8  22
HETATM   22  N5  UNL     1      -0.544  37.512  -0.651  1.00  0.00    -0.384 N
ATOM     23  H52 UNL     1      -0.434  36.904  -1.462  1.00  0.00     0.157 HD
ATOM     24  H51 UNL     1      -1.008  38.409  -0.793  1.00  0.00     0.157 HD
ENDBRANCH   8  22
BRANCH   1  25
HETATM   25  N1  UNL     1       2.868  37.208   2.347  1.00  0.00    -0.226 N
ATOM     26  H1  UNL     1       3.076  37.600   3.265  1.00  0.00     0.177 HD
BRANCH  25  27
HETATM   27  C2  UNL     1       3.996  36.985   1.526  1.00  0.00     0.133 C
HETATM   28  C1  UNL     1       4.904  35.880   2.037  1.00  0.00     0.027 C
ENDBRANCH  25  27
ENDBRANCH   1  25
TORSDOF 6
ENDMDL