MODEL 4
REMARK VINA RESULT: -7.903293008      1.602      2.043
REMARK  8 active torsions:
REMARK  status: ('A' for Active; 'I' for Inactive)
REMARK    1  A    between atoms: C2_2  and  C3_3
REMARK    2  A    between atoms: C4_4  and  C5_5
REMARK    3  A    between atoms: C10_10  and  O1_11
REMARK    4  A    between atoms: C12_14  and  C13_15
REMARK    5  A    between atoms: C13_15  and  C14_17
REMARK    6  A    between atoms: C16_19  and  C17_20
REMARK    7  A    between atoms: C17_20  and  O3_21
REMARK    8  A    between atoms: C18_24  and  O5_25
ROOT
HETATM    1  C1  UNL     1      -2.512  31.988   2.668  1.00  0.00     0.048 C
HETATM    2  C2  UNL     1      -2.523  33.331   2.090  1.00  0.00    -0.059 C
HETATM    3  C12 UNL     1      -2.551  33.509   0.799  1.00  0.00     0.057 C
ENDROOT
BRANCH   2   4
HETATM    4  C3  UNL     1      -2.498  34.506   2.944  1.00  0.00     0.003 C
HETATM    5  C4  UNL     1      -1.693  35.478   3.020  1.00  0.00    -0.021 C
BRANCH   5   6
HETATM    6  C5  UNL     1      -0.486  35.814   2.302  1.00  0.00     0.014 C
HETATM    7  C6  UNL     1       0.354  36.850   3.091  1.00  0.00     0.036 C
HETATM    8  C7  UNL     1       1.566  37.071   2.259  1.00  0.00    -0.021 C
HETATM    9  C8  UNL     1       1.512  37.091   0.944  1.00  0.00    -0.059 C
HETATM   10  C9  UNL     1       2.760  37.316   0.161  1.00  0.00     0.046 C
HETATM   11  C10 UNL     1       0.256  36.896   0.169  1.00  0.00     0.147 C
HETATM   12  C11 UNL     1      -0.929  36.632   1.056  1.00  0.00     0.045 C
BRANCH  11  13
HETATM   13  O1  UNL     1       0.063  37.991  -0.656  1.00  0.00    -0.391 OA
ATOM     14  H1  UNL     1      -0.680  38.490  -0.338  1.00  0.00     0.210 HD
ENDBRANCH  11  13
ENDBRANCH   5   6
ENDBRANCH   2   4
BRANCH   3  15
HETATM   15  C13 UNL     1      -2.577  32.600  -0.278  1.00  0.00     0.158 C
HETATM   16  O2  UNL     1      -2.268  32.872  -1.460  1.00  0.00    -0.293 OA
BRANCH  15  17
HETATM   17  C14 UNL     1      -2.990  31.165  -0.122  1.00  0.00     0.117 C
HETATM   18  C15 UNL     1      -3.622  30.669  -1.392  1.00  0.00     0.051 C
HETATM   19  C16 UNL     1      -3.222  29.214  -1.389  1.00  0.00     0.149 C
HETATM   20  O4  UNL     1      -2.229  29.032  -0.475  1.00  0.00    -0.353 OA
HETATM   21  C18 UNL     1      -1.864  30.233   0.081  1.00  0.00     0.269 C
BRANCH  19  22
HETATM   22  C17 UNL     1      -2.876  28.822  -2.791  1.00  0.00     0.196 C
BRANCH  22  23
HETATM   23  O3  UNL     1      -1.729  29.462  -3.263  1.00  0.00    -0.398 OA
ATOM     24  H3  UNL     1      -1.298  28.979  -3.958  1.00  0.00     0.209 HD
ENDBRANCH  22  23
ENDBRANCH  19  22
BRANCH  21  25
HETATM   25  O5  UNL     1      -0.660  30.624  -0.454  1.00  0.00    -0.370 OA
ATOM     26  H5  UNL     1       0.064  30.682   0.157  1.00  0.00     0.212 HD
ENDBRANCH  21  25
ENDBRANCH  15  17
ENDBRANCH   3  15
TORSDOF 8
ENDMDL