MODEL 5
REMARK VINA RESULT: -6.242796232     11.582     13.366
REMARK  7 active torsions:
REMARK  status: ('A' for Active; 'I' for Inactive)
REMARK    1  A    between atoms: C2_2  and  C3_3
REMARK    2  A    between atoms: C3_3  and  C4_4
REMARK    3  A    between atoms: C4_4  and  C5_5
REMARK    4  A    between atoms: C6_6  and  C7_7
REMARK    5  A    between atoms: C16_17  and  O2_18
REMARK    6  A    between atoms: C17_20  and  O3_21
REMARK    7  A    between atoms: C18_23  and  O4_24
ROOT
HETATM    1  C7  UNL     1      -0.077  25.857  -4.722  1.00  0.00     0.176 C
HETATM    2  O1  UNL     1      -0.925  26.090  -5.775  1.00  0.00    -0.368 OA
HETATM    3  C8  UNL     1      -2.242  26.068  -5.337  1.00  0.00     0.067 C
HETATM    4  C9  UNL     1      -2.516  24.623  -4.900  1.00  0.00     0.047 C
HETATM    5  C10 UNL     1      -3.081  26.256  -6.610  1.00  0.00     0.047 C
HETATM    6  C11 UNL     1      -2.570  27.049  -4.279  1.00  0.00     0.045 C
HETATM    7  C12 UNL     1      -3.270  28.293  -4.818  1.00  0.00     0.018 C
HETATM    8  C13 UNL     1      -4.187  28.765  -3.716  1.00  0.00     0.008 C
HETATM    9  C14 UNL     1      -4.045  27.778  -2.597  1.00  0.00     0.011 C
HETATM   10  C15 UNL     1      -5.357  27.570  -1.852  1.00  0.00     0.012 C
HETATM   11  C16 UNL     1      -3.673  26.502  -3.362  1.00  0.00     0.136 C
HETATM   12  C17 UNL     1      -1.453  27.489  -3.411  1.00  0.00     0.163 C
HETATM   13  C18 UNL     1      -0.085  27.102  -3.865  1.00  0.00     0.180 C
ENDROOT
BRANCH  11  14
HETATM   14  O2  UNL     1      -4.787  26.109  -4.051  1.00  0.00    -0.394 OA
ATOM     15  H2  UNL     1      -5.480  26.758  -4.028  1.00  0.00     0.210 HD
ENDBRANCH  11  14
BRANCH  12  16
HETATM   16  O3  UNL     1      -1.440  28.896  -3.249  1.00  0.00    -0.392 OA
ATOM     17  H3  UNL     1      -0.904  29.158  -2.511  1.00  0.00     0.210 HD
ENDBRANCH  12  16
BRANCH  13  18
HETATM   18  O4  UNL     1       0.534  28.127  -4.578  1.00  0.00    -0.390 OA
ATOM     19  H4  UNL     1      -0.059  28.868  -4.611  1.00  0.00     0.210 HD
ENDBRANCH  13  18
BRANCH   1  20
HETATM   20  C6  UNL     1       1.315  25.712  -5.264  1.00  0.00     0.003 C
HETATM   21  C5  UNL     1       1.588  25.084  -6.378  1.00  0.00    -0.028 C
BRANCH  21  22
HETATM   22  C4  UNL     1       2.980  24.962  -6.880  1.00  0.00     0.027 C
BRANCH  22  23
HETATM   23  C3  UNL     1       3.988  25.265  -5.769  1.00  0.00     0.003 C
BRANCH  23  24
HETATM   24  C2  UNL     1       5.052  26.148  -6.384  1.00  0.00    -0.004 C
HETATM   25  C1  UNL     1       6.398  25.842  -5.776  1.00  0.00     0.005 C
ENDBRANCH  23  24
ENDBRANCH  22  23
ENDBRANCH  21  22
ENDBRANCH   1  20
TORSDOF 7
ENDMDL