MODEL 2
REMARK VINA RESULT: -6.660917897      1.037      2.009
REMARK  3 active torsions:
REMARK  status: ('A' for Active; 'I' for Inactive)
REMARK    1  A    between atoms: N1_1  and  C1_4
REMARK    2  A    between atoms: C2_7  and  N3_8
REMARK    3  A    between atoms: N3_8  and  C3_10
ROOT
HETATM    1  C1  UNL     1      -3.443  -2.351  23.678  1.00  0.00     0.113 A
HETATM    2  N2  UNL     1      -4.541  -3.169  23.764  1.00  0.00    -0.328 N
ATOM      3  H2  UNL     1      -5.081  -3.163  24.629  1.00  0.00     0.169 HD
HETATM    4  C2  UNL     1      -4.940  -3.971  22.776  1.00  0.00     0.108 A
HETATM    5  C9  UNL     1      -4.133  -3.916  21.619  1.00  0.00     0.063 A
HETATM    6  C10 UNL     1      -3.033  -3.129  21.471  1.00  0.00     0.005 A
HETATM    7  C11 UNL     1      -2.118  -2.928  20.434  1.00  0.00     0.022 A
HETATM    8  N4  UNL     1      -1.248  -2.032  20.868  1.00  0.00    -0.358 N
HETATM    9  C12 UNL     1      -1.558  -1.645  22.128  1.00  0.00     0.107 A
HETATM   10  C13 UNL     1      -2.684  -2.324  22.534  1.00  0.00     0.035 A
HETATM   11  C14 UNL     1      -0.263  -1.794  19.800  1.00  0.00     0.128 C
HETATM   12  C15 UNL     1      -0.861  -2.342  18.547  1.00  0.00     0.026 C
HETATM   13  C16 UNL     1      -1.832  -3.394  19.048  1.00  0.00     0.059 C
ENDROOT
BRANCH   4  14
HETATM   14  N3  UNL     1      -6.016  -4.878  22.814  1.00  0.00    -0.340 N
ATOM     15  H3  UNL     1      -6.562  -4.813  23.673  1.00  0.00     0.167 HD
BRANCH  14  16
HETATM   16  C3  UNL     1      -6.495  -5.839  21.939  1.00  0.00     0.075 A
HETATM   17  C4  UNL     1      -7.598  -5.672  21.155  1.00  0.00     0.078 A
HETATM   18  C5  UNL     1      -7.971  -6.654  20.246  1.00  0.00     0.157 A
HETATM   19  F1  UNL     1      -9.076  -6.469  19.474  1.00  0.00    -0.203 F
HETATM   20  C6  UNL     1      -7.258  -7.803  20.106  1.00  0.00     0.157 A
HETATM   21  F2  UNL     1      -7.576  -8.780  19.245  1.00  0.00    -0.203 F
HETATM   22  C7  UNL     1      -6.135  -7.977  20.898  1.00  0.00     0.090 A
HETATM   23  C8  UNL     1      -5.754  -7.038  21.789  1.00  0.00     0.146 A
HETATM   24  F3  UNL     1      -4.667  -7.220  22.552  1.00  0.00    -0.204 F
ENDBRANCH  14  16
ENDBRANCH   4  14
BRANCH   1  25
HETATM   25  N1  UNL     1      -3.159  -1.626  24.684  1.00  0.00    -0.385 N
ATOM     26  H12 UNL     1      -2.490  -0.859  24.619  1.00  0.00     0.157 HD
ATOM     27  H11 UNL     1      -3.623  -1.833  25.569  1.00  0.00     0.157 HD
ENDBRANCH   1  25
TORSDOF 3
ENDMDL