MODEL 5
REMARK VINA RESULT: -6.926168845      2.643      6.667
REMARK  3 active torsions:
REMARK  status: ('A' for Active; 'I' for Inactive)
REMARK    1  A    between atoms: C2_2  and  C3_5
REMARK    2  A    between atoms: C6_9  and  N1_10
REMARK       I    between atoms: N1_10  and  C7_12
REMARK       I    between atoms: C7_12  and  N2_14
REMARK    3  A    between atoms: N2_14  and  C8_16
ROOT
HETATM    1  N1  UNL     1      -5.337  -5.371  21.979  1.00  0.00    -0.302 N
ATOM      2  H1  UNL     1      -4.991  -5.914  22.769  1.00  0.00     0.171 HD
HETATM    3  C7  UNL     1      -4.493  -4.444  21.333  1.00  0.00     0.321 C
HETATM    4  O1  UNL     1      -4.944  -3.790  20.361  1.00  0.00    -0.247 OA
HETATM    5  N2  UNL     1      -3.152  -4.216  21.731  1.00  0.00    -0.338 N
ATOM      6  H2  UNL     1      -2.768  -4.739  22.519  1.00  0.00     0.164 HD
ENDROOT
BRANCH   1   7
HETATM    7  C6  UNL     1      -6.683  -5.549  21.521  1.00  0.00     0.090 A
HETATM    8  C3  UNL     1      -7.184  -6.533  20.714  1.00  0.00     0.047 A
HETATM    9  C4  UNL     1      -8.500  -6.482  20.435  1.00  0.00     0.023 A
HETATM   10  C5  UNL     1      -9.223  -5.458  20.976  1.00  0.00     0.053 A
HETATM   11  S1  UNL     1      -8.055  -4.590  21.860  1.00  0.00    -0.083 SA
BRANCH   8  12
HETATM   12  C2  UNL     1      -6.262  -7.612  20.165  1.00  0.00     0.270 C
HETATM   13  C1  UNL     1      -5.454  -8.261  21.249  1.00  0.00     0.096 C
HETATM   14  F1  UNL     1      -7.044  -8.556  19.488  1.00  0.00    -0.201 F
HETATM   15  F2  UNL     1      -5.398  -7.093  19.227  1.00  0.00    -0.201 F
ENDBRANCH   8  12
ENDBRANCH   1   7
BRANCH   5  16
HETATM   16  C8  UNL     1      -2.315  -3.255  21.042  1.00  0.00     0.086 C
HETATM   17  C9  UNL     1      -1.137  -2.961  21.911  1.00  0.00     0.025 C
HETATM   18  C10 UNL     1       0.168  -2.916  21.174  1.00  0.00     0.002 C
HETATM   19  C11 UNL     1       0.296  -1.752  20.238  1.00  0.00     0.000 C
HETATM   20  C12 UNL     1      -0.913  -1.590  19.347  1.00  0.00     0.000 C
HETATM   21  C13 UNL     1      -1.358  -2.889  18.746  1.00  0.00     0.002 C
HETATM   22  C14 UNL     1      -1.950  -3.849  19.708  1.00  0.00     0.025 C
ENDBRANCH   5  16
TORSDOF 3
ENDMDL