MODEL 4
REMARK VINA RESULT: -5.138778071      0.834      2.089
REMARK  3 active torsions:
REMARK  status: ('A' for Active; 'I' for Inactive)
REMARK    1  A    between atoms: C7_7  and  N1_8
REMARK       I    between atoms: N1_8  and  C8_10
REMARK       I    between atoms: C8_10  and  N2_12
REMARK    2  A    between atoms: N2_12  and  C9_14
REMARK    3  A    between atoms: C11_16  and  C12_17
ROOT
HETATM    1  N1  UNL     1      -4.156  -4.979  20.653  1.00  0.00    -0.338 N
ATOM      2  H1  UNL     1      -3.773  -5.354  19.785  1.00  0.00     0.164 HD
HETATM    3  C8  UNL     1      -5.201  -5.781  21.021  1.00  0.00     0.321 C
HETATM    4  O1  UNL     1      -5.911  -5.599  22.043  1.00  0.00    -0.247 OA
HETATM    5  N2  UNL     1      -5.564  -6.917  20.239  1.00  0.00    -0.303 N
ATOM      6  H2  UNL     1      -5.067  -7.037  19.357  1.00  0.00     0.171 HD
ENDROOT
BRANCH   1   7
HETATM    7  C7  UNL     1      -3.420  -3.874  20.983  1.00  0.00     0.090 C
HETATM    8  C5  UNL     1      -3.218  -3.564  22.452  1.00  0.00     0.004 C
HETATM    9  C4  UNL     1      -2.546  -2.187  22.568  1.00  0.00     0.007 C
HETATM   10  C6  UNL     1      -2.458  -4.503  23.275  1.00  0.00     0.012 C
HETATM   11  C3  UNL     1      -1.293  -2.099  21.749  1.00  0.00     0.005 C
HETATM   12  C2  UNL     1      -1.640  -2.353  20.303  1.00  0.00    -0.017 C
HETATM   13  C1  UNL     1      -0.493  -2.146  19.353  1.00  0.00     0.010 C
HETATM   14  C14 UNL     1      -2.107  -3.812  20.246  1.00  0.00     0.029 C
ENDBRANCH   1   7
BRANCH   5  15
HETATM   15  C9  UNL     1      -6.532  -7.892  20.549  1.00  0.00     0.078 A
HETATM   16  C10 UNL     1      -6.444  -9.175  21.043  1.00  0.00     0.054 A
HETATM   17  C11 UNL     1      -7.568  -9.878  21.198  1.00  0.00     0.057 A
HETATM   18  C13 UNL     1      -8.755  -9.274  20.854  1.00  0.00     0.068 A
HETATM   19  S1  UNL     1      -8.254  -7.734  20.322  1.00  0.00    -0.083 SA
BRANCH  17  20
HETATM   20  C12 UNL     1      -7.603 -11.328  21.676  1.00  0.00     0.418 C
HETATM   21  F1  UNL     1      -6.407 -11.530  22.371  1.00  0.00    -0.166 F
HETATM   22  F2  UNL     1      -8.647 -11.586  22.504  1.00  0.00    -0.166 F
HETATM   23  F3  UNL     1      -7.621 -12.201  20.626  1.00  0.00    -0.166 F
ENDBRANCH  17  20
ENDBRANCH   5  15
TORSDOF 3
ENDMDL