MODEL 3
REMARK VINA RESULT: -7.234831019      3.118      5.961
REMARK  4 active torsions:
REMARK  status: ('A' for Active; 'I' for Inactive)
REMARK    1  A    between atoms: C3_3  and  C4_4
REMARK    2  A    between atoms: C10_10  and  C11_11
REMARK    3  A    between atoms: C13_16  and  O1_17
REMARK    4  A    between atoms: C16_20  and  O2_21
ROOT
HETATM    1  C4  UNL     1      -1.789  -2.558  22.068  1.00  0.00    -0.059 C
HETATM    2  C5  UNL     1      -1.238  -2.082  23.392  1.00  0.00     0.048 C
HETATM    3  C6  UNL     1      -3.119  -2.438  21.972  1.00  0.00    -0.067 C
HETATM    4  C7  UNL     1      -3.808  -2.971  20.775  1.00  0.00     0.074 C
HETATM    5  C8  UNL     1      -5.108  -3.565  21.274  1.00  0.00    -0.042 A
HETATM    6  C9  UNL     1      -5.743  -4.422  20.410  1.00  0.00     0.024 A
HETATM    7  C10 UNL     1      -6.944  -5.031  20.792  1.00  0.00     0.051 A
HETATM    8  C12 UNL     1      -7.494  -4.780  22.028  1.00  0.00     0.053 A
HETATM    9  C13 UNL     1      -6.870  -3.923  22.905  1.00  0.00     0.078 A
HETATM   10  C15 UNL     1      -5.659  -3.328  22.485  1.00  0.00     0.011 A
HETATM   11  C16 UNL     1      -5.044  -2.450  23.528  1.00  0.00     0.158 C
HETATM   12  C17 UNL     1      -3.878  -1.697  23.005  1.00  0.00     0.072 C
ENDROOT
BRANCH   1  13
HETATM   13  C3  UNL     1      -0.996  -3.166  21.038  1.00  0.00     0.002 C
HETATM   14  C2  UNL     1      -0.463  -2.729  19.948  1.00  0.00    -0.030 C
HETATM   15  C1  UNL     1      -0.486  -1.395  19.357  1.00  0.00     0.036 C
ENDBRANCH   1  13
BRANCH  11  16
HETATM   16  O2  UNL     1      -6.059  -1.511  23.854  1.00  0.00    -0.390 OA
ATOM     17  H2  UNL     1      -5.768  -1.112  24.665  1.00  0.00     0.210 HD
ENDBRANCH  11  16
BRANCH   7  18
HETATM   18  C11 UNL     1      -7.577  -5.973  19.832  1.00  0.00     0.417 C
HETATM   19  F1  UNL     1      -6.643  -6.884  19.327  1.00  0.00    -0.166 F
HETATM   20  F2  UNL     1      -8.079  -5.287  18.739  1.00  0.00    -0.166 F
HETATM   21  F3  UNL     1      -8.579  -6.739  20.440  1.00  0.00    -0.166 F
ENDBRANCH   7  18
BRANCH   9  22
HETATM   22  O1  UNL     1      -7.331  -3.607  24.136  1.00  0.00    -0.355 OA
HETATM   23  C14 UNL     1      -7.414  -4.171  25.361  1.00  0.00     0.210 C
ENDBRANCH   9  22
TORSDOF 4
ENDMDL