MODEL 2
REMARK VINA RESULT: -4.712108537      1.312      2.057
REMARK  2 active torsions:
REMARK  status: ('A' for Active; 'I' for Inactive)
REMARK    1  A    between atoms: C5_6  and  N1_7
REMARK       I    between atoms: N1_7  and  C6_9
REMARK       I    between atoms: C6_9  and  N2_11
REMARK    2  A    between atoms: N2_11  and  C7_13
ROOT
HETATM    1  C7  UNL     1      -2.217  -3.145  20.308  1.00  0.00     0.123 C
HETATM    2  C8  UNL     1      -2.740  -2.429  21.480  1.00  0.00     0.091 C
HETATM    3  N3  UNL     1      -3.148  -1.871  22.398  1.00  0.00    -0.195 NA
HETATM    4  C9  UNL     1      -1.432  -2.163  19.424  1.00  0.00     0.046 C
HETATM    5  C10 UNL     1      -0.505  -1.417  20.355  1.00  0.00     0.004 C
HETATM    6  C11 UNL     1       0.419  -2.340  21.099  1.00  0.00     0.000 C
HETATM    7  C12 UNL     1       0.178  -3.790  20.808  1.00  0.00     0.004 C
HETATM    8  C13 UNL     1      -1.255  -4.186  20.759  1.00  0.00     0.046 C
ENDROOT
BRANCH   1   9
HETATM    9  N2  UNL     1      -3.269  -3.686  19.495  1.00  0.00    -0.321 N
HETATM   10  C6  UNL     1      -4.155  -4.659  20.080  1.00  0.00     0.322 C
HETATM   11  N1  UNL     1      -5.184  -5.195  19.299  1.00  0.00    -0.306 N
HETATM   12  O1  UNL     1      -3.957  -4.972  21.249  1.00  0.00    -0.247 OA
ATOM     13  H1  UNL     1      -5.259  -4.864  18.337  1.00  0.00     0.171 HD
ATOM     14  H2  UNL     1      -3.386  -3.389  18.526  1.00  0.00     0.166 HD
BRANCH  11  15
HETATM   15  C5  UNL     1      -6.115  -6.140  19.721  1.00  0.00     0.076 A
HETATM   16  C4  UNL     1      -7.480  -5.839  19.619  1.00  0.00     0.143 A
HETATM   17  C3  UNL     1      -8.471  -6.715  20.014  1.00  0.00     0.053 A
HETATM   18  F1  UNL     1      -7.810  -4.630  19.108  1.00  0.00    -0.204 F
HETATM   19  C2  UNL     1      -8.125  -7.949  20.535  1.00  0.00    -0.037 A
HETATM   20  C1  UNL     1      -9.230  -8.851  20.943  1.00  0.00     0.050 C
HETATM   21  C15 UNL     1      -6.802  -8.295  20.658  1.00  0.00     0.042 A
HETATM   22  C14 UNL     1      -5.831  -7.372  20.244  1.00  0.00     0.057 A
HETATM   23 CL1  UNL     1      -6.364  -9.856  21.317  1.00  0.00    -0.084 Cl
ENDBRANCH  11  15
ENDBRANCH   1   9
TORSDOF 2
ENDMDL