MODEL 4
REMARK VINA RESULT: -6.644198733      1.314      1.779
REMARK  4 active torsions:
REMARK  status: ('A' for Active; 'I' for Inactive)
REMARK    1  A    between atoms: C2_2  and  C3_3
REMARK       I    between atoms: C3_3  and  N1_5
REMARK    2  A    between atoms: N1_5  and  C4_7
REMARK    3  A    between atoms: C9_14  and  C10_15
REMARK    4  A    between atoms: C10_15  and  C13_18
ROOT
HETATM    1  C4  UNL     1      -6.152  -5.450  20.957  1.00  0.00     0.078 A
HETATM    2  C5  UNL     1      -6.154  -4.393  21.821  1.00  0.00     0.052 A
HETATM    3  C6  UNL     1      -5.054  -3.624  21.864  1.00  0.00     0.008 A
HETATM    4  C7  UNL     1      -4.586  -2.480  22.543  1.00  0.00     0.017 A
HETATM    5  C8  UNL     1      -5.284  -1.669  23.573  1.00  0.00     0.069 C
HETATM    6  N2  UNL     1      -3.341  -2.188  22.115  1.00  0.00    -0.360 N
ATOM      7  H2  UNL     1      -2.776  -1.407  22.449  1.00  0.00     0.165 HD
HETATM    8  C9  UNL     1      -2.953  -3.077  21.187  1.00  0.00     0.044 A
HETATM    9  C14 UNL     1      -4.014  -3.963  21.034  1.00  0.00     0.043 A
HETATM   10  S1  UNL     1      -4.615  -5.342  20.227  1.00  0.00    -0.070 SA
ENDROOT
BRANCH   8  11
HETATM   11  C10 UNL     1      -1.661  -3.105  20.487  1.00  0.00     0.094 C
HETATM   12  C11 UNL     1      -1.139  -4.527  20.515  1.00  0.00     0.031 C
HETATM   13  C12 UNL     1      -1.898  -2.746  19.016  1.00  0.00     0.031 C
BRANCH  11  14
HETATM   14  C13 UNL     1      -0.614  -2.194  21.070  1.00  0.00     0.400 C
HETATM   15  F1  UNL     1      -0.653  -0.975  20.457  1.00  0.00    -0.170 F
HETATM   16  F2  UNL     1       0.647  -2.737  20.858  1.00  0.00    -0.170 F
HETATM   17  F3  UNL     1      -0.793  -2.080  22.455  1.00  0.00    -0.170 F
ENDBRANCH  11  14
ENDBRANCH   8  11
BRANCH   1  18
HETATM   18  N1  UNL     1      -7.209  -6.414  20.732  1.00  0.00    -0.318 N
HETATM   19  C3  UNL     1      -6.894  -7.780  20.699  1.00  0.00     0.245 C
HETATM   20  O1  UNL     1      -5.706  -8.146  20.866  1.00  0.00    -0.268 OA
ATOM     21  H1  UNL     1      -8.172  -6.103  20.598  1.00  0.00     0.169 HD
BRANCH  19  22
HETATM   22  C2  UNL     1      -7.949  -8.755  20.475  1.00  0.00     0.064 C
HETATM   23  C1  UNL     1      -7.798  -9.996  20.877  1.00  0.00     0.017 C
ENDBRANCH  19  22
ENDBRANCH   1  18
TORSDOF 4
ENDMDL