MODEL 3
REMARK VINA RESULT: -6.357217720      4.121      6.578
REMARK  3 active torsions:
REMARK  status: ('A' for Active; 'I' for Inactive)
REMARK    1  A    between atoms: C9_11  and  O1_12
REMARK    2  A    between atoms: O1_12  and  C10_13
REMARK    3  A    between atoms: C10_13  and  C11_14
ROOT
HETATM    1  C1  UNL     1      -8.262  -5.112  19.061  1.00  0.00     0.051 C
HETATM    2  C2  UNL     1      -7.002  -4.823  19.824  1.00  0.00    -0.026 A
HETATM    3  C3  UNL     1      -6.760  -3.648  20.463  1.00  0.00     0.039 A
HETATM    4  C4  UNL     1      -5.610  -3.371  21.166  1.00  0.00     0.044 A
HETATM    5  N1  UNL     1      -5.177  -2.289  21.860  1.00  0.00    -0.358 N
ATOM      6  H1  UNL     1      -5.686  -1.415  21.986  1.00  0.00     0.166 HD
HETATM    7  C5  UNL     1      -3.966  -2.571  22.347  1.00  0.00     0.018 A
HETATM    8  C6  UNL     1      -3.601  -3.842  21.972  1.00  0.00    -0.023 A
HETATM    9  C7  UNL     1      -4.651  -4.352  21.218  1.00  0.00     0.002 A
HETATM   10  C8  UNL     1      -4.860  -5.567  20.577  1.00  0.00     0.051 A
HETATM   11  C9  UNL     1      -6.023  -5.851  19.865  1.00  0.00     0.076 A
HETATM   12  C12 UNL     1      -2.314  -4.475  22.343  1.00  0.00     0.042 C
HETATM   13  C13 UNL     1      -1.598  -3.673  23.391  1.00  0.00     0.021 C
HETATM   14  C14 UNL     1      -1.656  -2.217  22.999  1.00  0.00     0.064 C
HETATM   15  S1  UNL     1      -1.246  -2.129  21.218  1.00  0.00    -0.092 SA
HETATM   16  C15 UNL     1      -3.064  -1.703  23.185  1.00  0.00     0.073 C
ENDROOT
BRANCH  11  17
HETATM   17  O1  UNL     1      -6.262  -7.003  19.234  1.00  0.00    -0.342 OA
BRANCH  17  18
HETATM   18  C10 UNL     1      -6.597  -8.281  19.361  1.00  0.00     0.293 C
BRANCH  18  19
HETATM   19  C11 UNL     1      -7.089  -8.834  20.659  1.00  0.00     0.408 C
HETATM   20  F1  UNL     1      -8.163  -8.018  21.068  1.00  0.00    -0.169 F
HETATM   21  F2  UNL     1      -6.133  -8.651  21.672  1.00  0.00    -0.169 F
HETATM   22  F3  UNL     1      -7.489 -10.133  20.670  1.00  0.00    -0.169 F
ENDBRANCH  18  19
ENDBRANCH  17  18
ENDBRANCH  11  17
TORSDOF 3
ENDMDL