MODEL 5
REMARK VINA RESULT: -7.910689165      3.207      4.806
REMARK  3 active torsions:
REMARK  status: ('A' for Active; 'I' for Inactive)
REMARK    1  A    between atoms: C2_2  and  C3_3
REMARK    2  A    between atoms: C14_16  and  C15_17
REMARK    3  A    between atoms: N2_19  and  O1_21
ROOT
HETATM    1  C1  UNL     1      -3.851  -6.142  20.773  1.00  0.00     0.016 C
HETATM    2  C2  UNL     1      -4.380  -4.771  21.112  1.00  0.00    -0.028 C
HETATM    3  C9  UNL     1      -5.355  -4.323  20.062  1.00  0.00    -0.005 C
HETATM    4  C10 UNL     1      -6.372  -5.381  19.715  1.00  0.00     0.005 C
HETATM    5  C11 UNL     1      -7.072  -6.014  20.857  1.00  0.00     0.001 C
HETATM    6  C12 UNL     1      -6.248  -6.092  22.118  1.00  0.00     0.006 C
HETATM    7  C13 UNL     1      -5.375  -4.832  22.268  1.00  0.00     0.006 C
HETATM    8  C14 UNL     1      -6.329  -3.675  22.076  1.00  0.00     0.057 C
HETATM    9  C16 UNL     1      -6.070  -3.116  20.702  1.00  0.00     0.017 C
ENDROOT
BRANCH   2  10
HETATM   10  C3  UNL     1      -3.281  -3.830  21.398  1.00  0.00     0.050 C
HETATM   11  C4  UNL     1      -2.390  -4.258  22.552  1.00  0.00     0.010 C
HETATM   12  C5  UNL     1      -1.611  -3.031  22.984  1.00  0.00     0.001 C
HETATM   13  C6  UNL     1      -0.835  -2.380  21.894  1.00  0.00     0.004 C
HETATM   14  C7  UNL     1      -1.700  -2.131  20.673  1.00  0.00     0.061 C
HETATM   15  C8  UNL     1      -2.312  -3.511  20.334  1.00  0.00     0.183 C
HETATM   16  F1  UNL     1      -2.689  -3.411  19.059  1.00  0.00    -0.225 F
HETATM   17 CL1  UNL     1      -0.871  -4.600  20.338  1.00  0.00    -0.082 Cl
ENDBRANCH   2  10
BRANCH   8  18
HETATM   18  C15 UNL     1      -6.310  -2.679  23.143  1.00  0.00     0.117 C
HETATM   19  N1  UNL     1      -6.475  -3.079  24.478  1.00  0.00    -0.085 NA
HETATM   20  N2  UNL     1      -6.137  -1.447  22.870  1.00  0.00    -0.259 N
ATOM     21  H2  UNL     1      -6.017  -1.187  21.892  1.00  0.00     0.195 HD
BRANCH  20  22
HETATM   22  O1  UNL     1      -6.104  -0.447  23.806  1.00  0.00    -0.289 OA
ATOM     23  H1  UNL     1      -6.771   0.223  23.897  1.00  0.00     0.244 HD
ENDBRANCH  20  22
ENDBRANCH   8  18
TORSDOF 3
ENDMDL