MODEL 3
REMARK VINA RESULT: -7.777581691      2.977      5.847
REMARK  3 active torsions:
REMARK  status: ('A' for Active; 'I' for Inactive)
REMARK    1  A    between atoms: C1_2  and  C2_5
REMARK    2  A    between atoms: C9_14  and  O1_15
REMARK    3  A    between atoms: O1_15  and  C10_16
ROOT
HETATM    1  C2  UNL     1      -5.518  -3.858  23.492  1.00  0.00     0.083 A
HETATM    2  C3  UNL     1      -4.329  -3.277  23.854  1.00  0.00     0.049 A
HETATM    3  C4  UNL     1      -3.321  -2.979  22.959  1.00  0.00     0.045 A
HETATM    4  N1  UNL     1      -2.098  -2.425  23.063  1.00  0.00    -0.342 N
ATOM      5  H1  UNL     1      -1.692  -2.104  23.942  1.00  0.00     0.167 HD
HETATM    6  C5  UNL     1      -1.482  -2.345  21.891  1.00  0.00     0.108 A
HETATM    7  C6  UNL     1      -2.337  -2.876  20.934  1.00  0.00    -0.002 A
HETATM    8  C7  UNL     1      -3.475  -3.265  21.618  1.00  0.00     0.003 A
HETATM    9  C8  UNL     1      -4.679  -3.854  21.247  1.00  0.00     0.052 A
HETATM   10  C9  UNL     1      -5.688  -4.153  22.134  1.00  0.00     0.085 A
HETATM   11  C15 UNL     1      -2.024  -2.971  19.507  1.00  0.00     0.045 C
HETATM   12  C16 UNL     1      -0.582  -2.705  19.223  1.00  0.00     0.024 C
HETATM   13  C17 UNL     1      -0.134  -1.482  20.026  1.00  0.00     0.121 C
HETATM   14  N2  UNL     1      -0.217  -1.865  21.420  1.00  0.00    -0.376 N
ATOM     15  H2  UNL     1       0.590  -1.796  22.040  1.00  0.00     0.161 HD
ENDROOT
BRANCH  10  16
HETATM   16  O1  UNL     1      -6.886  -4.734  21.801  1.00  0.00    -0.345 OA
BRANCH  16  17
HETATM   17  C10 UNL     1      -7.099  -6.056  21.403  1.00  0.00     0.129 C
HETATM   18  C11 UNL     1      -7.076  -6.200  19.880  1.00  0.00     0.032 C
HETATM   19  C12 UNL     1      -6.622  -7.621  19.637  1.00  0.00     0.002 C
HETATM   20  C13 UNL     1      -5.530  -7.768  20.660  1.00  0.00     0.002 C
HETATM   21  C14 UNL     1      -5.990  -6.985  21.845  1.00  0.00     0.032 C
ENDBRANCH  16  17
ENDBRANCH  10  16
BRANCH   1  22
HETATM   22  C1  UNL     1      -6.587  -4.167  24.480  1.00  0.00     0.420 C
HETATM   23  F1  UNL     1      -6.346  -5.415  25.006  1.00  0.00    -0.166 F
HETATM   24  F2  UNL     1      -6.629  -3.182  25.416  1.00  0.00    -0.166 F
HETATM   25  F3  UNL     1      -7.839  -4.216  23.875  1.00  0.00    -0.166 F
ENDBRANCH   1  22
TORSDOF 3
ENDMDL