MODEL 3
REMARK VINA RESULT: -8.149620484      1.172      1.832
REMARK  4 active torsions:
REMARK  status: ('A' for Active; 'I' for Inactive)
REMARK    1  A    between atoms: C5_5  and  C6_6
REMARK    2  A    between atoms: C7_7  and  C8_8
REMARK    3  A    between atoms: C11_18  and  N3_19
REMARK    4  A    between atoms: N3_19  and  C12_21
ROOT
HETATM    1  C1  UNL     1      -4.013  -5.419  23.099  1.00  0.00     0.050 C
HETATM    2  C2  UNL     1      -5.071  -5.451  22.029  1.00  0.00    -0.035 A
HETATM    3  C3  UNL     1      -5.732  -6.633  21.774  1.00  0.00     0.026 A
HETATM    4  C4  UNL     1      -6.700  -6.671  20.799  1.00  0.00     0.029 A
HETATM    5  C5  UNL     1      -7.515  -7.669  20.321  1.00  0.00     0.114 A
HETATM    6  N1  UNL     1      -8.277  -7.101  19.341  1.00  0.00    -0.291 N
ATOM      7  H1  UNL     1      -8.985  -7.583  18.787  1.00  0.00     0.188 HD
HETATM    8  N2  UNL     1      -7.946  -5.818  19.223  1.00  0.00    -0.299 N
ATOM      9  H2  UNL     1      -8.364  -5.162  18.562  1.00  0.00     0.187 HD
HETATM   10  C9  UNL     1      -6.981  -5.518  20.100  1.00  0.00     0.063 A
HETATM   11  C10 UNL     1      -6.313  -4.329  20.361  1.00  0.00     0.061 A
HETATM   12  C11 UNL     1      -5.340  -4.271  21.335  1.00  0.00     0.036 A
ENDROOT
BRANCH  12  13
HETATM   13  N3  UNL     1      -4.640  -3.085  21.633  1.00  0.00    -0.385 N
ATOM     14  H3  UNL     1      -5.100  -2.417  22.251  1.00  0.00     0.160 HD
BRANCH  13  15
HETATM   15  C12 UNL     1      -3.344  -2.734  21.149  1.00  0.00     0.081 C
HETATM   16  C13 UNL     1      -2.784  -3.682  20.115  1.00  0.00     0.025 C
HETATM   17  C14 UNL     1      -1.488  -4.319  20.551  1.00  0.00     0.002 C
HETATM   18  C15 UNL     1      -0.467  -3.232  20.806  1.00  0.00     0.000 C
HETATM   19  C16 UNL     1      -0.990  -2.228  21.780  1.00  0.00     0.002 C
HETATM   20  C17 UNL     1      -2.338  -2.644  22.264  1.00  0.00     0.025 C
ENDBRANCH  13  15
ENDBRANCH  12  13
BRANCH   5  21
HETATM   21  C6  UNL     1      -7.533  -9.025  20.785  1.00  0.00    -0.038 C
HETATM   22  C7  UNL     1      -7.547 -10.166  21.197  1.00  0.00     0.015 C
BRANCH  22  23
HETATM   23  C8  UNL     1      -7.575 -11.548  21.690  1.00  0.00     0.459 C
HETATM   24  F1  UNL     1      -8.616 -11.672  22.617  1.00  0.00    -0.159 F
HETATM   25  F2  UNL     1      -6.397 -11.865  22.370  1.00  0.00    -0.159 F
HETATM   26  F3  UNL     1      -7.705 -12.450  20.669  1.00  0.00    -0.159 F
ENDBRANCH  22  23
ENDBRANCH   5  21
TORSDOF 4
ENDMDL