MODEL 1
REMARK VINA RESULT: -6.809982846      0.000      0.000
REMARK  8 active torsions:
REMARK  status: ('A' for Active; 'I' for Inactive)
REMARK    1  A    between atoms: C2_2  and  C3_3
REMARK    2  A    between atoms: C2_2  and  C12_19
REMARK    3  A    between atoms: C3_3  and  S1_4
REMARK    4  A    between atoms: S1_4  and  C4_5
REMARK    5  A    between atoms: C4_5  and  C5_7
REMARK    6  A    between atoms: C6_8  and  C7_9
REMARK    7  A    between atoms: C9_11  and  C10_12
REMARK    8  A    between atoms: C10_12  and  C11_13
ROOT
HETATM    1  C5  UNL     1     -19.843  23.562  -6.194  1.00  0.00     0.060 C
HETATM    2  C6  UNL     1     -18.681  23.000  -6.260  1.00  0.00     0.010 C
ENDROOT
BRANCH   1   3
HETATM    3  C4  UNL     1     -21.079  23.096  -5.615  1.00  0.00     0.208 C
HETATM    4  O1  UNL     1     -21.845  22.318  -6.295  1.00  0.00    -0.281 OA
BRANCH   3   5
HETATM    5  S1  UNL     1     -21.556  23.585  -3.976  1.00  0.00    -0.084 SA
BRANCH   5   6
HETATM    6  C3  UNL     1     -20.249  23.082  -2.828  1.00  0.00     0.121 C
BRANCH   6   7
HETATM    7  C2  UNL     1     -19.342  24.248  -2.658  1.00  0.00    -0.041 C
HETATM    8  C1  UNL     1     -19.705  25.466  -2.928  1.00  0.00     0.021 C
BRANCH   7   9
HETATM    9  C12 UNL     1     -17.981  23.942  -2.157  1.00  0.00     0.011 A
HETATM   10  C13 UNL     1     -16.955  23.344  -2.838  1.00  0.00     0.020 A
HETATM   11  C14 UNL     1     -15.802  23.165  -2.180  1.00  0.00     0.008 A
HETATM   12  C15 UNL     1     -15.742  23.593  -0.883  1.00  0.00     0.050 A
HETATM   13  S2  UNL     1     -17.299  24.233  -0.621  1.00  0.00    -0.102 SA
ENDBRANCH   7   9
ENDBRANCH   6   7
ENDBRANCH   5   6
ENDBRANCH   3   5
ENDBRANCH   1   3
BRANCH   2  14
HETATM   14  C7  UNL     1     -18.359  21.689  -5.727  1.00  0.00     0.211 C
HETATM   15  C8  UNL     1     -18.787  20.526  -6.665  1.00  0.00     0.070 C
HETATM   16  C9  UNL     1     -17.581  19.859  -6.041  1.00  0.00     0.199 C
HETATM   17  N1  UNL     1     -16.993  21.198  -5.968  1.00  0.00    -0.063 N
ATOM     18  H12 UNL     1     -16.419  21.570  -6.725  1.00  0.00     0.278 HD
ATOM     19  H11 UNL     1     -16.229  21.410  -5.327  1.00  0.00     0.278 HD
BRANCH  16  20
HETATM   20  C10 UNL     1     -16.849  18.902  -6.921  1.00  0.00     0.146 C
BRANCH  20  21
HETATM   21  C11 UNL     1     -15.615  18.465  -6.249  1.00  0.00     0.174 C
HETATM   22  O2  UNL     1     -15.485  18.612  -5.021  1.00  0.00    -0.648 OA
HETATM   23  O3  UNL     1     -14.603  17.893  -6.985  1.00  0.00    -0.648 OA
ENDBRANCH  20  21
ENDBRANCH  16  20
ENDBRANCH   2  14
TORSDOF 8
ENDMDL