MODEL 4
REMARK VINA RESULT: -8.041384253      1.261      1.589
REMARK  9 active torsions:
REMARK  status: ('A' for Active; 'I' for Inactive)
REMARK    1  A    between atoms: C2_2  and  N1_3
REMARK    2  A    between atoms: C8_10  and  C9_11
REMARK    3  A    between atoms: C9_11  and  C10_12
REMARK    4  A    between atoms: C10_12  and  C11_13
REMARK    5  A    between atoms: C11_13  and  C12_14
REMARK    6  A    between atoms: C12_14  and  C13_15
REMARK    7  A    between atoms: C13_15  and  C14_16
REMARK    8  A    between atoms: C14_16  and  O2_17
REMARK    9  A    between atoms: N2_19  and  O3_21
ROOT
HETATM    1  N1  UNL     1     -21.804  24.091  -3.981  1.00  0.00     0.119 N
HETATM    2  C3  UNL     1     -22.171  22.783  -4.395  1.00  0.00     0.290 C
HETATM    3  C4  UNL     1     -21.104  21.986  -5.051  1.00  0.00     0.079 C
HETATM    4  C5  UNL     1     -20.582  22.482  -6.328  1.00  0.00     0.129 C
HETATM    5  O1  UNL     1     -21.381  23.421  -6.980  1.00  0.00    -0.377 OA
HETATM    6  C6  UNL     1     -21.203  24.620  -6.282  1.00  0.00     0.166 C
HETATM    7  C7  UNL     1     -19.817  24.570  -5.680  1.00  0.00     0.042 C
HETATM    8  C8  UNL     1     -19.295  23.261  -6.243  1.00  0.00     0.017 C
HETATM    9  C15 UNL     1     -22.277  24.674  -5.225  1.00  0.00     0.316 C
HETATM   10  S1  UNL     1     -23.489  23.332  -5.443  1.00  0.00    -0.095 SA
ENDROOT
BRANCH   8  11
HETATM   11  C9  UNL     1     -18.238  22.642  -5.436  1.00  0.00     0.007 C
BRANCH  11  12
HETATM   12  C10 UNL     1     -17.434  21.666  -6.242  1.00  0.00     0.000 C
BRANCH  12  13
HETATM   13  C11 UNL     1     -17.867  20.256  -5.852  1.00  0.00     0.000 C
BRANCH  13  14
HETATM   14  C12 UNL     1     -17.900  19.364  -7.085  1.00  0.00     0.008 C
BRANCH  14  15
HETATM   15  C13 UNL     1     -17.241  18.046  -6.897  1.00  0.00     0.086 C
BRANCH  15  16
HETATM   16  C14 UNL     1     -15.863  18.061  -6.412  1.00  0.00     0.135 C
HETATM   17  N2  UNL     1     -14.884  18.008  -7.259  1.00  0.00    -0.251 N
ATOM     18  H2  UNL     1     -15.097  17.956  -8.255  1.00  0.00     0.196 HD
BRANCH  16  19
HETATM   19  O2  UNL     1     -15.504  18.130  -5.070  1.00  0.00    -0.348 OA
ATOM     20  H2  UNL     1     -15.281  18.933  -4.615  1.00  0.00     0.219 HD
ENDBRANCH  16  19
BRANCH  17  21
HETATM   21  O3  UNL     1     -13.575  18.018  -6.866  1.00  0.00    -0.288 OA
ATOM     22  H3  UNL     1     -12.864  17.810  -7.460  1.00  0.00     0.244 HD
ENDBRANCH  17  21
ENDBRANCH  15  16
ENDBRANCH  14  15
ENDBRANCH  13  14
ENDBRANCH  12  13
ENDBRANCH  11  12
ENDBRANCH   8  11
BRANCH   1  23
HETATM   23  C2  UNL     1     -22.665  24.585  -2.894  1.00  0.00     0.271 C
HETATM   24  C1  UNL     1     -22.646  26.074  -2.790  1.00  0.00     0.037 C
ENDBRANCH   1  23
TORSDOF 9
ENDMDL