MODEL 3
REMARK VINA RESULT: -7.042858498      7.082     10.885
REMARK  9 active torsions:
REMARK  status: ('A' for Active; 'I' for Inactive)
REMARK    1  A    between atoms: C2_2  and  C4_4
REMARK    2  A    between atoms: C4_4  and  C5_5
REMARK    3  A    between atoms: C5_5  and  C6_6
REMARK    4  A    between atoms: C7_7  and  C8_8
REMARK    5  A    between atoms: C8_8  and  C9_9
REMARK    6  A    between atoms: C10_10  and  O1_11
REMARK    7  A    between atoms: C12_14  and  C13_15
REMARK    8  A    between atoms: C14_16  and  C15_17
REMARK    9  A    between atoms: C19_24  and  O3_25
ROOT
HETATM    1  C9  UNL     1     -15.614  23.903  -1.901  1.00  0.00     0.046 C
HETATM    2  C10 UNL     1     -16.216  23.562  -0.601  1.00  0.00     0.125 C
HETATM    3  C11 UNL     1     -15.383  23.943   0.601  1.00  0.00     0.040 C
HETATM    4  C12 UNL     1     -14.014  23.328   0.395  1.00  0.00     0.013 C
HETATM    5  C18 UNL     1     -13.391  24.111  -0.731  1.00  0.00     0.040 C
HETATM    6  C19 UNL     1     -14.132  23.830  -2.010  1.00  0.00     0.125 C
ENDROOT
BRANCH   1   7
HETATM    7  C8  UNL     1     -16.189  22.938  -2.955  1.00  0.00     0.036 C
BRANCH   7   8
HETATM    8  C7  UNL     1     -17.542  23.377  -3.308  1.00  0.00    -0.030 C
HETATM    9  C6  UNL     1     -18.143  23.059  -4.414  1.00  0.00    -0.031 C
BRANCH   9  10
HETATM   10  C5  UNL     1     -17.573  22.225  -5.468  1.00  0.00     0.027 C
BRANCH  10  11
HETATM   11  C4  UNL     1     -18.470  21.025  -5.711  1.00  0.00     0.007 C
BRANCH  11  12
HETATM   12  C2  UNL     1     -17.604  19.806  -5.901  1.00  0.00    -0.023 C
HETATM   13  C1  UNL     1     -16.128  20.212  -5.796  1.00  0.00     0.009 C
HETATM   14  C3  UNL     1     -17.900  19.228  -7.269  1.00  0.00     0.009 C
ENDBRANCH  11  12
ENDBRANCH  10  11
ENDBRANCH   9  10
ENDBRANCH   7   8
ENDBRANCH   1   7
BRANCH   2  15
HETATM   15  O1  UNL     1     -16.564  22.221  -0.437  1.00  0.00    -0.395 OA
ATOM     16  H1  UNL     1     -16.744  21.954   0.456  1.00  0.00     0.210 HD
ENDBRANCH   2  15
BRANCH   6  17
HETATM   17  O3  UNL     1     -13.697  22.584  -2.469  1.00  0.00    -0.395 OA
ATOM     18  H3  UNL     1     -12.753  22.490  -2.411  1.00  0.00     0.210 HD
ENDBRANCH   6  17
BRANCH   4  19
HETATM   19  C13 UNL     1     -13.199  23.376   1.633  1.00  0.00    -0.018 C
HETATM   20  C14 UNL     1     -12.820  22.315   2.286  1.00  0.00     0.052 C
BRANCH  20  21
HETATM   21  C15 UNL     1     -12.018  22.451   3.497  1.00  0.00     0.137 C
HETATM   22  N1  UNL     1     -11.923  21.584   4.435  1.00  0.00    -0.369 N
HETATM   23  C16 UNL     1     -11.040  22.091   5.447  1.00  0.00     0.148 C
ATOM     24  H1  UNL     1     -12.396  20.680   4.459  1.00  0.00     0.161 HD
HETATM   25  C17 UNL     1     -11.075  23.583   5.213  1.00  0.00     0.197 C
HETATM   26  O2  UNL     1     -11.235  23.586   3.782  1.00  0.00    -0.334 OA
ENDBRANCH  20  21
ENDBRANCH   4  19
TORSDOF 9
ENDMDL