MODEL 2
REMARK VINA RESULT: -6.877457454      1.274      1.641
REMARK  7 active torsions:
REMARK  status: ('A' for Active; 'I' for Inactive)
REMARK    1  A    between atoms: C2_2  and  C3_3
REMARK    2  A    between atoms: C3_3  and  C4_4
REMARK    3  A    between atoms: C4_4  and  S1_5
REMARK    4  A    between atoms: C4_4  and  C9_18
REMARK    5  A    between atoms: S1_5  and  C5_6
REMARK    6  A    between atoms: C6_9  and  C7_10
REMARK       I    between atoms: C9_18  and  N5_20
REMARK    7  A    between atoms: N5_20  and  C10_22
ROOT
HETATM    1  C7  UNL     1     -15.214  23.300  -0.952  1.00  0.00     0.296 C
HETATM    2  O1  UNL     1     -15.131  22.821   0.192  1.00  0.00    -0.272 OA
HETATM    3  C8  UNL     1     -14.069  23.336  -1.789  1.00  0.00     0.147 C
HETATM    4  N2  UNL     1     -13.122  23.349  -2.465  1.00  0.00    -0.188 NA
ENDROOT
BRANCH   1   5
HETATM    5  C6  UNL     1     -16.492  23.816  -1.412  1.00  0.00     0.184 A
HETATM    6  N1  UNL     1     -17.124  23.620  -2.566  1.00  0.00    -0.317 N
HETATM    7  C5  UNL     1     -18.301  24.290  -2.591  1.00  0.00     0.161 A
ATOM      8  H1  UNL     1     -16.770  23.043  -3.329  1.00  0.00     0.169 HD
HETATM    9  N4  UNL     1     -18.363  24.907  -1.402  1.00  0.00    -0.278 N
HETATM   10  N3  UNL     1     -17.291  24.625  -0.703  1.00  0.00    -0.280 N
ATOM     11  H4  UNL     1     -19.128  25.504  -1.089  1.00  0.00     0.189 HD
ATOM     12  H3  UNL     1     -17.095  24.969   0.237  1.00  0.00     0.189 HD
BRANCH   7  13
HETATM   13  S1  UNL     1     -19.486  24.311  -3.910  1.00  0.00    -0.078 SA
BRANCH  13  14
HETATM   14  C4  UNL     1     -19.914  22.739  -4.578  1.00  0.00     0.147 C
BRANCH  14  15
HETATM   15  C3  UNL     1     -20.265  21.643  -3.627  1.00  0.00     0.025 C
BRANCH  15  16
HETATM   16  C2  UNL     1     -21.707  21.405  -3.464  1.00  0.00    -0.003 C
HETATM   17  C1  UNL     1     -22.024  20.507  -2.271  1.00  0.00     0.005 C
ENDBRANCH  15  16
ENDBRANCH  14  15
BRANCH  14  18
HETATM   18  C9  UNL     1     -18.915  22.228  -5.566  1.00  0.00     0.232 C
HETATM   19  O2  UNL     1     -18.609  22.974  -6.518  1.00  0.00    -0.272 OA
HETATM   20  N5  UNL     1     -18.314  20.951  -5.464  1.00  0.00    -0.355 N
ATOM     21  H5  UNL     1     -18.571  20.349  -4.682  1.00  0.00     0.162 HD
BRANCH  20  22
HETATM   22  C10 UNL     1     -17.357  20.471  -6.418  1.00  0.00     0.084 C
HETATM   23  C11 UNL     1     -16.053  20.037  -5.836  1.00  0.00     0.025 C
HETATM   24  C12 UNL     1     -15.889  18.568  -6.101  1.00  0.00     0.002 C
HETATM   25  C13 UNL     1     -17.136  18.096  -6.810  1.00  0.00     0.002 C
HETATM   26  C14 UNL     1     -17.885  19.320  -7.244  1.00  0.00     0.025 C
ENDBRANCH  20  22
ENDBRANCH  14  18
ENDBRANCH  13  14
ENDBRANCH   7  13
ENDBRANCH   1   5
TORSDOF 7
ENDMDL