MODEL 2
REMARK VINA RESULT: -6.863323972      1.786      2.041
REMARK  9 active torsions:
REMARK  status: ('A' for Active; 'I' for Inactive)
REMARK    1  A    between atoms: C2_2  and  C3_3
REMARK    2  A    between atoms: C3_3  and  C4_4
REMARK    3  A    between atoms: C3_3  and  C6_6
REMARK    4  A    between atoms: C6_6  and  C7_7
REMARK    5  A    between atoms: C7_7  and  C8_8
REMARK    6  A    between atoms: C7_7  and  N1_12
REMARK    7  A    between atoms: C8_8  and  C9_9
REMARK    8  A    between atoms: C9_9  and  O1_10
REMARK    9  A    between atoms: N1_12  and  N2_13
REMARK       I    between atoms: N2_13  and  C10_14
REMARK       I    between atoms: C10_14  and  N3_16
ROOT
HETATM    1  N2  UNL     1     -17.094  22.982  -3.587  1.00  0.00    -0.185 NA
HETATM    2  C10 UNL     1     -16.474  23.328  -2.401  1.00  0.00     0.429 C
HETATM    3  O2  UNL     1     -15.296  23.011  -2.071  1.00  0.00    -0.227 OA
HETATM    4  N3  UNL     1     -17.184  24.128  -1.400  1.00  0.00    -0.286 N
HETATM    5  C11 UNL     1     -18.507  24.653  -1.642  1.00  0.00     0.199 C
HETATM    6  C12 UNL     1     -19.558  23.672  -1.395  1.00  0.00     0.085 C
HETATM    7  N4  UNL     1     -20.399  22.894  -1.182  1.00  0.00    -0.195 NA
HETATM    8  C13 UNL     1     -18.631  25.789  -0.614  1.00  0.00     0.043 C
HETATM    9  C14 UNL     1     -17.923  25.180   0.564  1.00  0.00     0.043 C
HETATM   10  C15 UNL     1     -16.744  24.480  -0.080  1.00  0.00     0.199 C
HETATM   11  C16 UNL     1     -16.504  23.182   0.608  1.00  0.00     0.085 C
HETATM   12  N5  UNL     1     -16.300  22.170   1.125  1.00  0.00    -0.195 NA
ENDROOT
BRANCH   1  13
HETATM   13  N1  UNL     1     -17.658  22.669  -4.666  1.00  0.00    -0.253 NA
BRANCH  13  14
HETATM   14  C7  UNL     1     -18.015  22.107  -5.660  1.00  0.00     0.104 C
BRANCH  14  15
HETATM   15  C6  UNL     1     -17.207  21.136  -6.396  1.00  0.00     0.076 C
BRANCH  15  16
HETATM   16  C3  UNL     1     -16.841  19.837  -5.811  1.00  0.00    -0.009 C
BRANCH  16  17
HETATM   17  C2  UNL     1     -15.414  19.446  -5.730  1.00  0.00     0.000 C
HETATM   18  C1  UNL     1     -15.086  18.196  -6.506  1.00  0.00     0.005 C
ENDBRANCH  16  17
BRANCH  16  19
HETATM   19  C4  UNL     1     -17.550  18.685  -6.582  1.00  0.00     0.000 C
HETATM   20  C5  UNL     1     -18.209  19.145  -7.836  1.00  0.00     0.005 C
ENDBRANCH  16  19
ENDBRANCH  15  16
ENDBRANCH  14  15
BRANCH  14  21
HETATM   21  C8  UNL     1     -19.383  22.483  -6.165  1.00  0.00     0.097 C
BRANCH  21  22
HETATM   22  C9  UNL     1     -20.457  21.664  -5.457  1.00  0.00     0.171 C
BRANCH  22  23
HETATM   23  O1  UNL     1     -20.172  21.569  -4.093  1.00  0.00    -0.400 OA
ATOM     24  H1  UNL     1     -20.442  22.361  -3.645  1.00  0.00     0.209 HD
ENDBRANCH  22  23
ENDBRANCH  21  22
ENDBRANCH  14  21
ENDBRANCH  13  14
ENDBRANCH   1  13
TORSDOF 9
ENDMDL