MODEL 1
REMARK VINA RESULT: -6.450010114      0.000      0.000
REMARK  9 active torsions:
REMARK  status: ('A' for Active; 'I' for Inactive)
REMARK    1  A    between atoms: C2_2  and  C3_3
REMARK    2  A    between atoms: C3_3  and  N1_4
REMARK    3  A    between atoms: C4_5  and  O1_6
REMARK    4  A    between atoms: C5_8  and  O2_9
REMARK    5  A    between atoms: C6_11  and  O3_12
REMARK    6  A    between atoms: O3_12  and  C7_13
REMARK    7  A    between atoms: C7_13  and  C8_14
REMARK    8  A    between atoms: C8_14  and  C9_15
REMARK    9  A    between atoms: C15_22  and  C16_23
ROOT
HETATM    1  N1  UNL     1     -21.247  25.703  -4.627  1.00  0.00    -0.323 N
HETATM    2  C4  UNL     1     -22.189  25.660  -5.625  1.00  0.00     0.180 A
HETATM    3  C5  UNL     1     -21.830  24.695  -6.523  1.00  0.00     0.153 A
HETATM    4  C6  UNL     1     -20.670  24.124  -6.104  1.00  0.00     0.129 A
HETATM    5  C15 UNL     1     -20.325  24.792  -4.891  1.00  0.00     0.054 A
ENDROOT
BRANCH   4   6
HETATM    6  O3  UNL     1     -19.996  23.113  -6.744  1.00  0.00    -0.346 OA
BRANCH   6   7
HETATM    7  C7  UNL     1     -20.326  21.745  -6.629  1.00  0.00     0.176 C
BRANCH   7   8
HETATM    8  C8  UNL     1     -19.317  21.091  -5.726  1.00  0.00     0.031 C
BRANCH   8   9
HETATM    9  C9  UNL     1     -17.996  21.005  -6.410  1.00  0.00    -0.009 C
HETATM   10  C10 UNL     1     -16.883  21.192  -5.386  1.00  0.00     0.035 C
HETATM   11  C11 UNL     1     -15.691  20.339  -5.691  1.00  0.00     0.272 C
HETATM   12  N2  UNL     1     -16.003  18.923  -5.689  1.00  0.00     0.084 N
HETATM   13  C12 UNL     1     -15.135  18.275  -6.651  1.00  0.00     0.309 C
HETATM   14  C13 UNL     1     -17.389  18.677  -6.051  1.00  0.00     0.272 C
HETATM   15  C14 UNL     1     -17.807  19.681  -7.107  1.00  0.00     0.035 C
ENDBRANCH   8   9
ENDBRANCH   7   8
ENDBRANCH   6   7
ENDBRANCH   4   6
BRANCH   3  16
HETATM   16  O2  UNL     1     -22.540  24.346  -7.689  1.00  0.00    -0.354 OA
ATOM     17  H2  UNL     1     -22.600  23.476  -8.065  1.00  0.00     0.218 HD
ENDBRANCH   3  16
BRANCH   5  18
HETATM   18  C16 UNL     1     -19.088  24.350  -4.222  1.00  0.00     0.039 A
HETATM   19  C17 UNL     1     -18.746  24.616  -2.777  1.00  0.00     0.011 A
HETATM   20  C18 UNL     1     -19.153  23.250  -3.208  1.00  0.00     0.011 A
ENDBRANCH   5  18
BRANCH   2  21
HETATM   21  O1  UNL     1     -23.298  26.482  -5.666  1.00  0.00    -0.344 OA
ATOM     22  H1  UNL     1     -23.889  26.606  -4.932  1.00  0.00     0.219 HD
ENDBRANCH   2  21
BRANCH   1  23
HETATM   23  C3  UNL     1     -21.338  26.622  -3.497  1.00  0.00     0.157 C
BRANCH  23  24
HETATM   24  C2  UNL     1     -20.531  27.828  -3.683  1.00  0.00    -0.017 C
HETATM   25  C1  UNL     1     -19.591  28.192  -2.833  1.00  0.00     0.008 C
ENDBRANCH  23  24
ENDBRANCH   1  23
TORSDOF 9
ENDMDL