MODEL 3
REMARK VINA RESULT: -6.561111090      4.024      7.697
REMARK  9 active torsions:
REMARK  status: ('A' for Active; 'I' for Inactive)
REMARK    1  A    between atoms: C2_2  and  C3_3
REMARK    2  A    between atoms: C3_3  and  O1_4
REMARK    3  A    between atoms: O1_4  and  C4_5
REMARK       I    between atoms: C4_5  and  N1_7
REMARK    4  A    between atoms: N1_7  and  C5_9
REMARK    5  A    between atoms: C5_9  and  C7_11
REMARK    6  A    between atoms: C7_11  and  S1_12
REMARK    7  A    between atoms: S1_12  and  C8_13
REMARK    8  A    between atoms: C8_13  and  C9_14
REMARK       I    between atoms: C9_14  and  N2_16
REMARK    9  A    between atoms: N2_16  and  C10_18
ROOT
HETATM    1  S1  UNL     1     -20.439  24.480  -6.099  1.00  0.00    -0.158 SA
ENDROOT
BRANCH   1   2
HETATM    2  C7  UNL     1     -21.526  25.351  -4.993  1.00  0.00     0.099 C
BRANCH   2   3
HETATM    3  C5  UNL     1     -21.531  24.901  -3.575  1.00  0.00     0.092 C
HETATM    4  C6  UNL     1     -22.540  23.806  -3.321  1.00  0.00     0.033 C
BRANCH   3   5
HETATM    5  N1  UNL     1     -20.211  24.276  -3.349  1.00  0.00    -0.332 N
HETATM    6  C4  UNL     1     -19.257  24.892  -2.493  1.00  0.00     0.360 C
HETATM    7  O2  UNL     1     -19.504  25.969  -1.914  1.00  0.00    -0.239 OA
ATOM      8  H1  UNL     1     -19.983  23.395  -3.810  1.00  0.00     0.165 HD
BRANCH   6   9
HETATM    9  O1  UNL     1     -18.017  24.314  -2.275  1.00  0.00    -0.304 OA
BRANCH   9  10
HETATM   10  C3  UNL     1     -17.428  23.374  -3.153  1.00  0.00     0.180 C
BRANCH  10  11
HETATM   11  C2  UNL     1     -16.085  23.004  -2.560  1.00  0.00     0.022 C
HETATM   12  C1  UNL     1     -16.047  23.406  -1.110  1.00  0.00     0.007 C
ENDBRANCH  10  11
ENDBRANCH   9  10
ENDBRANCH   6   9
ENDBRANCH   3   5
ENDBRANCH   2   3
ENDBRANCH   1   2
BRANCH   1  13
HETATM   13  C8  UNL     1     -20.906  22.816  -6.513  1.00  0.00     0.176 C
BRANCH  13  14
HETATM   14  C9  UNL     1     -19.975  21.813  -5.935  1.00  0.00     0.227 C
HETATM   15  O3  UNL     1     -20.030  21.516  -4.716  1.00  0.00    -0.273 OA
HETATM   16  N2  UNL     1     -19.000  21.162  -6.738  1.00  0.00    -0.356 N
ATOM     17  H2  UNL     1     -18.945  21.394  -7.730  1.00  0.00     0.162 HD
BRANCH  16  18
HETATM   18  C10 UNL     1     -18.082  20.180  -6.196  1.00  0.00     0.084 C
HETATM   19  C11 UNL     1     -16.787  20.903  -5.892  1.00  0.00     0.025 C
HETATM   20  C12 UNL     1     -15.617  19.993  -5.744  1.00  0.00     0.002 C
HETATM   21  C13 UNL     1     -15.952  18.540  -5.689  1.00  0.00     0.000 C
HETATM   22  C14 UNL     1     -16.889  18.081  -6.763  1.00  0.00     0.002 C
HETATM   23  C15 UNL     1     -17.786  19.167  -7.273  1.00  0.00     0.025 C
ENDBRANCH  16  18
ENDBRANCH  13  14
ENDBRANCH   1  13
TORSDOF 9
ENDMDL