MODEL 4
REMARK VINA RESULT: -6.933281035      4.404      7.328
REMARK  9 active torsions:
REMARK  status: ('A' for Active; 'I' for Inactive)
REMARK    1  A    between atoms: C8_9  and  O2_10
REMARK    2  A    between atoms: C12_16  and  O4_17
REMARK    3  A    between atoms: O4_17  and  C13_18
REMARK    4  A    between atoms: C13_18  and  C14_19
REMARK    5  A    between atoms: C14_19  and  C15_20
REMARK    6  A    between atoms: C15_20  and  C16_21
REMARK    7  A    between atoms: C16_21  and  C17_22
REMARK    8  A    between atoms: C17_22  and  C18_23
REMARK    9  A    between atoms: C18_23  and  O5_24
ROOT
HETATM    1  C1  UNL     1     -12.778  23.049   1.686  1.00  0.00     0.017 C
HETATM    2  C2  UNL     1     -13.953  23.020   1.101  1.00  0.00    -0.051 C
HETATM    3  C3  UNL     1     -15.032  22.211   1.722  1.00  0.00     0.039 C
HETATM    4  C4  UNL     1     -16.401  22.613   1.234  1.00  0.00     0.039 C
HETATM    5  C5  UNL     1     -16.406  23.107  -0.198  1.00  0.00     0.160 C
HETATM    6  O1  UNL     1     -15.194  22.993  -0.833  1.00  0.00    -0.362 OA
HETATM    7  C6  UNL     1     -14.251  23.762  -0.157  1.00  0.00     0.130 C
HETATM    8  C7  UNL     1     -12.986  23.750  -0.991  1.00  0.00     0.056 C
HETATM    9  C8  UNL     1     -14.741  25.155   0.136  1.00  0.00     0.296 C
HETATM   10  O3  UNL     1     -15.949  25.471  -0.400  1.00  0.00    -0.342 OA
HETATM   11  C9  UNL     1     -16.934  24.514  -0.304  1.00  0.00     0.116 C
HETATM   12  C10 UNL     1     -18.017  24.846   0.710  1.00  0.00     0.046 C
HETATM   13  C11 UNL     1     -18.648  25.668  -0.387  1.00  0.00     0.038 C
HETATM   14  C12 UNL     1     -17.981  24.756  -1.368  1.00  0.00     0.158 C
ENDROOT
BRANCH  14  15
HETATM   15  O4  UNL     1     -18.577  23.624  -1.752  1.00  0.00    -0.383 OA
BRANCH  15  16
HETATM   16  C13 UNL     1     -18.820  23.387  -3.084  1.00  0.00     0.168 C
BRANCH  16  17
HETATM   17  C14 UNL     1     -17.621  22.916  -3.862  1.00  0.00     0.026 C
BRANCH  17  18
HETATM   18  C15 UNL     1     -17.986  22.657  -5.295  1.00  0.00     0.002 C
BRANCH  18  19
HETATM   19  C16 UNL     1     -17.700  21.267  -5.734  1.00  0.00     0.002 C
BRANCH  19  20
HETATM   20  C17 UNL     1     -16.257  20.886  -5.414  1.00  0.00     0.026 C
BRANCH  20  21
HETATM   21  C18 UNL     1     -15.951  19.473  -5.812  1.00  0.00     0.164 C
BRANCH  21  22
HETATM   22  O5  UNL     1     -14.560  19.356  -5.847  1.00  0.00    -0.401 OA
ATOM     23  H5  UNL     1     -14.352  18.468  -5.582  1.00  0.00     0.209 HD
ENDBRANCH  21  22
ENDBRANCH  20  21
ENDBRANCH  19  20
ENDBRANCH  18  19
ENDBRANCH  17  18
ENDBRANCH  16  17
ENDBRANCH  15  16
ENDBRANCH  14  15
BRANCH   9  24
HETATM   24  O2  UNL     1     -14.654  25.360   1.509  1.00  0.00    -0.368 OA
ATOM     25  H2  UNL     1     -13.838  24.979   1.810  1.00  0.00     0.212 HD
ENDBRANCH   9  24
TORSDOF 9
ENDMDL