MODEL 3
REMARK VINA RESULT: -6.160993806      1.423      1.979
REMARK  9 active torsions:
REMARK  status: ('A' for Active; 'I' for Inactive)
REMARK    1  A    between atoms: C2_2  and  N1_3
REMARK    2  A    between atoms: C5_6  and  N2_7
REMARK    3  A    between atoms: N2_7  and  C6_9
REMARK    4  A    between atoms: C6_9  and  C7_10
REMARK    5  A    between atoms: C7_10  and  C8_11
REMARK    6  A    between atoms: C8_11  and  S1_12
REMARK    7  A    between atoms: S1_12  and  C9_13
REMARK    8  A    between atoms: C9_13  and  N3_15
REMARK    9  A    between atoms: N3_15  and  C10_17
ROOT
HETATM    1  C10 UNL     1     -17.571  19.575  -6.507  1.00  0.00     0.186 C
HETATM    2  C11 UNL     1     -17.524  18.978  -7.898  1.00  0.00     0.048 C
HETATM    3  C12 UNL     1     -16.352  19.144  -5.827  1.00  0.00     0.084 C
HETATM    4  N4  UNL     1     -15.373  18.797  -5.303  1.00  0.00    -0.195 NA
ENDROOT
BRANCH   1   5
HETATM    5  N3  UNL     1     -17.570  21.031  -6.631  1.00  0.00    -0.359 N
ATOM      6  H3  UNL     1     -16.894  21.484  -7.245  1.00  0.00     0.162 HD
BRANCH   5   7
HETATM    7  C9  UNL     1     -18.495  21.817  -5.911  1.00  0.00     0.135 C
HETATM    8  S2  UNL     1     -20.060  21.779  -6.328  1.00  0.00    -0.053 SA
BRANCH   7   9
HETATM    9  S1  UNL     1     -17.981  22.841  -4.567  1.00  0.00    -0.101 SA
BRANCH   9  10
HETATM   10  C8  UNL     1     -19.131  24.197  -4.280  1.00  0.00     0.083 C
BRANCH  10  11
HETATM   11  C7  UNL     1     -18.949  24.710  -2.877  1.00  0.00     0.030 C
BRANCH  11  12
HETATM   12  C6  UNL     1     -17.868  23.903  -2.142  1.00  0.00     0.115 C
BRANCH  12  13
HETATM   13  N2  UNL     1     -17.459  24.657  -1.021  1.00  0.00    -0.417 N
ATOM     14  H2  UNL     1     -18.025  25.427  -0.663  1.00  0.00     0.153 HD
BRANCH  13  15
HETATM   15  C5  UNL     1     -16.232  24.299  -0.413  1.00  0.00     0.079 C
HETATM   16  C4  UNL     1     -15.133  23.932  -1.391  1.00  0.00     0.055 C
HETATM   17  C3  UNL     1     -14.046  23.287  -0.532  1.00  0.00     0.274 C
HETATM   18  N1  UNL     1     -13.473  24.220   0.406  1.00  0.00     0.088 N
HETATM   19  C14 UNL     1     -14.452  24.915   1.200  1.00  0.00     0.274 C
HETATM   20  C13 UNL     1     -15.640  25.409   0.445  1.00  0.00     0.055 C
BRANCH  18  21
HETATM   21  C2  UNL     1     -12.674  23.419   1.317  1.00  0.00     0.268 C
HETATM   22  C1  UNL     1     -13.349  22.193   1.823  1.00  0.00     0.037 C
ENDBRANCH  18  21
ENDBRANCH  13  15
ENDBRANCH  12  13
ENDBRANCH  11  12
ENDBRANCH  10  11
ENDBRANCH   9  10
ENDBRANCH   7   9
ENDBRANCH   5   7
ENDBRANCH   1   5
TORSDOF 9
ENDMDL