MODEL 5
REMARK VINA RESULT: -6.774684050      1.491      7.751
REMARK  9 active torsions:
REMARK  status: ('A' for Active; 'I' for Inactive)
REMARK    1  A    between atoms: C2_2  and  C3_3
REMARK    2  A    between atoms: C3_3  and  N1_4
REMARK    3  A    between atoms: N1_4  and  C5_6
REMARK    4  A    between atoms: C5_6  and  N2_7
REMARK    5  A    between atoms: C7_9  and  C8_10
REMARK    6  A    between atoms: C9_11  and  C10_12
REMARK    7  A    between atoms: C10_12  and  O1_13
REMARK    8  A    between atoms: C10_12  and  N3_15
REMARK    9  A    between atoms: C18_23  and  O2_24
ROOT
HETATM    1  N2  UNL     1     -17.087  24.044  -0.582  1.00  0.00    -0.303 N
HETATM    2  C6  UNL     1     -16.959  23.403  -1.785  1.00  0.00     0.111 A
HETATM    3  C7  UNL     1     -17.891  23.889  -2.643  1.00  0.00    -0.016 A
HETATM    4  C17 UNL     1     -18.620  24.842  -1.997  1.00  0.00     0.069 A
HETATM    5  C18 UNL     1     -18.095  24.919  -0.708  1.00  0.00     0.147 A
ENDROOT
BRANCH   3   6
HETATM    6  C8  UNL     1     -18.133  23.491  -4.049  1.00  0.00     0.013 C
HETATM    7  C9  UNL     1     -17.628  22.393  -4.560  1.00  0.00     0.037 C
BRANCH   7   8
HETATM    8  C10 UNL     1     -17.902  22.054  -5.959  1.00  0.00     0.380 C
BRANCH   8   9
HETATM    9  O1  UNL     1     -19.207  21.573  -6.039  1.00  0.00    -0.365 OA
ATOM     10  H1  UNL     1     -19.330  21.199  -6.904  1.00  0.00     0.212 HD
ENDBRANCH   8   9
BRANCH   8  11
HETATM   11  N3  UNL     1     -16.952  21.111  -6.509  1.00  0.00     0.120 N
HETATM   12  C11 UNL     1     -17.657  20.154  -7.320  1.00  0.00     0.276 C
HETATM   13  C12 UNL     1     -18.137  18.938  -6.616  1.00  0.00     0.030 C
HETATM   14  C13 UNL     1     -17.147  17.798  -6.748  1.00  0.00     0.002 C
HETATM   15  C14 UNL     1     -15.923  18.023  -5.919  1.00  0.00     0.002 C
HETATM   16  C15 UNL     1     -15.329  19.400  -6.098  1.00  0.00     0.030 C
HETATM   17  C16 UNL     1     -16.144  20.491  -5.482  1.00  0.00     0.276 C
ENDBRANCH   8  11
ENDBRANCH   7   8
ENDBRANCH   3   6
BRANCH   1  18
HETATM   18  C5  UNL     1     -16.319  23.839   0.612  1.00  0.00     0.160 C
BRANCH  18  19
HETATM   19  N1  UNL     1     -14.990  23.373   0.420  1.00  0.00    -0.280 NA
HETATM   20  C4  UNL     1     -14.492  22.673   1.583  1.00  0.00     0.117 C
BRANCH  19  21
HETATM   21  C3  UNL     1     -14.089  24.466   0.135  1.00  0.00     0.122 C
BRANCH  21  22
HETATM   22  C2  UNL     1     -13.077  24.163  -0.875  1.00  0.00    -0.022 C
HETATM   23  C1  UNL     1     -13.430  23.684  -2.051  1.00  0.00     0.008 C
ENDBRANCH  21  22
ENDBRANCH  19  21
ENDBRANCH  18  19
ENDBRANCH   1  18
BRANCH   5  24
HETATM   24  O2  UNL     1     -18.599  25.795   0.238  1.00  0.00    -0.346 OA
ATOM     25  H2  UNL     1     -19.192  25.611   0.957  1.00  0.00     0.219 HD
ENDBRANCH   5  24
TORSDOF 9
ENDMDL