MODEL 5
REMARK VINA RESULT: -5.737912378      4.679      7.108
REMARK  8 active torsions:
REMARK  status: ('A' for Active; 'I' for Inactive)
REMARK    1  A    between atoms: C2_2  and  C3_3
REMARK    2  A    between atoms: C2_2  and  C5_5
REMARK    3  A    between atoms: C5_5  and  C6_6
REMARK    4  A    between atoms: C5_5  and  C9_10
REMARK    5  A    between atoms: C6_6  and  C7_7
REMARK    6  A    between atoms: C7_7  and  S1_8
REMARK    7  A    between atoms: C9_10  and  O1_11
REMARK    8  A    between atoms: C9_10  and  N1_13
ROOT
HETATM    1  C9  UNL     1     -20.313  21.926  -5.900  1.00  0.00     0.226 C
ENDROOT
BRANCH   1   2
HETATM    2  C5  UNL     1     -19.060  22.778  -6.021  1.00  0.00     0.063 C
BRANCH   2   3
HETATM    3  C2  UNL     1     -17.831  22.060  -5.620  1.00  0.00    -0.081 C
HETATM    4  C1  UNL     1     -17.308  22.410  -4.419  1.00  0.00     0.015 C
BRANCH   3   5
HETATM    5  C3  UNL     1     -17.168  20.999  -6.387  1.00  0.00     0.029 C
HETATM    6  C4  UNL     1     -16.017  20.410  -5.592  1.00  0.00     0.010 C
ENDBRANCH   3   5
ENDBRANCH   2   3
BRANCH   2   7
HETATM    7  C6  UNL     1     -19.133  24.022  -5.159  1.00  0.00     0.023 C
BRANCH   7   8
HETATM    8  C7  UNL     1     -19.954  25.124  -5.743  1.00  0.00     0.074 C
BRANCH   8   9
HETATM    9  S1  UNL     1     -21.288  25.600  -4.592  1.00  0.00    -0.173 SA
HETATM   10  C8  UNL     1     -22.880  24.953  -5.109  1.00  0.00     0.089 C
ENDBRANCH   8   9
ENDBRANCH   7   8
ENDBRANCH   2   7
ENDBRANCH   1   2
BRANCH   1  11
HETATM   11  O1  UNL     1     -21.232  22.319  -6.834  1.00  0.00    -0.376 OA
ATOM     12  H1  UNL     1     -20.923  22.094  -7.703  1.00  0.00     0.212 HD
ENDBRANCH   1  11
BRANCH   1  13
HETATM   13  N1  UNL     1     -20.702  21.837  -4.559  1.00  0.00    -0.351 N
HETATM   14  C10 UNL     1     -21.750  21.587  -3.953  1.00  0.00     0.104 C
HETATM   15  C11 UNL     1     -21.678  21.609  -2.438  1.00  0.00     0.243 C
HETATM   16  N2  UNL     1     -22.926  21.309  -4.725  1.00  0.00    -0.339 N
HETATM   17  O2  UNL     1     -22.360  20.515  -1.918  1.00  0.00    -0.383 OA
HETATM   18  C12 UNL     1     -23.724  20.580  -2.018  1.00  0.00     0.175 C
HETATM   19  C13 UNL     1     -24.191  19.642  -3.125  1.00  0.00     0.096 C
HETATM   20  C14 UNL     1     -23.906  20.292  -4.427  1.00  0.00     0.080 C
HETATM   21  S2  UNL     1     -24.821  19.794  -5.679  1.00  0.00    -0.065 SA
ATOM     22  H2  UNL     1     -23.084  21.878  -5.557  1.00  0.00     0.168 HD
ATOM     23  H1  UNL     1     -19.927  22.026  -3.923  1.00  0.00     0.163 HD
ENDBRANCH   1  13
TORSDOF 8
ENDMDL