MODEL 1
REMARK VINA RESULT: -6.619949610      0.000      0.000
REMARK  9 active torsions:
REMARK  status: ('A' for Active; 'I' for Inactive)
REMARK    1  A    between atoms: C2_2  and  C3_3
REMARK    2  A    between atoms: C3_3  and  C4_4
REMARK    3  A    between atoms: C3_3  and  C6_6
REMARK    4  A    between atoms: C6_6  and  O1_7
REMARK    5  A    between atoms: C6_6  and  O2_9
REMARK    6  A    between atoms: O2_9  and  C7_10
REMARK    7  A    between atoms: C10_13  and  C11_14
REMARK    8  A    between atoms: C11_14  and  O3_15
REMARK    9  A    between atoms: C13_20  and  C14_21
ROOT
HETATM    1  C7  UNL     1     -12.906  24.503   0.808  1.00  0.00     0.155 C
HETATM    2  C8  UNL     1     -11.520  24.600   0.209  1.00  0.00     0.004 C
HETATM    3  C9  UNL     1     -10.591  24.406   1.134  1.00  0.00     0.013 C
HETATM    4  C10 UNL     1     -11.267  24.169   2.406  1.00  0.00     0.116 C
HETATM    5  O4  UNL     1     -10.690  23.151   3.203  1.00  0.00    -0.303 OA
HETATM    6  C12 UNL     1     -11.557  22.615   4.172  1.00  0.00     0.264 C
HETATM    7  O5  UNL     1     -11.088  21.772   4.979  1.00  0.00    -0.265 OA
HETATM    8  C13 UNL     1     -12.972  22.966   4.310  1.00  0.00     0.089 C
HETATM    9  C16 UNL     1     -13.612  23.506   3.045  1.00  0.00     0.005 C
HETATM   10  C17 UNL     1     -14.417  24.695   3.414  1.00  0.00     0.011 C
HETATM   11  C18 UNL     1     -12.601  23.659   2.002  1.00  0.00     0.064 C
ENDROOT
BRANCH   1  12
HETATM   12  O2  UNL     1     -13.665  23.820  -0.151  1.00  0.00    -0.352 OA
BRANCH  12  13
HETATM   13  C6  UNL     1     -14.491  24.639  -0.875  1.00  0.00     0.261 C
BRANCH  13  14
HETATM   14  C3  UNL     1     -15.910  24.096  -0.976  1.00  0.00     0.040 C
BRANCH  14  15
HETATM   15  C2  UNL     1     -16.172  23.486  -2.298  1.00  0.00     0.005 C
HETATM   16  C1  UNL     1     -17.542  23.587  -2.855  1.00  0.00     0.005 C
ENDBRANCH  14  15
BRANCH  14  17
HETATM   17  C4  UNL     1     -16.136  23.258   0.235  1.00  0.00     0.005 C
HETATM   18  C5  UNL     1     -17.305  23.646   1.097  1.00  0.00     0.005 C
ENDBRANCH  14  17
ENDBRANCH  13  14
BRANCH  13  19
HETATM   19  O1  UNL     1     -14.549  25.874  -0.247  1.00  0.00    -0.371 OA
ATOM     20  H1  UNL     1     -13.659  26.180  -0.118  1.00  0.00     0.212 HD
ENDBRANCH  13  19
ENDBRANCH  12  13
ENDBRANCH   1  12
BRANCH   4  21
HETATM   21  C11 UNL     1     -11.252  25.452   3.183  1.00  0.00     0.207 C
BRANCH  21  22
HETATM   22  O3  UNL     1     -10.159  26.245   2.953  1.00  0.00    -0.398 OA
ATOM     23  H3  UNL     1      -9.693  26.512   3.737  1.00  0.00     0.209 HD
ENDBRANCH  21  22
ENDBRANCH   4  21
BRANCH   8  24
HETATM   24  C14 UNL     1     -13.719  21.721   4.810  1.00  0.00     0.010 C
HETATM   25  C15 UNL     1     -14.234  20.885   3.680  1.00  0.00     0.006 C
ENDBRANCH   8  24
TORSDOF 9
ENDMDL