MODEL 2
REMARK VINA RESULT: -6.750796848      5.423      7.213
REMARK  10 active torsions:
REMARK  status: ('A' for Active; 'I' for Inactive)
REMARK    1  A    between atoms: N1_5  and  C5_7
REMARK    2  A    between atoms: C5_7  and  C6_8
REMARK    3  A    between atoms: C7_9  and  C8_10
REMARK    4  A    between atoms: C8_10  and  C9_11
REMARK    5  A    between atoms: C10_12  and  O1_13
REMARK    6  A    between atoms: C10_12  and  C11_15
REMARK    7  A    between atoms: C11_15  and  O3_17
REMARK    8  A    between atoms: O3_17  and  C12_18
REMARK    9  A    between atoms: C12_18  and  C13_19
REMARK   10  A    between atoms: C13_19  and  O4_20
ROOT
HETATM    1  C6  UNL     1     -18.385  23.433  -2.784  1.00  0.00    -0.011 C
HETATM    2  C7  UNL     1     -18.879  23.192  -3.949  1.00  0.00    -0.025 C
ENDROOT
BRANCH   2   3
HETATM    3  C8  UNL     1     -18.136  23.092  -5.209  1.00  0.00     0.057 C
BRANCH   3   4
HETATM    4  C9  UNL     1     -17.782  21.682  -5.545  1.00  0.00     0.020 C
HETATM    5  C10 UNL     1     -18.540  20.998  -6.372  1.00  0.00     0.138 C
BRANCH   5   6
HETATM    6  O1  UNL     1     -19.669  21.555  -6.942  1.00  0.00    -0.355 OA
ATOM      7  H1  UNL     1     -19.626  22.022  -7.768  1.00  0.00     0.218 HD
ENDBRANCH   5   6
BRANCH   5   8
HETATM    8  C11 UNL     1     -18.204  19.609  -6.712  1.00  0.00     0.316 C
HETATM    9  O2  UNL     1     -18.520  19.128  -7.824  1.00  0.00    -0.257 OA
BRANCH   8  10
HETATM   10  O3  UNL     1     -17.533  18.795  -5.816  1.00  0.00    -0.314 OA
BRANCH  10  11
HETATM   11  C12 UNL     1     -16.518  17.881  -6.140  1.00  0.00     0.205 C
BRANCH  11  12
HETATM   12  C13 UNL     1     -15.195  18.545  -6.396  1.00  0.00     0.191 C
BRANCH  12  13
HETATM   13  O4  UNL     1     -14.447  17.819  -7.350  1.00  0.00    -0.399 OA
ATOM     14  H4  UNL     1     -14.074  18.402  -8.000  1.00  0.00     0.209 HD
ENDBRANCH  12  13
ENDBRANCH  11  12
ENDBRANCH  10  11
ENDBRANCH   8  10
ENDBRANCH   5   8
ENDBRANCH   3   4
ENDBRANCH   2   3
BRANCH   1  15
HETATM   15  C5  UNL     1     -16.960  23.659  -2.496  1.00  0.00     0.147 C
BRANCH  15  16
HETATM   16  N1  UNL     1     -16.604  23.236  -1.166  1.00  0.00    -0.384 N
HETATM   17  C4  UNL     1     -15.764  23.802  -0.437  1.00  0.00     0.043 C
HETATM   18  C3  UNL     1     -14.960  24.997  -0.742  1.00  0.00     0.070 C
HETATM   19  S1  UNL     1     -15.289  23.319   1.211  1.00  0.00    -0.107 SA
HETATM   20  C2  UNL     1     -14.699  25.722   0.553  1.00  0.00     0.006 C
HETATM   21  C1  UNL     1     -16.041  26.148   1.111  1.00  0.00     0.012 C
HETATM   22  C14 UNL     1     -14.074  24.679   1.490  1.00  0.00     0.010 C
HETATM   23  C15 UNL     1     -14.070  25.121   2.903  1.00  0.00     0.027 C
HETATM   24  C16 UNL     1     -12.760  24.215   0.958  1.00  0.00     0.027 C
ATOM     25  H1  UNL     1     -17.074  22.412  -0.792  1.00  0.00     0.160 HD
ENDBRANCH  15  16
ENDBRANCH   1  15
TORSDOF 10
ENDMDL