MODEL 1
REMARK VINA RESULT: -8.148773364      0.000      0.000
REMARK  8 active torsions:
REMARK  status: ('A' for Active; 'I' for Inactive)
REMARK    1  A    between atoms: C1_2  and  C2_3
REMARK    2  A    between atoms: C1_2  and  C11_12
REMARK    3  A    between atoms: C2_3  and  C3_4
REMARK    4  A    between atoms: C3_4  and  C4_5
REMARK    5  A    between atoms: C11_12  and  O2_13
REMARK    6  A    between atoms: O2_13  and  C12_14
REMARK    7  A    between atoms: C12_14  and  C13_16
REMARK    8  A    between atoms: C15_22  and  C16_23
ROOT
HETATM    1  O2  UNL     1     -15.089  24.394  -1.644  1.00  0.00    -0.309 OA
ENDROOT
BRANCH   1   2
HETATM    2  C11 UNL     1     -16.215  23.564  -1.543  1.00  0.00     0.257 C
BRANCH   2   3
HETATM    3  C1  UNL     1     -17.030  23.492  -2.775  1.00  0.00     0.150 C
HETATM    4  O1  UNL     1     -17.933  24.280  -2.937  1.00  0.00    -0.296 OA
BRANCH   3   5
HETATM    5  C2  UNL     1     -16.762  22.476  -3.814  1.00  0.00     0.082 C
BRANCH   5   6
HETATM    6  C3  UNL     1     -18.026  22.145  -4.608  1.00  0.00     0.024 C
BRANCH   6   7
HETATM    7  C4  UNL     1     -17.523  21.539  -5.935  1.00  0.00     0.056 C
HETATM    8  C5  UNL     1     -16.517  20.564  -5.817  1.00  0.00    -0.178 C
HETATM    9  C6  UNL     1     -15.573  19.527  -5.722  1.00  0.00     0.084 C
HETATM   10  C7  UNL     1     -16.260  18.255  -6.327  1.00  0.00     0.038 C
HETATM   11  C8  UNL     1     -17.769  18.425  -6.436  1.00  0.00    -0.030 C
HETATM   12  C9  UNL     1     -18.390  19.480  -7.182  1.00  0.00    -0.029 C
HETATM   13  C10 UNL     1     -18.771  20.823  -6.560  1.00  0.00     0.043 C
ENDBRANCH   6   7
ENDBRANCH   5   6
ENDBRANCH   3   5
ENDBRANCH   2   3
ENDBRANCH   1   2
BRANCH   1  14
HETATM   14  C12 UNL     1     -13.780  24.046  -1.546  1.00  0.00     0.313 C
HETATM   15  O3  UNL     1     -13.242  23.585  -2.599  1.00  0.00    -0.258 OA
BRANCH  14  16
HETATM   16  C13 UNL     1     -12.930  24.142  -0.371  1.00  0.00     0.143 A
HETATM   17  N1  UNL     1     -11.687  24.716  -0.377  1.00  0.00    -0.345 N
HETATM   18  C14 UNL     1     -11.135  24.667   0.834  1.00  0.00     0.181 A
ATOM     19  H1  UNL     1     -11.244  25.127  -1.198  1.00  0.00     0.167 HD
HETATM   20  N2  UNL     1     -12.022  24.062   1.623  1.00  0.00    -0.345 N
HETATM   21  C15 UNL     1     -13.135  23.725   0.920  1.00  0.00     0.143 A
ATOM     22  H2  UNL     1     -11.884  23.876   2.616  1.00  0.00     0.167 HD
BRANCH  21  23
HETATM   23  C16 UNL     1     -14.274  23.053   1.500  1.00  0.00     0.229 C
HETATM   24  O4  UNL     1     -15.252  23.803   1.854  1.00  0.00    -0.643 OA
HETATM   25  O5  UNL     1     -14.452  21.723   1.725  1.00  0.00    -0.643 OA
ENDBRANCH  21  23
ENDBRANCH  14  16
ENDBRANCH   1  14
TORSDOF 8
ENDMDL