MODEL 3
REMARK VINA RESULT: -7.138214629      1.080      1.889
REMARK  7 active torsions:
REMARK  status: ('A' for Active; 'I' for Inactive)
REMARK    1  A    between atoms: C5_7  and  C6_8
REMARK    2  A    between atoms: C5_7  and  C16_19
REMARK    3  A    between atoms: C6_8  and  C7_9
REMARK    4  A    between atoms: C7_9  and  C8_10
REMARK    5  A    between atoms: C8_10  and  C9_11
REMARK    6  A    between atoms: C9_11  and  C10_12
REMARK    7  A    between atoms: C10_12  and  C11_13
ROOT
HETATM    1  C1  UNL     1     -13.903  22.061   1.783  1.00  0.00     0.079 C
HETATM    2  C2  UNL     1     -14.391  23.417   1.327  1.00  0.00     0.168 C
HETATM    3  C3  UNL     1     -14.224  24.391   2.495  1.00  0.00     0.079 C
HETATM    4  O1  UNL     1     -13.612  23.926   0.262  1.00  0.00    -0.281 OA
HETATM    5  C4  UNL     1     -14.449  24.250  -0.795  1.00  0.00     0.307 C
HETATM    6  O2  UNL     1     -14.124  24.682  -1.933  1.00  0.00    -0.261 OA
HETATM    7  C5  UNL     1     -15.812  23.988  -0.325  1.00  0.00     0.239 C
HETATM    8  O6  UNL     1     -15.686  23.317   0.900  1.00  0.00    -0.323 OA
ENDROOT
BRANCH   7   9
HETATM    9  C6  UNL     1     -16.701  23.198  -1.198  1.00  0.00     0.061 C
BRANCH   9  10
HETATM   10  C7  UNL     1     -16.586  23.254  -2.656  1.00  0.00     0.004 C
BRANCH  10  11
HETATM   11  C8  UNL     1     -17.876  23.390  -3.369  1.00  0.00     0.000 C
BRANCH  11  12
HETATM   12  C9  UNL     1     -17.888  22.542  -4.671  1.00  0.00     0.002 C
BRANCH  12  13
HETATM   13  C10 UNL     1     -16.637  21.702  -4.599  1.00  0.00     0.032 C
BRANCH  13  14
HETATM   14  C11 UNL     1     -16.785  20.363  -5.263  1.00  0.00     0.121 C
HETATM   15  C12 UNL     1     -17.021  20.639  -6.748  1.00  0.00     0.032 C
HETATM   16  C13 UNL     1     -17.678  19.393  -7.310  1.00  0.00     0.004 C
HETATM   17  C14 UNL     1     -17.138  18.221  -6.512  1.00  0.00     0.026 C
HETATM   18  C15 UNL     1     -15.738  18.488  -6.002  1.00  0.00     0.168 C
HETATM   19  O3  UNL     1     -15.668  19.569  -5.160  1.00  0.00    -0.386 OA
ENDBRANCH  13  14
ENDBRANCH  12  13
ENDBRANCH  11  12
ENDBRANCH  10  11
ENDBRANCH   9  10
ENDBRANCH   7   9
BRANCH   7  20
HETATM   20  C16 UNL     1     -16.504  25.286  -0.020  1.00  0.00     0.220 C
HETATM   21  O4  UNL     1     -17.752  25.280   0.035  1.00  0.00    -0.645 OA
HETATM   22  O5  UNL     1     -15.767  26.419   0.187  1.00  0.00    -0.645 OA
ENDBRANCH   7  20
TORSDOF 7
ENDMDL