MODEL 2
REMARK VINA RESULT: -6.715076503      1.219      1.523
REMARK  9 active torsions:
REMARK  status: ('A' for Active; 'I' for Inactive)
REMARK    1  A    between atoms: C2_2  and  S1_4
REMARK    2  A    between atoms: S1_4  and  C4_5
REMARK    3  A    between atoms: C4_5  and  C5_6
REMARK    4  A    between atoms: C5_6  and  C6_8
REMARK    5  A    between atoms: C6_8  and  N1_9
REMARK    6  A    between atoms: N1_9  and  C7_11
REMARK    7  A    between atoms: C15_19  and  C16_20
REMARK    8  A    between atoms: C15_19  and  C17_22
REMARK    9  A    between atoms: C17_22  and  O3_23
ROOT
HETATM    1  C7  UNL     1     -18.604  22.643  -4.042  1.00  0.00     0.081 C
HETATM    2  C8  UNL     1     -19.862  23.391  -4.228  1.00  0.00     0.025 C
HETATM    3  C9  UNL     1     -20.891  22.612  -5.056  1.00  0.00     0.002 C
HETATM    4  C10 UNL     1     -20.368  22.380  -6.425  1.00  0.00     0.001 C
HETATM    5  C11 UNL     1     -19.607  21.061  -6.385  1.00  0.00     0.011 C
HETATM    6  C12 UNL     1     -18.161  21.344  -6.179  1.00  0.00    -0.021 A
HETATM    7  C13 UNL     1     -17.814  22.515  -5.347  1.00  0.00     0.035 C
HETATM    8  C14 UNL     1     -17.262  20.979  -7.308  1.00  0.00     0.030 A
HETATM    9  C15 UNL     1     -17.151  20.211  -6.064  1.00  0.00     0.043 A
ENDROOT
BRANCH   1  10
HETATM   10  N1  UNL     1     -17.708  23.220  -3.119  1.00  0.00    -0.391 N
ATOM     11  H1  UNL     1     -16.756  22.855  -3.095  1.00  0.00     0.159 HD
BRANCH  10  12
HETATM   12  C6  UNL     1     -18.022  24.239  -2.247  1.00  0.00     0.134 C
BRANCH  12  13
HETATM   13  C5  UNL     1     -18.169  23.933  -0.811  1.00  0.00     0.173 C
HETATM   14  O1  UNL     1     -19.222  23.851  -0.218  1.00  0.00    -0.291 OA
BRANCH  13  15
HETATM   15  C4  UNL     1     -16.920  23.696   0.012  1.00  0.00     0.158 C
BRANCH  15  16
HETATM   16  S1  UNL     1     -15.822  25.107  -0.138  1.00  0.00    -0.157 SA
BRANCH  16  17
HETATM   17  C2  UNL     1     -14.143  24.541  -0.531  1.00  0.00     0.039 C
HETATM   18  C1  UNL     1     -13.738  23.399   0.365  1.00  0.00     0.021 C
HETATM   19  C3  UNL     1     -14.181  23.975  -1.950  1.00  0.00     0.021 C
ENDBRANCH  16  17
ENDBRANCH  15  16
ENDBRANCH  13  15
ENDBRANCH  12  13
ENDBRANCH  10  12
ENDBRANCH   1  10
BRANCH   9  20
HETATM   20  C16 UNL     1     -17.735  18.862  -6.004  1.00  0.00     0.243 C
HETATM   21  O2  UNL     1     -17.023  17.894  -5.982  1.00  0.00    -0.306 OA
ENDBRANCH   9  20
BRANCH   9  22
HETATM   22  C17 UNL     1     -15.876  20.438  -5.274  1.00  0.00     0.181 C
BRANCH  22  23
HETATM   23  O3  UNL     1     -14.847  19.794  -5.988  1.00  0.00    -0.400 OA
ATOM     24  H3  UNL     1     -14.687  20.323  -6.761  1.00  0.00     0.209 HD
ENDBRANCH  22  23
ENDBRANCH   9  22
TORSDOF 9
ENDMDL