MODEL 1
REMARK VINA RESULT: -6.096190572      0.000      0.000
REMARK  7 active torsions:
REMARK  status: ('A' for Active; 'I' for Inactive)
REMARK    1  A    between atoms: C10_14  and  O2_15
REMARK    2  A    between atoms: O2_15  and  C11_16
REMARK    3  A    between atoms: C11_16  and  C12_18
REMARK    4  A    between atoms: C12_18  and  C13_19
REMARK    5  A    between atoms: C13_19  and  C14_20
REMARK    6  A    between atoms: C13_19  and  C17_23
REMARK    7  A    between atoms: C14_20  and  C15_21
ROOT
HETATM    1  C1  UNL     1     -16.417  23.620  -2.302  1.00  0.00     0.017 C
HETATM    2  C2  UNL     1     -15.985  24.026  -1.134  1.00  0.00    -0.055 C
HETATM    3  C3  UNL     1     -14.699  24.730  -1.102  1.00  0.00     0.087 C
HETATM    4  C4  UNL     1     -13.813  24.022  -0.137  1.00  0.00    -0.014 C
HETATM    5  N1  UNL     1     -12.589  24.435  -0.266  1.00  0.00    -0.405 N
ATOM      6  H11 UNL     1     -11.982  23.950   0.396  1.00  0.00     0.155 HD
ATOM      7  H12 UNL     1     -12.489  25.146  -0.990  1.00  0.00     0.155 HD
HETATM    8  C5  UNL     1     -13.956  23.014   0.892  1.00  0.00     0.086 C
HETATM    9  C6  UNL     1     -15.283  22.768   1.481  1.00  0.00     0.157 C
HETATM   10  O1  UNL     1     -16.332  22.608   0.643  1.00  0.00    -0.373 OA
HETATM   11  C7  UNL     1     -16.826  23.736   0.036  1.00  0.00     0.150 C
HETATM   12  C8  UNL     1     -17.024  24.906   0.944  1.00  0.00     0.039 C
HETATM   13  C9  UNL     1     -15.937  25.084   1.962  1.00  0.00     0.038 C
HETATM   14  C10 UNL     1     -15.646  23.767   2.588  1.00  0.00     0.161 C
ENDROOT
BRANCH  14  15
HETATM   15  O2  UNL     1     -14.549  23.776   3.474  1.00  0.00    -0.313 OA
BRANCH  15  16
HETATM   16  C11 UNL     1     -14.202  24.854   4.258  1.00  0.00     0.260 C
HETATM   17  O3  UNL     1     -15.060  25.279   5.071  1.00  0.00    -0.265 OA
BRANCH  16  18
HETATM   18  C12 UNL     1     -12.834  25.472   4.118  1.00  0.00     0.126 C
BRANCH  18  19
HETATM   19  C13 UNL     1     -11.847  24.496   3.581  1.00  0.00     0.096 C
BRANCH  19  20
HETATM   20  C14 UNL     1     -11.111  23.849   4.732  1.00  0.00     0.015 C
BRANCH  20  21
HETATM   21  C15 UNL     1     -11.435  22.400   4.925  1.00  0.00    -0.004 C
HETATM   22  C16 UNL     1     -11.640  21.736   3.558  1.00  0.00     0.005 C
ENDBRANCH  20  21
ENDBRANCH  19  20
BRANCH  19  23
HETATM   23  C17 UNL     1     -10.802  25.163   2.753  1.00  0.00     0.177 C
HETATM   24  O4  UNL     1     -10.304  24.682   1.710  1.00  0.00    -0.648 OA
HETATM   25  O5  UNL     1     -10.338  26.409   3.156  1.00  0.00    -0.648 OA
ENDBRANCH  19  23
ENDBRANCH  18  19
ENDBRANCH  16  18
ENDBRANCH  15  16
ENDBRANCH  14  15
TORSDOF 7
ENDMDL