MODEL 2
REMARK VINA RESULT: -5.856278684      1.291      1.546
REMARK  3 active torsions:
REMARK  status: ('A' for Active; 'I' for Inactive)
REMARK    1  A    between atoms: C2_2  and  C3_3
REMARK    2  A    between atoms: C3_3  and  C4_4
REMARK    3  A    between atoms: C16_16  and  N1_17
ROOT
HETATM    1  C4  UNL     1     -16.252 -15.789  45.033  1.00  0.00     0.017 C
HETATM    2  C5  UNL     1     -15.744 -17.182  44.625  1.00  0.00     0.014 C
HETATM    3  C6  UNL     1     -16.058 -18.137  45.699  1.00  0.00    -0.012 C
HETATM    4  C7  UNL     1     -14.882 -19.078  45.809  1.00  0.00     0.010 C
HETATM    5  C8  UNL     1     -17.384 -18.773  45.782  1.00  0.00     0.011 C
HETATM    6  C9  UNL     1     -18.446 -17.782  46.209  1.00  0.00    -0.021 C
HETATM    7  C10 UNL     1     -18.111 -17.215  47.597  1.00  0.00     0.020 C
HETATM    8  C11 UNL     1     -18.611 -16.630  45.282  1.00  0.00    -0.014 C
HETATM    9  C12 UNL     1     -17.700 -15.814  44.803  1.00  0.00    -0.082 C
HETATM   10  C13 UNL     1     -18.204 -14.760  43.897  1.00  0.00     0.043 C
HETATM   11  C14 UNL     1     -19.811 -18.406  46.370  1.00  0.00     0.015 C
HETATM   12  C15 UNL     1     -20.207 -19.225  45.173  1.00  0.00     0.035 C
HETATM   13  C16 UNL     1     -19.186 -20.302  45.072  1.00  0.00     0.193 C
HETATM   14  C18 UNL     1     -17.787 -19.771  44.781  1.00  0.00    -0.014 C
HETATM   15  C19 UNL     1     -16.970 -21.073  44.880  1.00  0.00     0.017 C
HETATM   16  C20 UNL     1     -17.780 -19.384  43.343  1.00  0.00     0.017 C
ENDROOT
BRANCH  13  17
HETATM   17  N1  UNL     1     -19.108 -21.186  46.176  1.00  0.00    -0.074 N
HETATM   18  C17 UNL     1     -20.239 -22.082  46.300  1.00  0.00     0.267 C
ATOM     19  H12 UNL     1     -18.236 -21.715  46.149  1.00  0.00     0.277 HD
ATOM     20  H11 UNL     1     -18.969 -20.665  47.041  1.00  0.00     0.277 HD
ENDBRANCH  13  17
BRANCH   1  21
HETATM   21  C3  UNL     1     -15.521 -14.688  44.336  1.00  0.00     0.035 C
BRANCH  21  22
HETATM   22  C2  UNL     1     -14.209 -14.498  45.017  1.00  0.00    -0.036 C
HETATM   23  C1  UNL     1     -13.560 -13.342  44.987  1.00  0.00     0.007 C
ENDBRANCH  21  22
ENDBRANCH   1  21
TORSDOF 3
ENDMDL