MODEL 5
REMARK VINA RESULT: -4.609177893      1.649      3.964
REMARK  5 active torsions:
REMARK  status: ('A' for Active; 'I' for Inactive)
REMARK    1  A    between atoms: C2_2  and  C3_3
REMARK    2  A    between atoms: C10_10  and  C11_11
REMARK    3  A    between atoms: C10_10  and  C12_14
REMARK    4  A    between atoms: C11_11  and  O1_12
REMARK    5  A    between atoms: C16_18  and  C17_19
ROOT
HETATM    1  C3  UNL     1     -18.441 -20.227  45.318  1.00  0.00    -0.002 C
HETATM    2  C4  UNL     1     -18.439 -21.679  45.585  1.00  0.00     0.024 C
HETATM    3  C5  UNL     1     -19.597 -19.930  44.360  1.00  0.00     0.018 C
HETATM    4  C6  UNL     1     -19.250 -19.888  42.959  1.00  0.00     0.011 C
HETATM    5  C7  UNL     1     -17.824 -19.837  42.582  1.00  0.00    -0.033 C
HETATM    6  C8  UNL     1     -17.897 -19.209  41.208  1.00  0.00     0.016 C
HETATM    7  C9  UNL     1     -17.363 -21.230  42.172  1.00  0.00     0.016 C
HETATM    8  C10 UNL     1     -16.878 -19.134  43.548  1.00  0.00     0.019 C
HETATM    9  C16 UNL     1     -17.153 -19.538  44.958  1.00  0.00    -0.051 C
ENDROOT
BRANCH   8  10
HETATM   10  C11 UNL     1     -15.473 -19.509  43.119  1.00  0.00     0.179 C
BRANCH  10  11
HETATM   11  O1  UNL     1     -15.160 -19.592  41.817  1.00  0.00    -0.400 OA
ATOM     12  H1  UNL     1     -15.540 -18.987  41.192  1.00  0.00     0.209 HD
ENDBRANCH  10  11
ENDBRANCH   8  10
BRANCH   8  13
HETATM   13  C12 UNL     1     -16.843 -17.632  43.383  1.00  0.00    -0.037 C
HETATM   14  C13 UNL     1     -17.684 -16.840  44.354  1.00  0.00     0.015 C
HETATM   15  C14 UNL     1     -17.145 -17.009  42.071  1.00  0.00     0.015 C
HETATM   16  C15 UNL     1     -15.432 -17.076  43.657  1.00  0.00     0.015 C
ENDBRANCH   8  13
BRANCH   9  17
HETATM   17  C17 UNL     1     -16.144 -19.800  45.967  1.00  0.00    -0.067 C
HETATM   18  C18 UNL     1     -15.393 -20.824  46.308  1.00  0.00     0.018 C
HETATM   19  C19 UNL     1     -15.681 -18.691  46.936  1.00  0.00     0.047 C
ENDBRANCH   9  17
BRANCH   1  20
HETATM   20  C2  UNL     1     -19.055 -19.661  46.583  1.00  0.00    -0.023 C
HETATM   21  C1  UNL     1     -19.961 -18.717  46.617  1.00  0.00     0.008 C
ENDBRANCH   1  20
TORSDOF 5
ENDMDL