MODEL 5
REMARK VINA RESULT: -5.587697613      2.061      5.556
REMARK  6 active torsions:
REMARK  status: ('A' for Active; 'I' for Inactive)
REMARK    1  A    between atoms: C2_2  and  C4_4
REMARK    2  A    between atoms: C5_5  and  C6_6
REMARK    3  A    between atoms: C6_6  and  C7_7
REMARK    4  A    between atoms: C7_7  and  C9_9
REMARK    5  A    between atoms: C9_9  and  C10_10
REMARK    6  A    between atoms: C10_10  and  C11_11
ROOT
HETATM    1  C11 UNL     1     -16.469 -18.599  43.079  1.00  0.00     0.264 C
HETATM    2  N1  UNL     1     -15.280 -19.171  42.378  1.00  0.00    -0.052 N
ATOM      3  H11 UNL     1     -14.621 -18.602  41.846  1.00  0.00     0.279 HD
ATOM      4  H12 UNL     1     -15.352 -19.753  41.543  1.00  0.00     0.279 HD
HETATM    5  C12 UNL     1     -14.987 -19.698  43.675  1.00  0.00     0.131 C
HETATM    6  C13 UNL     1     -14.112 -20.893  43.656  1.00  0.00     0.047 C
HETATM    7  C14 UNL     1     -14.588 -18.594  44.615  1.00  0.00     0.039 C
HETATM    8  C15 UNL     1     -15.449 -18.422  45.803  1.00  0.00     0.003 C
HETATM    9  C16 UNL     1     -16.431 -19.477  46.129  1.00  0.00     0.009 C
HETATM   10  C17 UNL     1     -17.007 -20.252  45.008  1.00  0.00    -0.039 C
HETATM   11  C18 UNL     1     -16.617 -21.735  45.257  1.00  0.00     0.015 C
HETATM   12  C19 UNL     1     -18.516 -20.276  45.052  1.00  0.00     0.015 C
HETATM   13  C20 UNL     1     -16.486 -19.914  43.688  1.00  0.00     0.071 C
ENDROOT
BRANCH   1  14
HETATM   14  C10 UNL     1     -16.915 -17.402  42.892  1.00  0.00    -0.122 C
BRANCH  14  15
HETATM   15  C9  UNL     1     -17.432 -16.135  42.811  1.00  0.00     0.059 C
BRANCH  15  16
HETATM   16  C7  UNL     1     -17.834 -15.430  43.941  1.00  0.00    -0.055 C
HETATM   17  C8  UNL     1     -18.691 -16.157  44.897  1.00  0.00     0.049 C
BRANCH  16  18
HETATM   18  C6  UNL     1     -17.439 -14.077  44.074  1.00  0.00     0.007 C
BRANCH  18  19
HETATM   19  C5  UNL     1     -16.338 -13.563  44.518  1.00  0.00     0.001 C
HETATM   20  C4  UNL     1     -14.965 -13.861  44.385  1.00  0.00     0.006 C
BRANCH  20  21
HETATM   21  C2  UNL     1     -13.949 -13.269  44.903  1.00  0.00    -0.071 C
HETATM   22  C1  UNL     1     -12.919 -12.584  45.415  1.00  0.00     0.018 C
HETATM   23  C3  UNL     1     -13.219 -14.887  45.404  1.00  0.00     0.047 C
ENDBRANCH  20  21
ENDBRANCH  18  19
ENDBRANCH  16  18
ENDBRANCH  15  16
ENDBRANCH  14  15
ENDBRANCH   1  14
TORSDOF 6
ENDMDL