MODEL 2
REMARK VINA RESULT: -5.845132215      2.265      4.614
REMARK  5 active torsions:
REMARK  status: ('A' for Active; 'I' for Inactive)
REMARK    1  A    between atoms: C4_4  and  C5_5
REMARK    2  A    between atoms: C5_5  and  C6_6
REMARK    3  A    between atoms: C9_9  and  C10_10
REMARK    4  A    between atoms: C12_12  and  C14_14
REMARK    5  A    between atoms: C14_14  and  O1_15
ROOT
HETATM    1  C6  UNL     1     -18.017 -17.582  46.064  1.00  0.00    -0.036 C
HETATM    2  C7  UNL     1     -18.316 -17.853  47.523  1.00  0.00     0.016 C
HETATM    3  C8  UNL     1     -18.770 -18.562  45.194  1.00  0.00     0.019 C
HETATM    4  C9  UNL     1     -17.896 -18.771  43.965  1.00  0.00     0.024 C
HETATM    5  C15 UNL     1     -16.517 -18.821  44.601  1.00  0.00    -0.032 C
HETATM    6  C16 UNL     1     -15.370 -18.653  43.658  1.00  0.00     0.016 C
HETATM    7  C17 UNL     1     -16.288 -19.827  45.666  1.00  0.00     0.010 C
HETATM    8  C18 UNL     1     -15.760 -18.686  46.545  1.00  0.00     0.007 C
HETATM    9  C19 UNL     1     -16.579 -17.750  45.704  1.00  0.00     0.003 C
ENDROOT
BRANCH   4  10
HETATM   10  C10 UNL     1     -18.227 -19.979  43.222  1.00  0.00    -0.075 C
HETATM   11  C11 UNL     1     -18.495 -21.287  43.955  1.00  0.00     0.044 C
HETATM   12  C12 UNL     1     -18.311 -20.003  41.914  1.00  0.00    -0.058 C
HETATM   13  C13 UNL     1     -18.664 -21.320  41.230  1.00  0.00     0.046 C
BRANCH  12  14
HETATM   14  C14 UNL     1     -18.077 -18.812  41.073  1.00  0.00     0.198 C
BRANCH  14  15
HETATM   15  O1  UNL     1     -16.824 -19.005  40.441  1.00  0.00    -0.397 OA
ATOM     16  H1  UNL     1     -16.526 -18.147  40.164  1.00  0.00     0.209 HD
ENDBRANCH  14  15
ENDBRANCH  12  14
ENDBRANCH   4  10
BRANCH   1  17
HETATM   17  C5  UNL     1     -18.414 -16.148  45.796  1.00  0.00     0.036 C
BRANCH  17  18
HETATM   18  C4  UNL     1     -17.228 -15.257  45.604  1.00  0.00    -0.024 C
HETATM   19  C2  UNL     1     -17.110 -14.469  44.554  1.00  0.00    -0.091 C
HETATM   20  C1  UNL     1     -15.937 -13.603  44.387  1.00  0.00     0.042 C
HETATM   21  C3  UNL     1     -18.187 -14.471  43.539  1.00  0.00     0.042 C
ENDBRANCH  17  18
ENDBRANCH   1  17
TORSDOF 5
ENDMDL