MODEL 3
REMARK VINA RESULT: -5.923718295      1.456      3.024
REMARK  5 active torsions:
REMARK  status: ('A' for Active; 'I' for Inactive)
REMARK    1  A    between atoms: C2_2  and  C3_3
REMARK    2  A    between atoms: C3_3  and  C5_5
REMARK    3  A    between atoms: C5_5  and  C6_6
REMARK    4  A    between atoms: C6_6  and  C7_7
REMARK    5  A    between atoms: C14_15  and  C15_16
ROOT
HETATM    1  C7  UNL     1     -16.398 -17.786  43.018  1.00  0.00     0.226 C
HETATM    2  C8  UNL     1     -15.381 -18.227  44.056  1.00  0.00     0.067 C
HETATM    3  C9  UNL     1     -16.054 -18.852  45.224  1.00  0.00     0.126 C
HETATM    4  C10 UNL     1     -17.101 -17.827  45.679  1.00  0.00     0.068 C
HETATM    5  C11 UNL     1     -18.208 -18.045  44.631  1.00  0.00     0.229 C
HETATM    6  C12 UNL     1     -18.782 -19.390  45.126  1.00  0.00     0.070 C
HETATM    7  C13 UNL     1     -17.749 -20.290  44.482  1.00  0.00     0.158 C
HETATM    8  O1  UNL     1     -16.513 -20.108  45.107  1.00  0.00    -0.378 OA
HETATM    9  C14 UNL     1     -17.656 -19.758  43.112  1.00  0.00     0.260 C
HETATM   10  N1  UNL     1     -17.720 -18.317  43.335  1.00  0.00     0.105 N
ENDROOT
BRANCH   1  11
HETATM   11  C6  UNL     1     -16.399 -16.342  42.756  1.00  0.00     0.036 C
BRANCH  11  12
HETATM   12  C5  UNL     1     -15.395 -15.542  43.488  1.00  0.00     0.006 C
BRANCH  12  13
HETATM   13  C3  UNL     1     -15.782 -14.559  44.510  1.00  0.00    -0.019 C
HETATM   14  C4  UNL     1     -17.169 -14.014  44.534  1.00  0.00     0.010 C
BRANCH  13  15
HETATM   15  C2  UNL     1     -14.883 -13.303  44.234  1.00  0.00    -0.000 C
HETATM   16  C1  UNL     1     -13.596 -13.528  44.986  1.00  0.00     0.005 C
ENDBRANCH  13  15
ENDBRANCH  12  13
ENDBRANCH  11  12
ENDBRANCH   1  11
BRANCH   9  17
HETATM   17  C15 UNL     1     -18.600 -20.139  42.068  1.00  0.00    -0.018 C
HETATM   18  C16 UNL     1     -20.009 -20.429  42.463  1.00  0.00     0.016 C
HETATM   19  C17 UNL     1     -18.628 -19.241  40.858  1.00  0.00     0.016 C
HETATM   20  C18 UNL     1     -18.093 -21.486  41.479  1.00  0.00     0.016 C
ENDBRANCH   9  17
TORSDOF 5
ENDMDL