MODEL 5
REMARK VINA RESULT: -5.854692756      2.257      3.037
REMARK  3 active torsions:
REMARK  status: ('A' for Active; 'I' for Inactive)
REMARK    1  A    between atoms: C2_2  and  C3_3
REMARK    2  A    between atoms: C8_8  and  C10_10
REMARK    3  A    between atoms: C10_10  and  C11_11
ROOT
HETATM    1  C3  UNL     1     -17.761 -19.812  45.616  1.00  0.00    -0.023 C
HETATM    2  C4  UNL     1     -17.672 -21.145  44.849  1.00  0.00     0.020 C
HETATM    3  C5  UNL     1     -18.548 -18.900  44.719  1.00  0.00     0.013 C
HETATM    4  C6  UNL     1     -17.780 -18.597  43.468  1.00  0.00     0.002 C
HETATM    5  C7  UNL     1     -16.283 -18.723  43.626  1.00  0.00     0.010 C
HETATM    6  C8  UNL     1     -15.765 -18.359  44.984  1.00  0.00    -0.037 C
HETATM    7  C9  UNL     1     -14.284 -18.803  44.908  1.00  0.00     0.015 C
HETATM    8  C18 UNL     1     -16.393 -19.334  45.971  1.00  0.00     0.001 C
HETATM    9  C19 UNL     1     -16.300 -18.820  47.392  1.00  0.00     0.012 C
ENDROOT
BRANCH   6  10
HETATM   10  C10 UNL     1     -15.921 -16.965  45.330  1.00  0.00     0.048 C
BRANCH  10  11
HETATM   11  C11 UNL     1     -15.496 -15.811  44.561  1.00  0.00     0.130 C
HETATM   12  C12 UNL     1     -15.297 -15.921  43.080  1.00  0.00     0.047 C
HETATM   13  N1  UNL     1     -14.381 -15.065  45.156  1.00  0.00    -0.066 N
HETATM   14  C13 UNL     1     -14.426 -13.795  44.458  1.00  0.00     0.234 C
ATOM     15  H12 UNL     1     -14.411 -14.993  46.173  1.00  0.00     0.278 HD
ATOM     16  H11 UNL     1     -13.480 -15.541  45.114  1.00  0.00     0.278 HD
HETATM   17  C14 UNL     1     -15.895 -13.432  44.393  1.00  0.00     0.039 C
HETATM   18  C15 UNL     1     -16.562 -14.717  44.701  1.00  0.00    -0.006 A
HETATM   19  C16 UNL     1     -17.903 -14.965  43.986  1.00  0.00     0.013 A
HETATM   20  C17 UNL     1     -17.729 -14.819  45.515  1.00  0.00     0.013 A
ENDBRANCH  10  11
ENDBRANCH   6  10
BRANCH   1  21
HETATM   21  C2  UNL     1     -18.573 -20.110  46.839  1.00  0.00    -0.027 C
HETATM   22  C1  UNL     1     -19.854 -19.807  46.945  1.00  0.00     0.007 C
ENDBRANCH   1  21
TORSDOF 3
ENDMDL