MODEL 5
REMARK VINA RESULT: -5.982353891      2.223      6.650
REMARK  5 active torsions:
REMARK  status: ('A' for Active; 'I' for Inactive)
REMARK    1  A    between atoms: C2_2  and  C3_3
REMARK    2  A    between atoms: C5_5  and  C6_6
REMARK    3  A    between atoms: C6_6  and  C7_7
REMARK    4  A    between atoms: C8_8  and  C10_10
REMARK    5  A    between atoms: C16_16  and  O1_17
ROOT
HETATM    1  C10 UNL     1     -17.655 -17.310  44.961  1.00  0.00     0.010 C
HETATM    2  C11 UNL     1     -18.261 -18.432  45.256  1.00  0.00    -0.065 C
HETATM    3  C12 UNL     1     -19.483 -18.287  46.214  1.00  0.00     0.017 C
HETATM    4  C13 UNL     1     -19.064 -18.490  47.624  1.00  0.00     0.015 C
HETATM    5  C14 UNL     1     -20.401 -19.302  45.644  1.00  0.00     0.019 C
HETATM    6  C15 UNL     1     -21.532 -19.694  46.532  1.00  0.00     0.013 C
HETATM    7  C16 UNL     1     -19.507 -20.466  45.330  1.00  0.00     0.134 C
HETATM    8  C17 UNL     1     -18.155 -19.842  44.967  1.00  0.00     0.003 C
HETATM    9  C18 UNL     1     -17.068 -20.539  45.784  1.00  0.00     0.022 C
HETATM   10  C19 UNL     1     -17.940 -20.229  43.521  1.00  0.00     0.022 C
ENDROOT
BRANCH   1  11
HETATM   11  C8  UNL     1     -16.536 -16.900  44.170  1.00  0.00    -0.065 C
HETATM   12  C7  UNL     1     -15.375 -16.773  44.818  1.00  0.00    -0.016 C
HETATM   13  C9  UNL     1     -16.590 -16.639  42.741  1.00  0.00     0.048 C
BRANCH  12  14
HETATM   14  C6  UNL     1     -14.066 -16.390  44.293  1.00  0.00     0.055 C
BRANCH  14  15
HETATM   15  C5  UNL     1     -13.669 -15.061  44.840  1.00  0.00    -0.021 C
HETATM   16  C3  UNL     1     -14.201 -13.903  44.713  1.00  0.00    -0.088 C
HETATM   17  C4  UNL     1     -13.434 -12.781  45.475  1.00  0.00     0.043 C
BRANCH  16  18
HETATM   18  C2  UNL     1     -15.365 -13.361  44.025  1.00  0.00     0.029 C
HETATM   19  C1  UNL     1     -16.689 -13.367  44.663  1.00  0.00     0.010 C
ENDBRANCH  16  18
ENDBRANCH  14  15
ENDBRANCH  12  14
ENDBRANCH   1  11
BRANCH   7  20
HETATM   20  O1  UNL     1     -19.382 -21.316  46.421  1.00  0.00    -0.394 OA
ATOM     21  H1  UNL     1     -18.632 -21.083  46.956  1.00  0.00     0.210 HD
ENDBRANCH   7  20
TORSDOF 5
ENDMDL