MODEL 2
REMARK VINA RESULT: -6.028540967      2.666      4.092
REMARK  4 active torsions:
REMARK  status: ('A' for Active; 'I' for Inactive)
REMARK    1  A    between atoms: C7_7  and  C8_8
REMARK    2  A    between atoms: C8_8  and  C9_9
REMARK    3  A    between atoms: C12_12  and  C13_13
REMARK    4  A    between atoms: C13_13  and  O1_16
ROOT
HETATM    1  C1  UNL     1     -16.252 -20.788  45.221  1.00  0.00     0.015 C
HETATM    2  C2  UNL     1     -17.062 -20.154  44.382  1.00  0.00    -0.076 C
HETATM    3  C3  UNL     1     -16.596 -19.710  43.033  1.00  0.00     0.020 C
HETATM    4  C4  UNL     1     -15.710 -18.485  43.050  1.00  0.00     0.019 C
HETATM    5  C5  UNL     1     -17.018 -17.673  43.066  1.00  0.00    -0.035 C
HETATM    6  C6  UNL     1     -16.853 -16.582  41.988  1.00  0.00     0.016 C
HETATM    7  C7  UNL     1     -17.191 -17.004  44.367  1.00  0.00    -0.005 C
HETATM    8  C11 UNL     1     -17.609 -17.779  45.541  1.00  0.00     0.014 C
HETATM    9  C12 UNL     1     -18.804 -18.674  45.450  1.00  0.00     0.032 C
HETATM   10  C16 UNL     1     -18.501 -19.800  44.593  1.00  0.00    -0.014 C
HETATM   11  C17 UNL     1     -19.196 -21.114  44.801  1.00  0.00     0.020 C
HETATM   12  C18 UNL     1     -18.925 -19.366  43.170  1.00  0.00     0.020 C
HETATM   13  C19 UNL     1     -17.718 -18.799  42.589  1.00  0.00     0.003 C
ENDROOT
BRANCH   9  14
HETATM   14  C13 UNL     1     -19.335 -18.882  46.832  1.00  0.00     0.055 C
HETATM   15  C14 UNL     1     -20.781 -19.216  46.953  1.00  0.00     0.045 C
HETATM   16  C15 UNL     1     -18.493 -19.746  47.729  1.00  0.00     0.045 C
BRANCH  14  17
HETATM   17  O1  UNL     1     -19.230 -17.596  47.443  1.00  0.00    -0.390 OA
ATOM     18  H1  UNL     1     -18.321 -17.352  47.315  1.00  0.00     0.210 HD
ENDBRANCH  14  17
ENDBRANCH   9  14
BRANCH   7  19
HETATM   19  C8  UNL     1     -17.845 -15.630  44.209  1.00  0.00     0.005 C
BRANCH  19  20
HETATM   20  C9  UNL     1     -17.285 -14.561  45.064  1.00  0.00    -0.004 C
HETATM   21  C10 UNL     1     -16.434 -13.560  44.321  1.00  0.00     0.005 C
ENDBRANCH  19  20
ENDBRANCH   7  19
TORSDOF 4
ENDMDL