MODEL 4
REMARK VINA RESULT: -5.516707475      1.659      4.096
REMARK  4 active torsions:
REMARK  status: ('A' for Active; 'I' for Inactive)
REMARK    1  A    between atoms: C2_2  and  C3_3
REMARK    2  A    between atoms: C2_2  and  C6_6
REMARK    3  A    between atoms: C3_3  and  C4_4
REMARK    4  A    between atoms: C16_16  and  O1_18
ROOT
HETATM    1  C6  UNL     1     -16.963 -17.479  44.221  1.00  0.00    -0.035 C
HETATM    2  C7  UNL     1     -17.341 -17.735  42.791  1.00  0.00    -0.058 C
HETATM    3  C8  UNL     1     -16.867 -16.791  41.753  1.00  0.00     0.048 C
HETATM    4  C9  UNL     1     -18.052 -18.777  42.420  1.00  0.00    -0.019 C
HETATM    5  C10 UNL     1     -18.554 -19.809  43.357  1.00  0.00     0.034 C
HETATM    6  C11 UNL     1     -18.695 -19.157  44.684  1.00  0.00     0.012 C
HETATM    7  C12 UNL     1     -19.136 -20.090  45.771  1.00  0.00    -0.040 C
HETATM    8  C13 UNL     1     -19.350 -21.499  45.299  1.00  0.00     0.015 C
HETATM    9  C14 UNL     1     -20.490 -19.608  46.259  1.00  0.00     0.015 C
HETATM   10  C15 UNL     1     -18.097 -19.941  46.812  1.00  0.00     0.047 C
HETATM   11  C16 UNL     1     -17.436 -18.554  46.535  1.00  0.00     0.067 C
HETATM   12  C17 UNL     1     -18.334 -17.586  47.201  1.00  0.00     0.047 C
HETATM   13  C18 UNL     1     -17.312 -18.590  45.092  1.00  0.00     0.019 C
HETATM   14  C19 UNL     1     -16.257 -19.690  44.781  1.00  0.00     0.024 C
ENDROOT
BRANCH   1  15
HETATM   15  C2  UNL     1     -17.057 -16.073  44.614  1.00  0.00    -0.060 C
HETATM   16  C1  UNL     1     -18.253 -15.487  44.443  1.00  0.00     0.019 C
BRANCH  15  17
HETATM   17  C3  UNL     1     -15.922 -15.237  45.049  1.00  0.00     0.038 C
BRANCH  17  18
HETATM   18  C4  UNL     1     -15.736 -13.918  44.410  1.00  0.00     0.000 C
HETATM   19  C5  UNL     1     -14.286 -13.598  44.200  1.00  0.00     0.005 C
ENDBRANCH  17  18
ENDBRANCH  15  17
ENDBRANCH   1  15
BRANCH  11  20
HETATM   20  O1  UNL     1     -16.208 -18.620  47.215  1.00  0.00    -0.389 OA
ATOM     21  H1  UNL     1     -15.565 -18.405  46.549  1.00  0.00     0.210 HD
ENDBRANCH  11  20
TORSDOF 4
ENDMDL