MODEL 1
REMARK VINA RESULT: -6.551668457      0.000      0.000
REMARK  4 active torsions:
REMARK  status: ('A' for Active; 'I' for Inactive)
REMARK    1  A    between atoms: C2_2  and  C3_3
REMARK    2  A    between atoms: C11_11  and  C12_12
REMARK    3  A    between atoms: C16_16  and  C18_18
REMARK    4  A    between atoms: C18_18  and  N1_19
ROOT
HETATM    1  C12 UNL     1     -16.550 -16.441  43.608  1.00  0.00    -0.039 C
HETATM    2  C13 UNL     1     -17.380 -15.978  42.433  1.00  0.00     0.015 C
HETATM    3  C14 UNL     1     -17.040 -15.688  44.825  1.00  0.00     0.010 C
HETATM    4  C15 UNL     1     -16.242 -14.391  44.860  1.00  0.00     0.011 C
HETATM    5  C16 UNL     1     -14.886 -14.885  44.494  1.00  0.00    -0.020 C
HETATM    6  C17 UNL     1     -14.159 -15.530  45.665  1.00  0.00     0.017 C
HETATM    7  C19 UNL     1     -15.171 -15.929  43.450  1.00  0.00     0.020 C
ENDROOT
BRANCH   1   8
HETATM    8  C11 UNL     1     -16.699 -17.894  43.936  1.00  0.00     0.006 C
HETATM    9  C3  UNL     1     -16.972 -18.835  42.837  1.00  0.00    -0.040 C
HETATM   10  C4  UNL     1     -15.615 -19.422  42.369  1.00  0.00     0.015 C
HETATM   11  C5  UNL     1     -17.815 -20.027  43.126  1.00  0.00     0.010 C
HETATM   12  C6  UNL     1     -18.254 -20.184  44.562  1.00  0.00     0.005 C
HETATM   13  C7  UNL     1     -18.886 -18.810  44.835  1.00  0.00    -0.014 C
HETATM   14  C8  UNL     1     -19.714 -18.927  46.062  1.00  0.00     0.010 C
HETATM   15  C9  UNL     1     -17.679 -17.936  45.092  1.00  0.00    -0.009 C
HETATM   16  C10 UNL     1     -17.050 -18.481  46.375  1.00  0.00     0.011 C
BRANCH   9  17
HETATM   17  C2  UNL     1     -17.552 -18.240  41.555  1.00  0.00     0.005 C
HETATM   18  C1  UNL     1     -18.243 -19.432  40.862  1.00  0.00     0.006 C
ENDBRANCH   9  17
ENDBRANCH   1   8
BRANCH   5  19
HETATM   19  C18 UNL     1     -13.986 -13.785  43.981  1.00  0.00     0.238 C
BRANCH  19  20
HETATM   20  N1  UNL     1     -13.174 -13.182  44.986  1.00  0.00    -0.079 N
ATOM     21  H13 UNL     1     -13.746 -12.625  45.621  1.00  0.00     0.274 HD
ATOM     22  H12 UNL     1     -12.830 -13.887  45.637  1.00  0.00     0.274 HD
ATOM     23  H11 UNL     1     -12.402 -12.627  44.618  1.00  0.00     0.274 HD
ENDBRANCH  19  20
ENDBRANCH   5  19
TORSDOF 4
ENDMDL