MODEL 1
REMARK VINA RESULT: -7.636581533      0.000      0.000
REMARK  11 active torsions:
REMARK  status: ('A' for Active; 'I' for Inactive)
REMARK    1  A    between atoms: C2_2  and  O1_4
REMARK    2  A    between atoms: O1_4  and  C4_5
REMARK    3  A    between atoms: C5_6  and  O2_7
REMARK    4  A    between atoms: C6_9  and  C7_10
REMARK    5  A    between atoms: N2_14  and  N3_15
REMARK    6  A    between atoms: C9_22  and  N6_23
REMARK    7  A    between atoms: C10_26  and  C11_27
REMARK    8  A    between atoms: C11_27  and  O3_28
REMARK    9  A    between atoms: O3_28  and  C12_29
REMARK   10  A    between atoms: C12_29  and  C13_30
REMARK   11  A    between atoms: C13_30  and  O4_31
ROOT
HETATM    1  C4  UNL     1      18.369  29.006  12.812  1.00  0.00     0.120 A
HETATM    2  C5  UNL     1      19.535  28.630  12.107  1.00  0.00     0.131 A
HETATM    3  C6  UNL     1      19.493  27.769  11.032  1.00  0.00     0.116 A
HETATM    4  N5  UNL     1      18.254  27.306  10.693  1.00  0.00    -0.337 N
ATOM      5  H5  UNL     1      18.180  26.667   9.902  1.00  0.00     0.167 HD
HETATM    6  C9  UNL     1      17.135  27.641  11.336  1.00  0.00     0.114 A
HETATM    7  C10 UNL     1      17.153  28.514  12.432  1.00  0.00     0.066 A
ENDROOT
BRANCH   3   8
HETATM    8  C7  UNL     1      20.558  27.386  10.338  1.00  0.00     0.152 A
HETATM    9  N1  UNL     1      20.835  26.171   9.656  1.00  0.00    -0.333 N
HETATM   10  C8  UNL     1      21.994  26.190   9.096  1.00  0.00     0.228 A
ATOM     11  H1  UNL     1      20.193  25.379   9.616  1.00  0.00     0.168 HD
HETATM   12  N2  UNL     1      22.642  27.427   9.333  1.00  0.00    -0.197 N
HETATM   13  N4  UNL     1      21.723  28.168  10.116  1.00  0.00    -0.262 N
ATOM     14  H4  UNL     1      21.875  29.114  10.465  1.00  0.00     0.191 HD
BRANCH  12  15
HETATM   15  N3  UNL     1      23.882  27.887   8.929  1.00  0.00    -0.323 N
ATOM     16  H32 UNL     1      24.653  27.290   8.630  1.00  0.00     0.179 HD
ATOM     17  H31 UNL     1      24.247  28.837   8.855  1.00  0.00     0.179 HD
ENDBRANCH  12  15
ENDBRANCH   3   8
BRANCH   2  18
HETATM   18  O2  UNL     1      20.680  29.172  12.562  1.00  0.00    -0.356 OA
ATOM     19  H2  UNL     1      21.432  28.591  12.559  1.00  0.00     0.218 HD
ENDBRANCH   2  18
BRANCH   1  20
HETATM   20  O1  UNL     1      18.489  29.884  13.895  1.00  0.00    -0.343 OA
BRANCH  20  21
HETATM   21  C2  UNL     1      18.821  29.381  15.194  1.00  0.00     0.121 C
HETATM   22  C1  UNL     1      17.779  29.903  16.207  1.00  0.00     0.040 C
HETATM   23  C3  UNL     1      18.846  27.881  15.248  1.00  0.00     0.040 C
ENDBRANCH  20  21
ENDBRANCH   1  20
BRANCH   6  24
HETATM   24  N6  UNL     1      15.999  27.163  10.959  1.00  0.00    -0.385 N
ATOM     25  H62 UNL     1      15.917  26.152  10.843  1.00  0.00     0.157 HD
ATOM     26  H61 UNL     1      15.210  27.785  10.783  1.00  0.00     0.157 HD
ENDBRANCH   6  24
BRANCH   7  27
HETATM   27  C11 UNL     1      16.028  28.844  13.035  1.00  0.00     0.152 C
BRANCH  27  28
HETATM   28  O3  UNL     1      15.239  27.835  13.566  1.00  0.00    -0.360 OA
BRANCH  28  29
HETATM   29  C12 UNL     1      15.798  26.874  14.445  1.00  0.00     0.200 C
BRANCH  29  30
HETATM   30  C13 UNL     1      15.101  25.556  14.293  1.00  0.00     0.190 C
BRANCH  30  31
HETATM   31  O4  UNL     1      15.286  25.006  13.039  1.00  0.00    -0.399 OA
ATOM     32  H4  UNL     1      15.111  24.072  13.025  1.00  0.00     0.209 HD
ENDBRANCH  30  31
ENDBRANCH  29  30
ENDBRANCH  28  29
ENDBRANCH  27  28
ENDBRANCH   7  27
TORSDOF 11
ENDMDL