MODEL 3
REMARK VINA RESULT: -7.444881473      2.233      5.672
REMARK  8 active torsions:
REMARK  status: ('A' for Active; 'I' for Inactive)
REMARK    1  A    between atoms: N1_2  and  C2_3
REMARK    2  A    between atoms: N1_2  and  C4_7
REMARK    3  A    between atoms: C2_3  and  C3_4
REMARK    4  A    between atoms: C4_7  and  N3_8
REMARK    5  A    between atoms: C4_7  and  C5_12
REMARK    6  A    between atoms: C4_7  and  C6_15
REMARK    7  A    between atoms: C5_12  and  O2_13
REMARK    8  A    between atoms: C9_24  and  N7_25
ROOT
HETATM    1  C6  UNL     1      16.626  28.951  11.529  1.00  0.00     0.099 A
HETATM    2  N4  UNL     1      15.894  29.187  10.379  1.00  0.00    -0.351 N
ATOM      3  H4  UNL     1      16.183  29.977   9.801  1.00  0.00     0.166 HD
HETATM    4  C7  UNL     1      14.862  28.492   9.960  1.00  0.00     0.182 A
HETATM    5  N5  UNL     1      14.407  27.442  10.644  1.00  0.00    -0.337 N
ATOM      6  H5  UNL     1      13.606  26.905  10.314  1.00  0.00     0.168 HD
HETATM    7  C8  UNL     1      15.035  27.115  11.777  1.00  0.00     0.139 A
HETATM    8  N6  UNL     1      14.610  26.062  12.536  1.00  0.00    -0.176 N
ATOM      9  H6  UNL     1      13.810  25.522  12.207  1.00  0.00     0.186 HD
HETATM   10  C9  UNL     1      15.188  25.701  13.690  1.00  0.00     0.680 A
HETATM   11  N8  UNL     1      16.247  26.418  14.126  1.00  0.00    -0.155 N
ATOM     12  H8  UNL     1      16.705  26.165  15.003  1.00  0.00     0.187 HD
HETATM   13  C10 UNL     1      16.707  27.473  13.405  1.00  0.00     0.275 A
HETATM   14  O3  UNL     1      17.674  28.067  13.888  1.00  0.00    -0.267 OA
HETATM   15  C11 UNL     1      16.141  27.863  12.225  1.00  0.00     0.104 A
ENDROOT
BRANCH   1  16
HETATM   16  C4  UNL     1      17.791  29.735  11.887  1.00  0.00     0.381 C
BRANCH  16  17
HETATM   17  N1  UNL     1      19.102  29.328  11.546  1.00  0.00     0.138 N
HETATM   18  C1  UNL     1      19.152  28.382  10.461  1.00  0.00     0.314 C
BRANCH  17  19
HETATM   19  C2  UNL     1      19.986  30.405  11.305  1.00  0.00     0.374 C
BRANCH  19  20
HETATM   20  C3  UNL     1      21.274  30.150  12.055  1.00  0.00     0.259 C
HETATM   21  N2  UNL     1      21.762  31.106  12.987  1.00  0.00    -0.061 NA
HETATM   22  O1  UNL     1      21.945  29.107  11.886  1.00  0.00    -0.275 OA
ENDBRANCH  19  20
ENDBRANCH  17  19
ENDBRANCH  16  17
BRANCH  16  23
HETATM   23  N3  UNL     1      17.738  30.797  10.819  1.00  0.00    -0.034 N
ATOM     24  H33 UNL     1      16.827  31.168  10.548  1.00  0.00     0.278 HD
ATOM     25  H32 UNL     1      18.088  31.729  11.042  1.00  0.00     0.278 HD
ATOM     26  H31 UNL     1      18.254  30.234  10.142  1.00  0.00     0.278 HD
ENDBRANCH  16  23
BRANCH  16  27
HETATM   27  C5  UNL     1      17.651  30.618  13.091  1.00  0.00     0.243 C
BRANCH  27  28
HETATM   28  O2  UNL     1      16.931  31.757  12.704  1.00  0.00    -0.396 OA
ATOM     29  H2  UNL     1      17.385  32.150  11.967  1.00  0.00     0.209 HD
ENDBRANCH  27  28
ENDBRANCH  16  27
ENDBRANCH   1  16
BRANCH  10  30
HETATM   30  N7  UNL     1      14.726  24.690  14.348  1.00  0.00    -0.234 N
ATOM     31  H72 UNL     1      13.777  24.342  14.210  1.00  0.00     0.174 HD
ATOM     32  H71 UNL     1      15.318  24.218  15.031  1.00  0.00     0.174 HD
ENDBRANCH  10  30
TORSDOF 8
ENDMDL