MODEL 5
REMARK VINA RESULT: -8.585676125      3.907      8.068
REMARK  6 active torsions:
REMARK  status: ('A' for Active; 'I' for Inactive)
REMARK    1  A    between atoms: N1_1  and  C1_4
REMARK    2  A    between atoms: C2_7  and  O1_8
REMARK    3  A    between atoms: O1_8  and  C3_9
REMARK    4  A    between atoms: C3_9  and  C4_10
REMARK       I    between atoms: C4_10  and  N3_12
REMARK    5  A    between atoms: N3_12  and  N4_14
REMARK    6  A    between atoms: C6_21  and  N8_22
ROOT
HETATM    1  C1  UNL     1      15.167  28.786  11.599  1.00  0.00     0.693 A
HETATM    2  N2  UNL     1      15.108  29.357  12.819  1.00  0.00    -0.154 N
ATOM      3  H2  UNL     1      14.205  29.496  13.273  1.00  0.00     0.188 HD
HETATM    4  C2  UNL     1      16.216  29.735  13.427  1.00  0.00     0.252 A
HETATM    5  N7  UNL     1      17.389  29.530  12.785  1.00  0.00    -0.154 N
ATOM      6  H7  UNL     1      18.248  29.821  13.253  1.00  0.00     0.188 HD
HETATM    7  C6  UNL     1      17.495  28.969  11.575  1.00  0.00     0.698 A
HETATM    8  N10 UNL     1      16.328  28.588  10.975  1.00  0.00    -0.022 N
ATOM      9  H10 UNL     1      16.345  28.153  10.053  1.00  0.00     0.203 HD
ENDROOT
BRANCH   4  10
HETATM   10  O1  UNL     1      16.213  30.321  14.669  1.00  0.00    -0.312 OA
BRANCH  10  11
HETATM   11  C3  UNL     1      17.317  30.721  15.393  1.00  0.00     0.283 C
BRANCH  11  12
HETATM   12  C4  UNL     1      18.030  29.556  15.958  1.00  0.00     0.260 C
HETATM   13  O2  UNL     1      18.931  28.918  15.348  1.00  0.00    -0.269 OA
HETATM   14  N3  UNL     1      17.708  29.098  17.266  1.00  0.00    -0.266 N
ATOM     15  H3  UNL     1      16.986  29.583  17.800  1.00  0.00     0.190 HD
BRANCH  14  16
HETATM   16  N4  UNL     1      18.352  28.008  17.834  1.00  0.00    -0.273 N
HETATM   17  C5  UNL     1      18.300  27.836  19.102  1.00  0.00     0.215 C
HETATM   18  N5  UNL     1      17.592  28.752  19.914  1.00  0.00    -0.065 NA
HETATM   19  N6  UNL     1      18.956  26.726  19.673  1.00  0.00    -0.065 NA
ATOM     20  H4  UNL     1      18.863  27.349  17.246  1.00  0.00     0.189 HD
ENDBRANCH  14  16
ENDBRANCH  11  12
ENDBRANCH  10  11
ENDBRANCH   4  10
BRANCH   1  21
HETATM   21  N1  UNL     1      14.077  28.418  11.013  1.00  0.00    -0.234 N
ATOM     22  H12 UNL     1      13.765  27.453  11.119  1.00  0.00     0.174 HD
ATOM     23  H11 UNL     1      13.551  29.093  10.458  1.00  0.00     0.174 HD
ENDBRANCH   1  21
BRANCH   7  24
HETATM   24  N8  UNL     1      18.745  28.766  10.924  1.00  0.00    -0.214 N
HETATM   25  C7  UNL     1      19.808  28.179  11.705  1.00  0.00     0.168 C
HETATM   26  C8  UNL     1      20.953  27.652  10.918  1.00  0.00     0.252 C
HETATM   27  N9  UNL     1      20.713  27.594   9.487  1.00  0.00    -0.072 N
HETATM   28  C9  UNL     1      20.335  28.959   9.099  1.00  0.00     0.252 C
ATOM     29  H92 UNL     1      21.497  27.218   8.954  1.00  0.00     0.277 HD
ATOM     30  H91 UNL     1      20.033  26.886   9.213  1.00  0.00     0.277 HD
HETATM   31  C10 UNL     1      18.909  29.139   9.557  1.00  0.00     0.168 C
ENDBRANCH   7  24
TORSDOF 6
ENDMDL