MODEL 2
REMARK VINA RESULT: -8.158663420      1.012      1.053
REMARK  9 active torsions:
REMARK  status: ('A' for Active; 'I' for Inactive)
REMARK    1  A    between atoms: N1_1  and  C1_5
REMARK    2  A    between atoms: C1_5  and  C2_6
REMARK    3  A    between atoms: C2_6  and  N2_7
REMARK    4  A    between atoms: N2_7  and  C3_9
REMARK    5  A    between atoms: C4_12  and  C5_13
REMARK       I    between atoms: C5_13  and  N4_15
REMARK    6  A    between atoms: N4_15  and  N5_17
REMARK    7  A    between atoms: C6_20  and  N6_21
REMARK    8  A    between atoms: C7_24  and  N7_25
REMARK    9  A    between atoms: N7_25  and  N8_27
ROOT
HETATM    1  C3  UNL     1      16.896  27.404  11.489  1.00  0.00     0.680 A
HETATM    2  N3  UNL     1      16.702  28.225  12.517  1.00  0.00    -0.184 N
ATOM      3  H3  UNL     1      15.858  28.123  13.080  1.00  0.00     0.184 HD
HETATM    4  C4  UNL     1      17.617  29.219  12.846  1.00  0.00     0.155 A
HETATM    5  C6  UNL     1      18.738  29.325  12.072  1.00  0.00     0.181 A
HETATM    6  C7  UNL     1      18.888  28.442  11.014  1.00  0.00     0.171 A
HETATM    7  N11 UNL     1      17.991  27.509  10.734  1.00  0.00    -0.173 N
ATOM      8  H11 UNL     1      18.137  26.877   9.947  1.00  0.00     0.186 HD
ENDROOT
BRANCH   1   9
HETATM    9  N2  UNL     1      16.034  26.465  11.177  1.00  0.00    -0.224 N
ATOM     10  H2  UNL     1      16.197  25.835  10.391  1.00  0.00     0.177 HD
BRANCH   9  11
HETATM   11  C2  UNL     1      14.846  26.358  11.991  1.00  0.00     0.165 C
BRANCH  11  12
HETATM   12  C1  UNL     1      14.804  24.966  12.584  1.00  0.00     0.249 C
BRANCH  12  13
HETATM   13  N1  UNL     1      14.793  24.015  11.508  1.00  0.00    -0.078 N
ATOM     14  H13 UNL     1      14.210  23.202  11.710  1.00  0.00     0.274 HD
ATOM     15  H12 UNL     1      14.284  24.352  10.691  1.00  0.00     0.274 HD
ATOM     16  H11 UNL     1      15.757  23.762  11.292  1.00  0.00     0.274 HD
ENDBRANCH  12  13
ENDBRANCH  11  12
ENDBRANCH   9  11
ENDBRANCH   1   9
BRANCH   4  17
HETATM   17  C5  UNL     1      17.274  30.071  13.918  1.00  0.00     0.289 C
HETATM   18  O1  UNL     1      16.053  30.496  13.950  1.00  0.00    -0.264 OA
HETATM   19  N4  UNL     1      18.073  30.528  14.964  1.00  0.00    -0.271 N
ATOM     20  H4  UNL     1      19.050  30.240  15.017  1.00  0.00     0.189 HD
BRANCH  19  21
HETATM   21  N5  UNL     1      17.534  31.401  15.969  1.00  0.00    -0.342 N
ATOM     22  H52 UNL     1      17.854  31.295  16.932  1.00  0.00     0.176 HD
ATOM     23  H51 UNL     1      16.845  32.112  15.725  1.00  0.00     0.176 HD
ENDBRANCH  19  21
ENDBRANCH   4  17
BRANCH   6  24
HETATM   24  N7  UNL     1      19.943  28.552  10.287  1.00  0.00    -0.281 N
ATOM     25  H7  UNL     1      20.277  29.479  10.022  1.00  0.00     0.188 HD
BRANCH  24  26
HETATM   26  N8  UNL     1      20.634  27.429   9.857  1.00  0.00    -0.274 N
HETATM   27  C8  UNL     1      21.888  27.326  10.091  1.00  0.00     0.215 C
HETATM   28  N9  UNL     1      22.561  28.353  10.780  1.00  0.00    -0.065 NA
HETATM   29  N10 UNL     1      22.555  26.165   9.647  1.00  0.00    -0.065 NA
ATOM     30  H8  UNL     1      20.144  26.688   9.356  1.00  0.00     0.189 HD
ENDBRANCH  24  26
ENDBRANCH   6  24
BRANCH   5  31
HETATM   31  N6  UNL     1      19.772  30.281  12.212  1.00  0.00    -0.109 N
HETATM   32  O2  UNL     1      20.686  30.000  13.048  1.00  0.00    -0.532 OA
HETATM   33  O3  UNL     1      19.923  31.414  11.486  1.00  0.00    -0.532 OA
ENDBRANCH   5  31
TORSDOF 9
ENDMDL