MODEL 1
REMARK VINA RESULT: -8.774552223      0.000      0.000
REMARK  7 active torsions:
REMARK  status: ('A' for Active; 'I' for Inactive)
REMARK    1  A    between atoms: N1_1  and  C1_4
REMARK    2  A    between atoms: N5_18  and  C7_19
REMARK    3  A    between atoms: C7_19  and  C8_20
REMARK    4  A    between atoms: C8_20  and  C9_21
REMARK    5  A    between atoms: C9_21  and  N6_22
REMARK       I    between atoms: N6_22  and  C10_24
REMARK    6  A    between atoms: N8_26  and  N9_28
REMARK    7  A    between atoms: N9_28  and  N10_30
ROOT
HETATM    1  C1  UNL     1      19.397  28.411  10.373  1.00  0.00     0.682 A
HETATM    2  N2  UNL     1      18.690  28.714   9.253  1.00  0.00    -0.175 N
ATOM      3  H2  UNL     1      18.369  27.961   8.644  1.00  0.00     0.186 HD
HETATM    4  C2  UNL     1      18.408  29.980   8.934  1.00  0.00     0.143 A
HETATM    5  N3  UNL     1      17.708  30.327   7.819  1.00  0.00    -0.337 N
ATOM      6  H3  UNL     1      17.375  29.595   7.192  1.00  0.00     0.168 HD
HETATM    7  C3  UNL     1      17.445  31.617   7.526  1.00  0.00     0.184 A
HETATM    8  N4  UNL     1      17.863  32.619   8.325  1.00  0.00    -0.319 N
ATOM      9  H4  UNL     1      17.658  33.591   8.096  1.00  0.00     0.169 HD
HETATM   10  C4  UNL     1      18.560  32.302   9.436  1.00  0.00     0.265 A
HETATM   11  O1  UNL     1      18.962  33.215  10.200  1.00  0.00    -0.267 OA
HETATM   12  C5  UNL     1      18.851  30.990   9.775  1.00  0.00     0.145 A
HETATM   13  C6  UNL     1      19.568  30.655  10.910  1.00  0.00     0.281 A
HETATM   14  O2  UNL     1      19.962  31.594  11.664  1.00  0.00    -0.266 OA
HETATM   15  N5  UNL     1      19.839  29.361  11.208  1.00  0.00    -0.147 N
ENDROOT
BRANCH  15  16
HETATM   16  C7  UNL     1      20.556  29.138  12.433  1.00  0.00     0.153 C
BRANCH  16  17
HETATM   17  C8  UNL     1      19.736  28.677  13.585  1.00  0.00     0.041 C
BRANCH  17  18
HETATM   18  C9  UNL     1      19.338  29.716  14.572  1.00  0.00     0.124 C
BRANCH  18  19
HETATM   19  N6  UNL     1      18.230  30.549  14.170  1.00  0.00    -0.363 N
HETATM   20  C10 UNL     1      16.946  30.088  13.875  1.00  0.00     0.204 C
HETATM   21  N7  UNL     1      16.384  28.845  14.268  1.00  0.00    -0.062 NA
HETATM   22  N8  UNL     1      16.164  30.859  13.167  1.00  0.00    -0.260 N
ATOM     23  H8  UNL     1      16.517  31.765  12.857  1.00  0.00     0.191 HD
ATOM     24  H6  UNL     1      18.398  31.552  14.097  1.00  0.00     0.162 HD
BRANCH  22  25
HETATM   25  N9  UNL     1      14.879  30.494  12.823  1.00  0.00    -0.247 N
ATOM     26  H9  UNL     1      14.091  30.963  13.271  1.00  0.00     0.207 HD
BRANCH  25  27
HETATM   27  N10 UNL     1      14.629  29.493  11.871  1.00  0.00    -0.331 N
ATOM     28 2H10 UNL     1      14.166  29.760  11.003  1.00  0.00     0.178 HD
ATOM     29 1H10 UNL     1      14.899  28.522  12.033  1.00  0.00     0.178 HD
ENDBRANCH  25  27
ENDBRANCH  22  25
ENDBRANCH  18  19
ENDBRANCH  17  18
ENDBRANCH  16  17
ENDBRANCH  15  16
BRANCH   1  30
HETATM   30  N1  UNL     1      19.629  27.158  10.548  1.00  0.00    -0.234 N
ATOM     31  H12 UNL     1      19.582  26.472   9.795  1.00  0.00     0.174 HD
ATOM     32  H11 UNL     1      19.843  26.888  11.509  1.00  0.00     0.174 HD
ENDBRANCH   1  30
TORSDOF 7
ENDMDL