MODEL 5
REMARK VINA RESULT: -7.377468622      1.831      2.596
REMARK  10 active torsions:
REMARK  status: ('A' for Active; 'I' for Inactive)
REMARK    1  A    between atoms: N1_1  and  C1_4
REMARK    2  A    between atoms: C3_10  and  N4_11
REMARK    3  A    between atoms: C4_14  and  C5_15
REMARK    4  A    between atoms: C5_15  and  N5_16
REMARK    5  A    between atoms: C5_15  and  N6_20
REMARK    6  A    between atoms: N6_20  and  N7_21
REMARK    7  A    between atoms: N7_21  and  C6_22
REMARK    8  A    between atoms: N7_21  and  C7_24
REMARK    9  A    between atoms: C7_24  and  C8_25
REMARK   10  A    between atoms: C8_25  and  O3_26
ROOT
HETATM    1  C1  UNL     1      14.799  25.088  12.382  1.00  0.00     0.694 A
HETATM    2  N2  UNL     1      14.430  25.942  11.385  1.00  0.00    -0.140 N
ATOM      3  H2  UNL     1      13.858  25.628  10.601  1.00  0.00     0.189 HD
HETATM    4  C2  UNL     1      14.853  27.221  11.480  1.00  0.00     0.361 A
HETATM    5  O1  UNL     1      14.529  28.034  10.569  1.00  0.00    -0.245 OA
HETATM    6  N3  UNL     1      15.604  27.664  12.497  1.00  0.00    -0.079 N
HETATM    7  C3  UNL     1      15.999  28.979  12.536  1.00  0.00     0.138 A
HETATM    8  C4  UNL     1      16.759  29.417  13.571  1.00  0.00     0.050 A
HETATM    9  C9  UNL     1      17.089  28.463  14.554  1.00  0.00     0.120 A
HETATM   10  N8  UNL     1      16.700  27.192  14.509  1.00  0.00    -0.200 N
ATOM     11  H8  UNL     1      16.968  26.542  15.248  1.00  0.00     0.183 HD
HETATM   12  C10 UNL     1      15.946  26.777  13.469  1.00  0.00     0.709 A
HETATM   13  N9  UNL     1      15.549  25.499  13.414  1.00  0.00    -0.022 N
ATOM     14  H9  UNL     1      15.816  24.845  14.150  1.00  0.00     0.203 HD
ENDROOT
BRANCH   8  15
HETATM   15  C5  UNL     1      17.267  30.792  13.663  1.00  0.00     0.334 C
BRANCH  15  16
HETATM   16  N5  UNL     1      16.657  31.591  14.677  1.00  0.00    -0.055 N
ATOM     17  H53 UNL     1      15.642  31.495  14.639  1.00  0.00     0.276 HD
ATOM     18  H52 UNL     1      16.839  31.192  15.598  1.00  0.00     0.276 HD
ATOM     19  H51 UNL     1      16.919  32.576  14.661  1.00  0.00     0.276 HD
ENDBRANCH  15  16
BRANCH  15  20
HETATM   20  N6  UNL     1      18.717  30.882  13.656  1.00  0.00    -0.098 NA
BRANCH  20  21
HETATM   21  N7  UNL     1      19.186  30.563  12.399  1.00  0.00    -0.268 N
BRANCH  21  22
HETATM   22  C6  UNL     1      18.784  31.080  11.165  1.00  0.00     0.367 C
HETATM   23  O2  UNL     1      19.273  32.133  10.710  1.00  0.00    -0.282 OA
ENDBRANCH  21  22
BRANCH  21  24
HETATM   24  C7  UNL     1      20.250  29.540  12.368  1.00  0.00     0.173 C
BRANCH  24  25
HETATM   25  C8  UNL     1      21.606  30.178  12.453  1.00  0.00     0.185 C
BRANCH  25  26
HETATM   26  O3  UNL     1      21.628  31.428  13.027  1.00  0.00    -0.399 OA
ATOM     27  H3  UNL     1      21.882  31.447  13.942  1.00  0.00     0.209 HD
ENDBRANCH  25  26
ENDBRANCH  24  25
ENDBRANCH  21  24
ENDBRANCH  20  21
ENDBRANCH  15  20
ENDBRANCH   8  15
BRANCH   7  28
HETATM   28  N4  UNL     1      15.608  29.697  11.611  1.00  0.00    -0.384 N
ATOM     29  H42 UNL     1      14.769  29.517  11.062  1.00  0.00     0.157 HD
ATOM     30  H41 UNL     1      16.188  30.508  11.391  1.00  0.00     0.157 HD
ENDBRANCH   7  28
BRANCH   1  31
HETATM   31  N1  UNL     1      14.365  23.858  12.255  1.00  0.00    -0.234 N
ATOM     32  H12 UNL     1      13.748  23.559  11.499  1.00  0.00     0.174 HD
ATOM     33  H11 UNL     1      14.690  23.205  12.968  1.00  0.00     0.174 HD
ENDBRANCH   1  31
TORSDOF 10
ENDMDL