MODEL 2
REMARK VINA RESULT: -7.726711730      0.972      1.163
REMARK  10 active torsions:
REMARK  status: ('A' for Active; 'I' for Inactive)
REMARK    1  A    between atoms: N1_1  and  C1_4
REMARK    2  A    between atoms: C2_7  and  N3_8
REMARK    3  A    between atoms: N3_8  and  C3_10
REMARK    4  A    between atoms: C3_10  and  C4_11
REMARK    5  A    between atoms: C4_11  and  O1_12
REMARK    6  A    between atoms: C8_22  and  N6_23
REMARK    7  A    between atoms: N7_26  and  C9_27
REMARK    8  A    between atoms: C9_27  and  C10_28
REMARK    9  A    between atoms: C10_28  and  C11_30
REMARK   10  A    between atoms: C11_30  and  O4_31
ROOT
HETATM    1  C1  UNL     1      15.374  27.221  11.375  1.00  0.00     0.134 A
HETATM    2  N2  UNL     1      15.706  28.041  10.368  1.00  0.00    -0.176 N
ATOM      3  H2  UNL     1      15.288  27.879   9.451  1.00  0.00     0.186 HD
HETATM    4  C2  UNL     1      16.553  29.054  10.507  1.00  0.00     0.681 A
HETATM    5  N4  UNL     1      17.120  29.289  11.710  1.00  0.00    -0.175 N
ATOM      6  H4  UNL     1      17.769  30.068  11.817  1.00  0.00     0.186 HD
HETATM    7  C5  UNL     1      16.838  28.511  12.764  1.00  0.00     0.159 A
HETATM    8  C6  UNL     1      15.943  27.445  12.606  1.00  0.00     0.122 A
HETATM    9  C7  UNL     1      15.647  26.626  13.696  1.00  0.00     0.277 A
HETATM   10  O2  UNL     1      14.847  25.676  13.543  1.00  0.00    -0.266 OA
HETATM   11  N5  UNL     1      16.245  26.907  14.859  1.00  0.00    -0.155 N
ATOM     12  H5  UNL     1      16.035  26.312  15.661  1.00  0.00     0.187 HD
HETATM   13  C8  UNL     1      17.094  27.909  15.036  1.00  0.00     0.683 A
HETATM   14  N7  UNL     1      17.371  28.698  13.960  1.00  0.00    -0.160 N
ENDROOT
BRANCH   4  15
HETATM   15  N3  UNL     1      16.880  29.850   9.549  1.00  0.00    -0.224 N
ATOM     16  H3  UNL     1      16.123  30.323   9.054  1.00  0.00     0.177 HD
BRANCH  15  17
HETATM   17  C3  UNL     1      18.213  30.127   9.120  1.00  0.00     0.164 C
BRANCH  17  18
HETATM   18  C4  UNL     1      18.467  31.616   9.349  1.00  0.00     0.184 C
BRANCH  18  19
HETATM   19  O1  UNL     1      18.277  31.985  10.661  1.00  0.00    -0.399 OA
ATOM     20  H1  UNL     1      17.930  32.865  10.743  1.00  0.00     0.209 HD
ENDBRANCH  18  19
ENDBRANCH  17  18
ENDBRANCH  15  17
ENDBRANCH   4  15
BRANCH   1  21
HETATM   21  N1  UNL     1      14.551  26.236  11.239  1.00  0.00    -0.384 N
ATOM     22  H12 UNL     1      14.815  25.452  10.643  1.00  0.00     0.157 HD
ATOM     23  H11 UNL     1      13.642  26.203  11.701  1.00  0.00     0.157 HD
ENDBRANCH   1  21
BRANCH  14  24
HETATM   24  C9  UNL     1      18.284  29.795  14.189  1.00  0.00     0.229 C
BRANCH  24  25
HETATM   25  C10 UNL     1      17.490  31.037  14.357  1.00  0.00     0.168 C
HETATM   26  O3  UNL     1      17.025  31.566  13.374  1.00  0.00    -0.294 OA
BRANCH  25  27
HETATM   27  C11 UNL     1      17.241  31.659  15.685  1.00  0.00     0.244 C
BRANCH  27  28
HETATM   28  O4  UNL     1      16.577  30.790  16.546  1.00  0.00    -0.394 OA
ATOM     29  H4  UNL     1      15.849  31.216  16.983  1.00  0.00     0.209 HD
ENDBRANCH  27  28
ENDBRANCH  25  27
ENDBRANCH  24  25
ENDBRANCH  14  24
BRANCH  13  30
HETATM   30  N6  UNL     1      17.658  28.158  16.169  1.00  0.00    -0.234 N
ATOM     31  H62 UNL     1      17.105  28.554  16.930  1.00  0.00     0.174 HD
ATOM     32  H61 UNL     1      18.646  27.978  16.349  1.00  0.00     0.174 HD
ENDBRANCH  13  30
TORSDOF 10
ENDMDL