MODEL 4
REMARK VINA RESULT: -7.014186889      2.519      5.918
REMARK  9 active torsions:
REMARK  status: ('A' for Active; 'I' for Inactive)
REMARK    1  A    between atoms: O1_2  and  C2_3
REMARK    2  A    between atoms: C3_4  and  N1_5
REMARK    3  A    between atoms: C6_10  and  N3_11
REMARK    4  A    between atoms: C7_15  and  O2_16
REMARK    5  A    between atoms: O2_16  and  C8_17
REMARK    6  A    between atoms: C9_18  and  O3_19
REMARK    7  A    between atoms: C10_21  and  N4_22
REMARK    8  A    between atoms: C12_27  and  N5_28
REMARK    9  A    between atoms: C13_32  and  O4_33
ROOT
HETATM    1  C8  UNL     1      17.922  29.267  12.582  1.00  0.00     0.183 C
HETATM    2  C9  UNL     1      16.543  28.874  12.225  1.00  0.00     0.180 C
HETATM    3  C10 UNL     1      15.464  29.207  13.194  1.00  0.00     0.216 C
HETATM    4  C11 UNL     1      15.861  28.915  14.597  1.00  0.00     0.071 C
HETATM    5  C12 UNL     1      17.182  29.553  14.982  1.00  0.00     0.216 C
HETATM    6  C13 UNL     1      18.281  29.203  14.041  1.00  0.00     0.180 C
ENDROOT
BRANCH   1   7
HETATM    7  O2  UNL     1      18.789  28.347  11.951  1.00  0.00    -0.371 OA
BRANCH   7   8
HETATM    8  C7  UNL     1      19.851  28.938  11.315  1.00  0.00     0.183 C
HETATM    9  C2  UNL     1      19.584  30.409  11.183  1.00  0.00     0.174 C
HETATM   10  C3  UNL     1      19.542  30.684   9.689  1.00  0.00     0.115 C
HETATM   11  C5  UNL     1      18.932  29.398   9.171  1.00  0.00     0.063 C
HETATM   12  C6  UNL     1      19.820  28.378   9.878  1.00  0.00     0.216 C
BRANCH   9  13
HETATM   13  O1  UNL     1      20.520  31.217  11.822  1.00  0.00    -0.386 OA
HETATM   14  C1  UNL     1      21.448  30.528  12.569  1.00  0.00     0.202 C
ENDBRANCH   9  13
BRANCH  10  15
HETATM   15  N1  UNL     1      18.779  31.847   9.361  1.00  0.00    -0.381 N
HETATM   16  C4  UNL     1      18.637  32.269   8.167  1.00  0.00     0.185 C
HETATM   17  N2  UNL     1      17.880  33.422   7.839  1.00  0.00    -0.097 NA
ATOM     18  H1  UNL     1      18.328  32.362  10.117  1.00  0.00     0.160 HD
ENDBRANCH  10  15
BRANCH  12  19
HETATM   19  N3  UNL     1      21.134  28.332   9.306  1.00  0.00    -0.072 N
ATOM     20  H33 UNL     1      21.099  28.383   8.287  1.00  0.00     0.274 HD
ATOM     21  H32 UNL     1      21.650  29.192   9.490  1.00  0.00     0.274 HD
ATOM     22  H31 UNL     1      21.654  27.512   9.619  1.00  0.00     0.274 HD
ENDBRANCH  12  19
ENDBRANCH   7   8
ENDBRANCH   1   7
BRANCH   2  23
HETATM   23  O3  UNL     1      16.244  29.485  10.983  1.00  0.00    -0.391 OA
ATOM     24  H3  UNL     1      15.452  29.076  10.654  1.00  0.00     0.210 HD
ENDBRANCH   2  23
BRANCH   6  25
HETATM   25  O4  UNL     1      18.687  27.882  14.339  1.00  0.00    -0.391 OA
ATOM     26  H4  UNL     1      17.928  27.401  14.648  1.00  0.00     0.210 HD
ENDBRANCH   6  25
BRANCH   3  27
HETATM   27  N4  UNL     1      14.945  30.554  13.021  1.00  0.00    -0.072 N
ATOM     28  H43 UNL     1      15.694  31.207  12.794  1.00  0.00     0.274 HD
ATOM     29  H42 UNL     1      14.396  30.626  12.165  1.00  0.00     0.274 HD
ATOM     30  H41 UNL     1      14.409  30.879  13.826  1.00  0.00     0.274 HD
ENDBRANCH   3  27
BRANCH   5  31
HETATM   31  N5  UNL     1      17.064  30.961  15.246  1.00  0.00    -0.072 N
ATOM     32  H53 UNL     1      16.160  31.317  14.937  1.00  0.00     0.274 HD
ATOM     33  H52 UNL     1      16.979  31.139  16.247  1.00  0.00     0.274 HD
ATOM     34  H51 UNL     1      17.828  31.505  14.843  1.00  0.00     0.274 HD
ENDBRANCH   5  31
TORSDOF 9
ENDMDL