MODEL 3
REMARK VINA RESULT: -7.477768175      3.718      6.249
REMARK  8 active torsions:
REMARK  status: ('A' for Active; 'I' for Inactive)
REMARK    1  A    between atoms: N2_3  and  C2_5
REMARK    2  A    between atoms: C2_5  and  C3_6
REMARK    3  A    between atoms: C3_6  and  N3_7
REMARK    4  A    between atoms: N7_19  and  C8_20
REMARK    5  A    between atoms: C9_22  and  C10_23
REMARK    6  A    between atoms: C10_23  and  O2_24
REMARK    7  A    between atoms: C11_26  and  N8_27
REMARK    8  A    between atoms: C12_31  and  O3_32
ROOT
HETATM    1  N3  UNL     1      16.784  31.265   7.046  1.00  0.00    -0.372 N
ATOM      2  H3  UNL     1      15.991  31.049   6.441  1.00  0.00     0.161 HD
HETATM    3  C4  UNL     1      16.873  30.636   8.170  1.00  0.00     0.147 A
HETATM    4  N4  UNL     1      16.003  29.710   8.613  1.00  0.00    -0.282 N
ATOM      5  H4  UNL     1      15.171  29.399   8.112  1.00  0.00     0.188 HD
HETATM    6  N5  UNL     1      16.392  29.262   9.807  1.00  0.00    -0.282 N
ATOM      7  H5  UNL     1      15.899  28.555  10.354  1.00  0.00     0.188 HD
HETATM    8  C5  UNL     1      17.524  29.874  10.186  1.00  0.00     0.156 A
HETATM    9  C6  UNL     1      17.834  30.745   9.153  1.00  0.00     0.124 A
HETATM   10  N6  UNL     1      18.958  31.358   9.524  1.00  0.00    -0.346 N
ATOM     11  H6  UNL     1      19.451  32.066   8.980  1.00  0.00     0.167 HD
HETATM   12  C7  UNL     1      19.345  30.892  10.741  1.00  0.00     0.188 A
HETATM   13  N7  UNL     1      18.456  29.975  11.148  1.00  0.00    -0.296 N
ENDROOT
BRANCH  13  14
HETATM   14  C8  UNL     1      18.460  29.216  12.378  1.00  0.00     0.261 C
HETATM   15  O1  UNL     1      17.347  28.430  12.533  1.00  0.00    -0.354 OA
HETATM   16  C9  UNL     1      16.950  28.452  13.839  1.00  0.00     0.180 C
HETATM   17  C11 UNL     1      18.029  29.143  14.640  1.00  0.00     0.247 C
HETATM   18  C12 UNL     1      18.550  30.115  13.595  1.00  0.00     0.200 C
BRANCH  16  19
HETATM   19  C10 UNL     1      16.624  27.085  14.393  1.00  0.00     0.198 C
BRANCH  19  20
HETATM   20  O2  UNL     1      15.343  27.111  14.941  1.00  0.00    -0.398 OA
ATOM     21  H2  UNL     1      15.394  27.442  15.831  1.00  0.00     0.209 HD
ENDBRANCH  19  20
ENDBRANCH  16  19
BRANCH  17  22
HETATM   22  N8  UNL     1      19.108  28.222  14.927  1.00  0.00    -0.070 N
ATOM     23  H83 UNL     1      19.841  28.656  15.489  1.00  0.00     0.274 HD
ATOM     24  H82 UNL     1      18.824  27.496  15.586  1.00  0.00     0.274 HD
ATOM     25  H81 UNL     1      19.475  27.827  14.061  1.00  0.00     0.274 HD
ENDBRANCH  17  22
BRANCH  18  26
HETATM   26  O3  UNL     1      19.870  30.482  13.855  1.00  0.00    -0.389 OA
ATOM     27  H3  UNL     1      20.062  31.345  13.505  1.00  0.00     0.210 HD
ENDBRANCH  18  26
ENDBRANCH  13  14
BRANCH   1  28
HETATM   28  C3  UNL     1      17.719  32.244   6.594  1.00  0.00     0.141 C
BRANCH  28  29
HETATM   29  C2  UNL     1      16.977  33.400   5.958  1.00  0.00     0.139 C
BRANCH  29  30
HETATM   30  N2  UNL     1      16.921  34.504   6.889  1.00  0.00    -0.386 N
HETATM   31  C1  UNL     1      17.422  34.378   8.064  1.00  0.00     0.185 C
HETATM   32  N1  UNL     1      17.343  35.501   8.952  1.00  0.00    -0.097 NA
ATOM     33  H2  UNL     1      16.484  35.383   6.613  1.00  0.00     0.159 HD
ENDBRANCH  29  30
ENDBRANCH  28  29
ENDBRANCH   1  28
TORSDOF 8
ENDMDL