MODEL 4
REMARK VINA RESULT: -8.016905030      1.783      2.082
REMARK  9 active torsions:
REMARK  status: ('A' for Active; 'I' for Inactive)
REMARK    1  A    between atoms: N1_1  and  C1_4
REMARK    2  A    between atoms: N4_12  and  C4_14
REMARK    3  A    between atoms: C4_14  and  C5_15
REMARK    4  A    between atoms: C5_15  and  O2_16
REMARK    5  A    between atoms: O2_16  and  C6_17
REMARK    6  A    between atoms: C6_17  and  C7_19
REMARK    7  A    between atoms: C9_21  and  C10_22
REMARK    8  A    between atoms: C10_22  and  N5_23
REMARK    9  A    between atoms: C10_22  and  O4_27
ROOT
HETATM    1  C5  UNL     1      21.067  28.671  10.592  1.00  0.00     0.199 C
ENDROOT
BRANCH   1   2
HETATM    2  C4  UNL     1      20.013  27.606  10.771  1.00  0.00     0.165 C
BRANCH   2   3
HETATM    3  N4  UNL     1      18.711  27.996  10.363  1.00  0.00    -0.223 N
HETATM    4  C3  UNL     1      17.695  27.854  11.146  1.00  0.00     0.696 A
HETATM    5  N3  UNL     1      17.751  27.341  12.386  1.00  0.00    -0.140 N
HETATM    6  N8  UNL     1      16.463  28.246  10.702  1.00  0.00    -0.022 N
HETATM    7  C2  UNL     1      16.657  27.215  13.160  1.00  0.00     0.352 A
ATOM      8  H3  UNL     1      18.653  27.036  12.753  1.00  0.00     0.189 HD
HETATM    9  N2  UNL     1      15.458  27.611  12.694  1.00  0.00    -0.141 N
HETATM   10  O1  UNL     1      16.719  26.729  14.331  1.00  0.00    -0.246 OA
HETATM   11  C1  UNL     1      15.361  28.132  11.453  1.00  0.00     0.694 A
ATOM     12  H2  UNL     1      14.625  27.519  13.277  1.00  0.00     0.189 HD
ATOM     13  H8  UNL     1      16.381  28.641   9.765  1.00  0.00     0.203 HD
ATOM     14  H4  UNL     1      18.575  28.396   9.434  1.00  0.00     0.177 HD
BRANCH  11  15
HETATM   15  N1  UNL     1      14.191  28.495  11.059  1.00  0.00    -0.234 N
ATOM     16  H12 UNL     1      13.569  27.896  10.516  1.00  0.00     0.174 HD
ATOM     17  H11 UNL     1      13.886  29.435  11.312  1.00  0.00     0.174 HD
ENDBRANCH  11  15
ENDBRANCH   2   3
ENDBRANCH   1   2
BRANCH   1  18
HETATM   18  O2  UNL     1      21.626  29.144  11.784  1.00  0.00    -0.315 OA
BRANCH  18  19
HETATM   19  C6  UNL     1      21.227  30.222  12.520  1.00  0.00     0.311 C
HETATM   20  O3  UNL     1      22.082  31.096  12.810  1.00  0.00    -0.258 OA
BRANCH  19  21
HETATM   21  C7  UNL     1      19.844  30.402  12.986  1.00  0.00     0.125 A
HETATM   22  C8  UNL     1      19.369  30.089  14.239  1.00  0.00     0.068 A
HETATM   23  C9  UNL     1      18.023  30.418  14.247  1.00  0.00     0.083 A
HETATM   24  N6  UNL     1      17.750  30.906  13.024  1.00  0.00    -0.300 N
HETATM   25  N7  UNL     1      18.826  30.900  12.268  1.00  0.00    -0.295 N
ATOM     26  H6  UNL     1      16.833  31.235  12.724  1.00  0.00     0.186 HD
ATOM     27  H7  UNL     1      18.877  31.220  11.301  1.00  0.00     0.187 HD
BRANCH  23  28
HETATM   28  C10 UNL     1      17.117  30.242  15.407  1.00  0.00     0.368 C
BRANCH  28  29
HETATM   29  N5  UNL     1      17.814  29.566  16.484  1.00  0.00    -0.047 N
ATOM     30  H53 UNL     1      17.605  28.568  16.507  1.00  0.00     0.277 HD
ATOM     31  H52 UNL     1      18.817  29.504  16.311  1.00  0.00     0.277 HD
ATOM     32  H51 UNL     1      17.607  30.020  17.374  1.00  0.00     0.277 HD
ENDBRANCH  28  29
BRANCH  28  33
HETATM   33  O4  UNL     1      15.995  29.504  15.064  1.00  0.00    -0.365 OA
ATOM     34  H4  UNL     1      15.309  29.592  15.716  1.00  0.00     0.212 HD
ENDBRANCH  28  33
ENDBRANCH  23  28
ENDBRANCH  19  21
ENDBRANCH  18  19
ENDBRANCH   1  18
TORSDOF 9
ENDMDL