MODEL 1
REMARK VINA RESULT: -7.947621940      0.000      0.000
REMARK  5 active torsions:
REMARK  status: ('A' for Active; 'I' for Inactive)
REMARK    1  A    between atoms: C1_4  and  C2_5
REMARK       I    between atoms: N3_9  and  C4_11
REMARK       I    between atoms: C4_11  and  N4_12
REMARK       I    between atoms: C4_11  and  N5_16
REMARK    2  A    between atoms: C8_28  and  N8_29
REMARK    3  A    between atoms: N8_29  and  C9_31
REMARK    4  A    between atoms: C9_31  and  C10_32
REMARK    5  A    between atoms: C10_32  and  N9_33
ROOT
HETATM    1  C2  UNL     1      21.575  24.498  39.802  1.00  0.00     0.193 C
HETATM    2  N2  UNL     1      20.383  25.043  39.166  1.00  0.00    -0.199 N
ATOM      3  H2  UNL     1      19.490  25.057  39.660  1.00  0.00     0.179 HD
HETATM    4  C3  UNL     1      20.487  25.561  37.830  1.00  0.00     0.681 C
HETATM    5  N3  UNL     1      19.444  25.612  37.112  1.00  0.00    -0.174 N
ATOM      6  H3  UNL     1      19.574  25.988  36.172  1.00  0.00     0.181 HD
HETATM    7  C4  UNL     1      18.118  25.216  37.437  1.00  0.00     0.494 C
HETATM    8  N4  UNL     1      18.099  23.833  37.842  1.00  0.00    -0.032 N
ATOM      9  H41 UNL     1      17.148  23.548  38.075  1.00  0.00     0.278 HD
ATOM     10  H42 UNL     1      18.750  23.650  38.606  1.00  0.00     0.278 HD
ATOM     11  H43 UNL     1      18.518  23.224  37.139  1.00  0.00     0.278 HD
HETATM   12  N5  UNL     1      17.469  26.037  38.439  1.00  0.00    -0.032 N
ATOM     13  H51 UNL     1      16.518  25.753  38.673  1.00  0.00     0.278 HD
ATOM     14  H52 UNL     1      17.487  27.018  38.159  1.00  0.00     0.278 HD
ATOM     15  H53 UNL     1      18.041  26.083  39.282  1.00  0.00     0.278 HD
HETATM   16  N6  UNL     1      21.743  26.010  37.325  1.00  0.00    -0.155 N
ATOM     17  H6  UNL     1      21.816  26.376  36.375  1.00  0.00     0.187 HD
HETATM   18  C5  UNL     1      22.905  25.941  38.168  1.00  0.00     0.285 C
HETATM   19  O1  UNL     1      23.990  26.331  37.721  1.00  0.00    -0.265 OA
HETATM   20  C6  UNL     1      22.727  25.401  39.538  1.00  0.00     0.121 C
HETATM   21  N7  UNL     1      23.519  25.746  40.467  1.00  0.00    -0.360 N
ATOM     22  H7  UNL     1      24.294  26.362  40.219  1.00  0.00     0.165 HD
HETATM   23  C7  UNL     1      23.412  25.345  41.826  1.00  0.00     0.121 C
HETATM   24  C8  UNL     1      22.428  24.557  42.232  1.00  0.00     0.097 C
HETATM   25  C11 UNL     1      21.437  24.192  41.217  1.00  0.00     0.217 C
HETATM   26  O2  UNL     1      20.389  23.568  41.602  1.00  0.00    -0.287 OA
ENDROOT
BRANCH   1  27
HETATM   27  C1  UNL     1      21.821  23.182  39.095  1.00  0.00     0.100 C
HETATM   28  N1  UNL     1      20.963  22.246  39.201  1.00  0.00    -0.408 N
ATOM     29  H12 UNL     1      20.124  22.399  39.761  1.00  0.00     0.155 HD
ATOM     30  H11 UNL     1      21.128  21.360  38.725  1.00  0.00     0.155 HD
ENDBRANCH   1  27
BRANCH  24  31
HETATM   31  N8  UNL     1      22.241  24.104  43.549  1.00  0.00    -0.364 N
ATOM     32  H8  UNL     1      22.494  23.132  43.728  1.00  0.00     0.165 HD
BRANCH  31  33
HETATM   33  C9  UNL     1      21.746  24.827  44.653  1.00  0.00     0.088 C
BRANCH  33  34
HETATM   34  C10 UNL     1      20.487  25.591  44.452  1.00  0.00     0.274 C
BRANCH  34  35
HETATM   35  N9  UNL     1      19.342  24.841  44.076  1.00  0.00    -0.075 N
ATOM     36  H93 UNL     1      19.343  24.697  43.067  1.00  0.00     0.274 HD
ATOM     37  H92 UNL     1      19.440  23.880  44.402  1.00  0.00     0.274 HD
ATOM     38  H91 UNL     1      18.437  25.212  44.368  1.00  0.00     0.274 HD
ENDBRANCH  34  35
ENDBRANCH  33  34
ENDBRANCH  31  33
ENDBRANCH  24  31
TORSDOF 5
ENDMDL