MODEL 3
REMARK VINA RESULT: -7.571459462      3.394      4.987
REMARK  10 active torsions:
REMARK  status: ('A' for Active; 'I' for Inactive)
REMARK    1  A    between atoms: N1_2  and  C2_3
REMARK    2  A    between atoms: N1_2  and  C4_7
REMARK    3  A    between atoms: C2_3  and  C3_4
REMARK    4  A    between atoms: C3_4  and  O1_5
REMARK    5  A    between atoms: C4_7  and  C5_8
REMARK    6  A    between atoms: C5_8  and  N2_9
REMARK    7  A    between atoms: N2_9  and  C6_11
REMARK    8  A    between atoms: N4_19  and  N5_21
REMARK    9  A    between atoms: C12_26  and  N7_27
REMARK   10  A    between atoms: N8_30  and  N9_31
ROOT
HETATM    1  C6  UNL     1      20.436  24.839  39.015  1.00  0.00     0.101 A
HETATM    2  C7  UNL     1      20.338  23.520  39.477  1.00  0.00     0.050 A
HETATM    3  C8  UNL     1      20.744  23.231  40.759  1.00  0.00     0.038 A
HETATM    4  C9  UNL     1      21.243  24.238  41.577  1.00  0.00     0.104 A
HETATM    5  C10 UNL     1      21.337  25.540  41.112  1.00  0.00     0.110 A
HETATM    6  N3  UNL     1      20.921  25.762  39.839  1.00  0.00    -0.338 N
ATOM      7  H3  UNL     1      20.985  26.717  39.485  1.00  0.00     0.167 HD
HETATM    8  C11 UNL     1      21.836  26.522  41.936  1.00  0.00     0.164 A
HETATM    9  N4  UNL     1      21.965  27.693  41.622  1.00  0.00    -0.290 N
ATOM     10  H4  UNL     1      22.354  28.180  42.428  1.00  0.00     0.188 HD
HETATM   11  N6  UNL     1      22.230  26.162  43.222  1.00  0.00    -0.172 N
ATOM     12  H6  UNL     1      22.602  26.875  43.848  1.00  0.00     0.186 HD
HETATM   13  C12 UNL     1      22.132  24.918  43.647  1.00  0.00     0.699 A
HETATM   14  N8  UNL     1      21.645  23.964  42.837  1.00  0.00    -0.091 N
ENDROOT
BRANCH   1  15
HETATM   15  N2  UNL     1      20.071  25.101  37.836  1.00  0.00    -0.375 N
ATOM     16  H2  UNL     1      19.248  24.585  37.523  1.00  0.00     0.161 HD
BRANCH  15  17
HETATM   17  C5  UNL     1      20.609  25.991  36.874  1.00  0.00     0.141 C
BRANCH  17  18
HETATM   18  C4  UNL     1      22.072  25.660  36.541  1.00  0.00     0.141 C
BRANCH  18  19
HETATM   19  N1  UNL     1      22.829  26.843  36.611  1.00  0.00    -0.394 N
HETATM   20  C1  UNL     1      23.548  27.148  37.775  1.00  0.00     0.148 C
BRANCH  19  21
HETATM   21  C2  UNL     1      23.141  27.524  35.419  1.00  0.00     0.083 C
BRANCH  21  22
HETATM   22  C3  UNL     1      24.286  28.502  35.540  1.00  0.00     0.208 C
BRANCH  22  23
HETATM   23  O1  UNL     1      23.787  29.806  35.380  1.00  0.00    -0.396 OA
ATOM     24  H1  UNL     1      23.102  29.952  36.022  1.00  0.00     0.209 HD
ENDBRANCH  22  23
ENDBRANCH  21  22
ENDBRANCH  19  21
ENDBRANCH  18  19
ENDBRANCH  17  18
ENDBRANCH  15  17
ENDBRANCH   1  15
BRANCH  14  25
HETATM   25  N9  UNL     1      21.539  22.651  43.273  1.00  0.00    -0.324 N
ATOM     26  H92 UNL     1      20.787  22.369  43.902  1.00  0.00     0.178 HD
ATOM     27  H91 UNL     1      22.238  21.986  42.941  1.00  0.00     0.178 HD
ENDBRANCH  14  25
BRANCH   9  28
HETATM   28  N5  UNL     1      21.810  28.576  40.677  1.00  0.00    -0.344 N
ATOM     29  H52 UNL     1      20.807  28.604  40.497  1.00  0.00     0.176 HD
ATOM     30  H51 UNL     1      22.278  29.237  40.057  1.00  0.00     0.176 HD
ENDBRANCH   9  28
BRANCH  13  31
HETATM   31  N7  UNL     1      22.507  24.600  44.858  1.00  0.00    -0.233 N
ATOM     32  H72 UNL     1      23.236  23.898  44.987  1.00  0.00     0.174 HD
ATOM     33  H71 UNL     1      22.077  25.047  45.668  1.00  0.00     0.174 HD
ENDBRANCH  13  31
TORSDOF 10
ENDMDL