MODEL 3
REMARK VINA RESULT: -7.496023371      2.459      2.739
REMARK  12 active torsions:
REMARK  status: ('A' for Active; 'I' for Inactive)
REMARK    1  A    between atoms: O1_1  and  C1_3
REMARK    2  A    between atoms: C1_3  and  N1_4
REMARK    3  A    between atoms: N1_4  and  C2_6
REMARK    4  A    between atoms: N3_10  and  C4_12
REMARK    5  A    between atoms: C4_12  and  C5_13
REMARK    6  A    between atoms: C5_13  and  O2_14
REMARK    7  A    between atoms: N6_23  and  C9_24
REMARK    8  A    between atoms: C9_24  and  O3_25
REMARK    9  A    between atoms: C9_24  and  C10_27
REMARK   10  A    between atoms: C9_24  and  C11_30
REMARK   11  A    between atoms: C10_27  and  O4_28
REMARK   12  A    between atoms: C11_30  and  O5_31
ROOT
HETATM    1  C2  UNL     1      20.664  22.634  40.449  1.00  0.00     0.688 A
HETATM    2  N2  UNL     1      19.921  23.133  39.444  1.00  0.00    -0.174 N
ATOM      3  H2  UNL     1      19.447  22.480  38.821  1.00  0.00     0.186 HD
HETATM    4  C3  UNL     1      19.772  24.453  39.222  1.00  0.00     0.147 A
HETATM    5  N3  UNL     1      19.064  24.895  38.266  1.00  0.00    -0.372 N
ATOM      6  H3  UNL     1      18.608  24.206  37.668  1.00  0.00     0.161 HD
HETATM    7  C6  UNL     1      20.437  25.295  40.096  1.00  0.00     0.123 A
HETATM    8  N4  UNL     1      20.479  26.662  40.134  1.00  0.00    -0.346 N
ATOM      9  H4  UNL     1      20.008  27.303  39.495  1.00  0.00     0.167 HD
HETATM   10  C7  UNL     1      21.251  26.995  41.165  1.00  0.00     0.182 A
HETATM   11  N5  UNL     1      21.691  25.851  41.771  1.00  0.00    -0.336 N
ATOM     12  H5  UNL     1      22.300  25.815  42.589  1.00  0.00     0.168 HD
HETATM   13  C8  UNL     1      21.197  24.777  41.123  1.00  0.00     0.158 A
HETATM   14  N6  UNL     1      21.321  23.421  41.312  1.00  0.00    -0.128 N
ENDROOT
BRANCH  14  15
HETATM   15  C9  UNL     1      22.131  23.007  42.402  1.00  0.00     0.199 C
BRANCH  15  16
HETATM   16  O3  UNL     1      21.303  22.216  43.221  1.00  0.00    -0.366 OA
ATOM     17  H3  UNL     1      21.723  22.193  44.073  1.00  0.00     0.212 HD
ENDBRANCH  15  16
BRANCH  15  18
HETATM   18  C10 UNL     1      22.621  24.181  43.210  1.00  0.00     0.228 C
BRANCH  18  19
HETATM   19  O4  UNL     1      23.826  23.843  43.883  1.00  0.00    -0.396 OA
ATOM     20  H4  UNL     1      23.963  24.425  44.620  1.00  0.00     0.209 HD
ENDBRANCH  18  19
ENDBRANCH  15  18
BRANCH  15  21
HETATM   21  C11 UNL     1      23.322  22.158  42.121  1.00  0.00     0.228 C
BRANCH  21  22
HETATM   22  O5  UNL     1      23.062  20.960  42.863  1.00  0.00    -0.396 OA
ATOM     23  H5  UNL     1      23.754  20.371  42.585  1.00  0.00     0.209 HD
ENDBRANCH  21  22
ENDBRANCH  15  21
ENDBRANCH  14  15
BRANCH   1  24
HETATM   24  N1  UNL     1      20.767  21.368  40.621  1.00  0.00    -0.205 N
ATOM     25  H1  UNL     1      20.489  20.993  41.528  1.00  0.00     0.179 HD
BRANCH  24  26
HETATM   26  C1  UNL     1      21.240  20.440  39.641  1.00  0.00     0.305 C
BRANCH  26  27
HETATM   27  O1  UNL     1      20.360  20.477  38.541  1.00  0.00    -0.382 OA
ATOM     28  H1  UNL     1      20.445  19.658  38.067  1.00  0.00     0.211 HD
ENDBRANCH  26  27
ENDBRANCH  24  26
ENDBRANCH   1  24
BRANCH   5  29
HETATM   29  C4  UNL     1      18.850  26.262  37.957  1.00  0.00     0.147 C
BRANCH  29  30
HETATM   30  C5  UNL     1      17.434  26.718  38.356  1.00  0.00     0.183 C
BRANCH  30  31
HETATM   31  O2  UNL     1      17.532  27.242  39.645  1.00  0.00    -0.399 OA
ATOM     32  H2  UNL     1      16.695  27.648  39.838  1.00  0.00     0.209 HD
ENDBRANCH  30  31
ENDBRANCH  29  30
ENDBRANCH   5  29
TORSDOF 12
ENDMDL