MODEL 4
REMARK VINA RESULT: -7.693365825      1.842      4.067
REMARK  8 active torsions:
REMARK  status: ('A' for Active; 'I' for Inactive)
REMARK    1  A    between atoms: N1_1  and  C1_5
REMARK    2  A    between atoms: C1_5  and  C2_6
REMARK    3  A    between atoms: C2_6  and  C3_7
REMARK    4  A    between atoms: C3_7  and  N2_8
REMARK    5  A    between atoms: C5_13  and  N4_14
REMARK    6  A    between atoms: N4_14  and  N5_16
REMARK       I    between atoms: N5_16  and  C6_18
REMARK       I    between atoms: C6_18  and  N6_19
REMARK       I    between atoms: C6_18  and  N7_23
REMARK    7  A    between atoms: C8_30  and  S1_31
REMARK    8  A    between atoms: S1_31  and  N9_32
ROOT
HETATM    1  N2  UNL     1      20.608  26.388  40.766  1.00  0.00    -0.374 N
ATOM      2  H2  UNL     1      19.719  26.240  41.242  1.00  0.00     0.161 HD
HETATM    3  C4  UNL     1      20.338  26.167  39.599  1.00  0.00     0.141 A
HETATM    4  N3  UNL     1      19.041  25.813  39.270  1.00  0.00    -0.174 N
ATOM      5  H3  UNL     1      18.355  25.764  40.023  1.00  0.00     0.186 HD
HETATM    6  C5  UNL     1      18.637  25.534  38.048  1.00  0.00     0.698 A
HETATM    7  N8  UNL     1      19.494  25.582  37.016  1.00  0.00    -0.199 N
ATOM      8  H8  UNL     1      19.190  25.368  36.065  1.00  0.00     0.183 HD
HETATM    9  C7  UNL     1      20.752  25.918  37.277  1.00  0.00     0.135 A
HETATM   10  C8  UNL     1      21.241  26.224  38.546  1.00  0.00     0.139 A
ENDROOT
BRANCH   6  11
HETATM   11  N4  UNL     1      17.402  25.200  37.765  1.00  0.00    -0.133 N
ATOM     12  H4  UNL     1      17.207  24.252  37.445  1.00  0.00     0.205 HD
BRANCH  11  13
HETATM   13  N5  UNL     1      16.348  26.103  37.888  1.00  0.00    -0.270 N
HETATM   14  C6  UNL     1      15.142  25.993  37.105  1.00  0.00     0.495 C
HETATM   15  N6  UNL     1      14.244  27.074  37.463  1.00  0.00    -0.032 N
HETATM   16  N7  UNL     1      14.441  24.752  37.335  1.00  0.00    -0.032 N
ATOM     17  H63 UNL     1      14.054  27.105  38.465  1.00  0.00     0.279 HD
ATOM     18  H62 UNL     1      14.683  27.991  37.373  1.00  0.00     0.279 HD
ATOM     19  H61 UNL     1      13.391  26.996  36.909  1.00  0.00     0.279 HD
ATOM     20  H73 UNL     1      15.054  23.951  37.180  1.00  0.00     0.279 HD
ATOM     21  H72 UNL     1      14.247  24.621  38.327  1.00  0.00     0.279 HD
ATOM     22  H71 UNL     1      13.589  24.674  36.781  1.00  0.00     0.279 HD
ATOM     23  H5  UNL     1      16.432  26.869  38.557  1.00  0.00     0.184 HD
ENDBRANCH  11  13
ENDBRANCH   6  11
BRANCH   1  24
HETATM   24  C3  UNL     1      21.442  26.722  41.774  1.00  0.00     0.123 C
BRANCH  24  25
HETATM   25  C2  UNL     1      21.893  25.539  42.659  1.00  0.00     0.047 C
BRANCH  25  26
HETATM   26  C1  UNL     1      20.729  25.224  43.579  1.00  0.00     0.231 C
BRANCH  26  27
HETATM   27  N1  UNL     1      21.012  25.598  44.947  1.00  0.00    -0.079 N
ATOM     28  H13 UNL     1      21.343  26.562  45.008  1.00  0.00     0.274 HD
ATOM     29  H12 UNL     1      20.155  25.690  45.492  1.00  0.00     0.274 HD
ATOM     30  H11 UNL     1      21.665  24.951  45.388  1.00  0.00     0.274 HD
ENDBRANCH  26  27
ENDBRANCH  25  26
ENDBRANCH  24  25
ENDBRANCH   1  24
BRANCH  10  31
HETATM   31  S1  UNL     1      22.913  26.688  38.748  1.00  0.00     0.261 S
HETATM   32  O1  UNL     1      23.616  25.660  39.545  1.00  0.00    -0.201 OA
HETATM   33  O2  UNL     1      23.063  28.087  39.277  1.00  0.00    -0.201 OA
BRANCH  31  34
HETATM   34  N9  UNL     1      23.621  26.756  37.143  1.00  0.00    -0.324 N
ATOM     35  H92 UNL     1      23.189  27.170  36.318  1.00  0.00     0.169 HD
ATOM     36  H91 UNL     1      24.535  26.308  37.203  1.00  0.00     0.169 HD
ENDBRANCH  31  34
ENDBRANCH  10  31
TORSDOF 8
ENDMDL