MODEL 3
REMARK VINA RESULT: -7.928291444      3.182      3.880
REMARK  7 active torsions:
REMARK  status: ('A' for Active; 'I' for Inactive)
REMARK    1  A    between atoms: C1_4  and  S1_6
REMARK    2  A    between atoms: S1_6  and  C2_7
REMARK    3  A    between atoms: C2_7  and  C3_8
REMARK    4  A    between atoms: C3_8  and  N3_9
REMARK    5  A    between atoms: C6_18  and  N6_19
REMARK    6  A    between atoms: N6_19  and  N7_21
REMARK       I    between atoms: N7_21  and  C7_23
REMARK    7  A    between atoms: C7_23  and  C8_25
ROOT
HETATM    1  N3  UNL     1      20.877  25.732  40.242  1.00  0.00    -0.266 N
HETATM    2  N4  UNL     1      20.959  27.059  40.204  1.00  0.00    -0.247 N
ATOM      3  H4  UNL     1      20.501  27.561  39.444  1.00  0.00     0.192 HD
HETATM    4  C4  UNL     1      21.628  27.757  41.139  1.00  0.00     0.342 A
HETATM    5  O1  UNL     1      21.684  29.014  41.073  1.00  0.00    -0.245 OA
HETATM    6  N5  UNL     1      22.221  27.051  42.129  1.00  0.00    -0.271 N
ATOM      7  H5  UNL     1      22.736  27.549  42.855  1.00  0.00     0.174 HD
HETATM    8  C5  UNL     1      22.147  25.689  42.184  1.00  0.00     0.296 A
HETATM    9  O2  UNL     1      22.704  25.072  43.110  1.00  0.00    -0.264 OA
HETATM   10  C6  UNL     1      21.453  24.998  41.211  1.00  0.00     0.206 A
ENDROOT
BRANCH  10  11
HETATM   11  N6  UNL     1      21.333  23.737  41.182  1.00  0.00    -0.277 N
ATOM     12  H6  UNL     1      20.406  23.363  41.387  1.00  0.00     0.189 HD
BRANCH  11  13
HETATM   13  N7  UNL     1      22.327  22.813  40.901  1.00  0.00    -0.262 N
HETATM   14  C7  UNL     1      22.086  21.444  40.653  1.00  0.00     0.300 C
HETATM   15  O3  UNL     1      20.891  20.993  40.679  1.00  0.00    -0.263 OA
ATOM     16  H7  UNL     1      23.291  23.142  40.873  1.00  0.00     0.190 HD
BRANCH  14  17
HETATM   17  C8  UNL     1      23.202  20.558  40.368  1.00  0.00     0.180 C
HETATM   18  N8  UNL     1      23.260  20.002  39.207  1.00  0.00    -0.383 N
ATOM     19  H82 UNL     1      22.533  20.189  38.517  1.00  0.00     0.157 HD
ATOM     20  H81 UNL     1      24.043  19.380  39.007  1.00  0.00     0.157 HD
HETATM   21  N9  UNL     1      24.219  20.296  41.333  1.00  0.00    -0.077 NA
ENDBRANCH  14  17
ENDBRANCH  11  13
ENDBRANCH  10  11
BRANCH   1  22
HETATM   22  C3  UNL     1      20.141  25.032  39.204  1.00  0.00     0.161 C
BRANCH  22  23
HETATM   23  C2  UNL     1      19.902  25.968  38.064  1.00  0.00     0.104 C
BRANCH  23  24
HETATM   24  S1  UNL     1      18.222  25.875  37.443  1.00  0.00    -0.096 SA
BRANCH  24  25
HETATM   25  C1  UNL     1      17.128  26.738  38.539  1.00  0.00     0.147 C
HETATM   26  N1  UNL     1      15.867  26.701  38.313  1.00  0.00    -0.382 N
ATOM     27  H12 UNL     1      15.238  27.198  38.943  1.00  0.00     0.157 HD
ATOM     28  H11 UNL     1      15.487  26.187  37.519  1.00  0.00     0.157 HD
HETATM   29  N2  UNL     1      17.656  27.451  39.640  1.00  0.00    -0.075 NA
ENDBRANCH  24  25
ENDBRANCH  23  24
ENDBRANCH  22  23
ENDBRANCH   1  22
TORSDOF 7
ENDMDL