MODEL 1
REMARK VINA RESULT: -8.059796480      0.000      0.000
REMARK  7 active torsions:
REMARK  status: ('A' for Active; 'I' for Inactive)
REMARK    1  A    between atoms: N1_1  and  C1_4
REMARK    2  A    between atoms: N4_16  and  C6_17
REMARK    3  A    between atoms: C6_17  and  C7_18
REMARK    4  A    between atoms: C7_18  and  C8_19
REMARK    5  A    between atoms: C8_19  and  C9_20
REMARK    6  A    between atoms: C9_20  and  N5_21
REMARK    7  A    between atoms: C9_20  and  C10_25
ROOT
HETATM    1  C1  UNL     1      22.997  24.709  38.055  1.00  0.00     0.680 A
HETATM    2  N2  UNL     1      23.391  25.966  37.764  1.00  0.00    -0.155 N
ATOM      3  H2  UNL     1      23.892  26.154  36.895  1.00  0.00     0.187 HD
HETATM    4  C2  UNL     1      23.126  26.970  38.616  1.00  0.00     0.279 A
HETATM    5  O1  UNL     1      23.491  28.162  38.357  1.00  0.00    -0.266 OA
HETATM    6  C3  UNL     1      22.446  26.664  39.780  1.00  0.00     0.145 A
HETATM    7  C4  UNL     1      22.157  27.668  40.677  1.00  0.00     0.269 A
HETATM    8  O2  UNL     1      22.521  28.857  40.421  1.00  0.00    -0.267 OA
HETATM    9  N3  UNL     1      21.501  27.353  41.798  1.00  0.00    -0.274 N
ATOM     10  H3  UNL     1      21.279  28.083  42.475  1.00  0.00     0.173 HD
HETATM   11  C5  UNL     1      21.131  26.090  42.040  1.00  0.00     0.331 A
HETATM   12  O3  UNL     1      20.510  25.827  43.111  1.00  0.00    -0.246 OA
HETATM   13  N4  UNL     1      21.386  25.053  41.191  1.00  0.00    -0.284 N
HETATM   14  C11 UNL     1      22.049  25.367  40.061  1.00  0.00     0.148 A
HETATM   15  N7  UNL     1      22.334  24.386  39.181  1.00  0.00    -0.175 N
ATOM     16  H7  UNL     1      22.053  23.423  39.364  1.00  0.00     0.186 HD
ENDROOT
BRANCH  13  17
HETATM   17  C6  UNL     1      20.959  23.708  41.515  1.00  0.00     0.135 C
BRANCH  17  18
HETATM   18  C7  UNL     1      22.037  22.928  42.255  1.00  0.00     0.023 C
BRANCH  18  19
HETATM   19  C8  UNL     1      22.053  21.527  41.707  1.00  0.00     0.043 C
BRANCH  19  20
HETATM   20  C9  UNL     1      23.253  21.187  40.892  1.00  0.00     0.271 C
BRANCH  20  21
HETATM   21  N5  UNL     1      23.810  19.961  41.495  1.00  0.00    -0.067 N
ATOM     22  H53 UNL     1      24.828  19.966  41.567  1.00  0.00     0.275 HD
ATOM     23  H52 UNL     1      23.620  19.873  42.493  1.00  0.00     0.275 HD
ATOM     24  H51 UNL     1      23.443  19.188  40.939  1.00  0.00     0.275 HD
ENDBRANCH  20  21
BRANCH  20  25
HETATM   25  C10 UNL     1      22.990  20.856  39.488  1.00  0.00     0.261 C
HETATM   26  N6  UNL     1      23.752  19.943  38.728  1.00  0.00    -0.060 NA
HETATM   27  O4  UNL     1      22.027  21.409  38.899  1.00  0.00    -0.275 OA
ENDBRANCH  20  25
ENDBRANCH  19  20
ENDBRANCH  18  19
ENDBRANCH  17  18
ENDBRANCH  13  17
BRANCH   1  28
HETATM   28  N1  UNL     1      23.250  23.726  37.235  1.00  0.00    -0.234 N
ATOM     29  H12 UNL     1      22.817  23.788  36.313  1.00  0.00     0.174 HD
ATOM     30  H11 UNL     1      23.848  22.952  37.522  1.00  0.00     0.174 HD
ENDBRANCH   1  28
TORSDOF 7
ENDMDL