MODEL 2
REMARK VINA RESULT: -8.508604528      2.498      5.973
REMARK  7 active torsions:
REMARK  status: ('A' for Active; 'I' for Inactive)
REMARK    1  A    between atoms: N1_1  and  C1_4
REMARK    2  A    between atoms: N3_9  and  C3_10
REMARK    3  A    between atoms: C3_10  and  C4_11
REMARK    4  A    between atoms: C4_11  and  N4_12
REMARK    5  A    between atoms: N4_12  and  N5_14
REMARK       I    between atoms: N5_14  and  C5_16
REMARK    6  A    between atoms: C7_22  and  C8_23
REMARK    7  A    between atoms: C8_23  and  O2_24
ROOT
HETATM    1  C1  UNL     1      21.796  25.253  42.452  1.00  0.00     0.122 A
HETATM    2  N2  UNL     1      21.775  24.023  43.000  1.00  0.00    -0.294 N
ATOM      3  H2  UNL     1      22.251  23.864  43.888  1.00  0.00     0.172 HD
HETATM    4  C2  UNL     1      21.145  23.011  42.407  1.00  0.00     0.329 A
HETATM    5  O1  UNL     1      21.162  21.886  42.970  1.00  0.00    -0.246 OA
HETATM    6  N3  UNL     1      20.477  23.101  41.223  1.00  0.00    -0.283 N
HETATM    7  C6  UNL     1      20.480  24.312  40.651  1.00  0.00     0.132 A
HETATM    8  N8  UNL     1      19.875  24.535  39.472  1.00  0.00    -0.329 N
ATOM      9  H8  UNL     1      19.396  23.757  39.020  1.00  0.00     0.168 HD
HETATM   10  C7  UNL     1      19.869  25.730  38.860  1.00  0.00     0.109 A
HETATM   11  N9  UNL     1      20.505  26.747  39.466  1.00  0.00    -0.310 N
ATOM     12  H9  UNL     1      20.506  27.658  39.008  1.00  0.00     0.170 HD
HETATM   13  C9  UNL     1      21.140  26.626  40.642  1.00  0.00     0.264 A
HETATM   14  O3  UNL     1      21.733  27.584  41.204  1.00  0.00    -0.267 OA
HETATM   15  C10 UNL     1      21.131  25.389  41.251  1.00  0.00     0.120 A
ENDROOT
BRANCH   6  16
HETATM   16  C3  UNL     1      19.872  21.934  40.662  1.00  0.00     0.156 C
BRANCH  16  17
HETATM   17  C4  UNL     1      20.368  21.467  39.352  1.00  0.00     0.159 C
BRANCH  17  18
HETATM   18  N4  UNL     1      21.271  20.382  39.281  1.00  0.00    -0.333 N
ATOM     19  H4  UNL     1      21.274  19.721  38.505  1.00  0.00     0.180 HD
BRANCH  18  20
HETATM   20  N5  UNL     1      22.180  20.280  40.379  1.00  0.00    -0.280 N
HETATM   21  C5  UNL     1      23.424  20.037  40.184  1.00  0.00     0.215 C
HETATM   22  N6  UNL     1      24.344  19.931  41.245  1.00  0.00    -0.065 NA
HETATM   23  N7  UNL     1      23.882  19.870  38.857  1.00  0.00    -0.065 NA
ATOM     24  H5  UNL     1      21.836  20.403  41.331  1.00  0.00     0.189 HD
ENDBRANCH  18  20
ENDBRANCH  17  18
ENDBRANCH  16  17
ENDBRANCH   6  16
BRANCH   1  25
HETATM   25  N1  UNL     1      22.402  26.247  43.015  1.00  0.00    -0.384 N
ATOM     26  H12 UNL     1      23.028  26.117  43.809  1.00  0.00     0.157 HD
ATOM     27  H11 UNL     1      22.282  27.208  42.693  1.00  0.00     0.157 HD
ENDBRANCH   1  25
BRANCH  10  28
HETATM   28  C8  UNL     1      19.180  25.930  37.546  1.00  0.00     0.240 C
BRANCH  28  29
HETATM   29  O2  UNL     1      19.981  25.510  36.487  1.00  0.00    -0.393 OA
ATOM     30  H2  UNL     1      20.341  26.251  36.013  1.00  0.00     0.209 HD
ENDBRANCH  28  29
ENDBRANCH  10  28
TORSDOF 7
ENDMDL