MODEL 1
REMARK VINA RESULT: -7.653969892      0.000      0.000
REMARK  9 active torsions:
REMARK  status: ('A' for Active; 'I' for Inactive)
REMARK    1  A    between atoms: C3_7  and  N3_8
REMARK    2  A    between atoms: N3_8  and  C4_10
REMARK    3  A    between atoms: C4_10  and  C6_12
REMARK    4  A    between atoms: C4_10  and  C7_15
REMARK    5  A    between atoms: C6_12  and  O1_13
REMARK    6  A    between atoms: C7_15  and  O2_16
REMARK    7  A    between atoms: C9_20  and  N5_21
REMARK    8  A    between atoms: N5_21  and  N6_23
REMARK       I    between atoms: N6_23  and  C10_25
REMARK    9  A    between atoms: N9_30  and  N10_31
ROOT
HETATM    1  C1  UNL     1      23.545  19.682  39.337  1.00  0.00     0.165 C
HETATM    2  N1  UNL     1      22.650  20.699  38.984  1.00  0.00    -0.228 N
ATOM      3  H1  UNL     1      22.482  20.760  37.980  1.00  0.00     0.177 HD
HETATM    4  C2  UNL     1      22.004  21.564  39.656  1.00  0.00     0.728 A
HETATM    5  N2  UNL     1      21.195  22.430  38.967  1.00  0.00    -0.020 N
ATOM      6  H2  UNL     1      21.150  22.341  37.951  1.00  0.00     0.203 HD
HETATM    7  C3  UNL     1      20.466  23.379  39.544  1.00  0.00     0.708 A
HETATM    8  N4  UNL     1      20.550  23.464  40.887  1.00  0.00    -0.018 N
ATOM      9  H4  UNL     1      20.005  24.178  41.370  1.00  0.00     0.203 HD
HETATM   10  C9  UNL     1      21.339  22.627  41.624  1.00  0.00     0.747 A
HETATM   11  N9  UNL     1      22.051  21.694  40.995  1.00  0.00     0.085 N
ENDROOT
BRANCH   7  12
HETATM   12  N3  UNL     1      19.699  24.207  38.952  1.00  0.00    -0.212 N
ATOM     13  H3  UNL     1      18.749  23.872  38.793  1.00  0.00     0.178 HD
BRANCH  12  14
HETATM   14  C4  UNL     1      19.957  25.525  38.476  1.00  0.00     0.086 C
HETATM   15  C5  UNL     1      21.271  25.563  37.765  1.00  0.00     0.043 C
BRANCH  14  16
HETATM   16  C6  UNL     1      19.812  26.556  39.574  1.00  0.00     0.197 C
BRANCH  16  17
HETATM   17  O1  UNL     1      18.784  26.280  40.437  1.00  0.00    -0.398 OA
ATOM     18  H1  UNL     1      19.080  26.077  41.316  1.00  0.00     0.209 HD
ENDBRANCH  16  17
ENDBRANCH  14  16
BRANCH  14  19
HETATM   19  C7  UNL     1      18.906  25.913  37.410  1.00  0.00     0.200 C
BRANCH  19  20
HETATM   20  O2  UNL     1      17.772  25.129  37.584  1.00  0.00    -0.393 OA
HETATM   21  C8  UNL     1      16.612  25.795  37.271  1.00  0.00     0.201 C
ENDBRANCH  19  20
ENDBRANCH  14  19
ENDBRANCH  12  14
ENDBRANCH   7  12
BRANCH  10  22
HETATM   22  N5  UNL     1      21.332  22.806  42.871  1.00  0.00    -0.127 N
ATOM     23  H5  UNL     1      20.937  22.061  43.445  1.00  0.00     0.205 HD
BRANCH  22  24
HETATM   24  N6  UNL     1      21.808  23.909  43.523  1.00  0.00    -0.259 N
HETATM   25  C10 UNL     1      20.974  24.973  43.950  1.00  0.00     0.201 C
HETATM   26  N7  UNL     1      21.320  25.665  44.968  1.00  0.00    -0.372 N
HETATM   27  N8  UNL     1      19.789  25.246  43.252  1.00  0.00    -0.062 NA
ATOM     28  H72 UNL     1      22.183  25.467  45.476  1.00  0.00     0.158 HD
ATOM     29  H71 UNL     1      20.720  26.431  45.275  1.00  0.00     0.158 HD
ATOM     30  H6  UNL     1      22.809  23.970  43.711  1.00  0.00     0.190 HD
ENDBRANCH  22  24
ENDBRANCH  10  22
BRANCH  11  31
HETATM   31  N10 UNL     1      22.885  20.807  41.726  1.00  0.00    -0.309 N
ATOM     32 2H10 UNL     1      22.907  19.812  41.502  1.00  0.00     0.178 HD
ATOM     33 1H10 UNL     1      23.458  21.192  42.477  1.00  0.00     0.178 HD
ENDBRANCH  11  31
TORSDOF 9
ENDMDL