MODEL 1
REMARK VINA RESULT: -8.008136526      0.000      0.000
REMARK  9 active torsions:
REMARK  status: ('A' for Active; 'I' for Inactive)
REMARK    1  A    between atoms: N1_1  and  C1_4
REMARK    2  A    between atoms: C4_12  and  C5_13
REMARK    3  A    between atoms: C5_13  and  C6_14
REMARK    4  A    between atoms: C6_14  and  N4_15
REMARK    5  A    between atoms: C6_14  and  C7_19
REMARK    6  A    between atoms: C8_21  and  N5_22
REMARK    7  A    between atoms: C9_24  and  C10_25
REMARK    8  A    between atoms: C10_25  and  N6_26
REMARK    9  A    between atoms: C10_25  and  O3_30
ROOT
HETATM    1  C1  UNL     1      23.328  19.820  39.044  1.00  0.00     0.680 A
HETATM    2  N2  UNL     1      23.547  19.439  40.310  1.00  0.00    -0.154 N
ATOM      3  H2  UNL     1      23.786  18.465  40.497  1.00  0.00     0.187 HD
HETATM    4  C2  UNL     1      23.462  20.299  41.346  1.00  0.00     0.290 A
HETATM    5  O1  UNL     1      23.668  19.932  42.530  1.00  0.00    -0.265 OA
HETATM    6  C3  UNL     1      23.142  21.613  41.121  1.00  0.00     0.147 A
HETATM    7  N3  UNL     1      23.044  22.510  42.100  1.00  0.00    -0.349 N
ATOM      8  H3  UNL     1      23.213  22.202  43.057  1.00  0.00     0.166 HD
HETATM    9  C4  UNL     1      22.732  23.806  41.891  1.00  0.00     0.057 A
HETATM   10  C8  UNL     1      22.498  24.230  40.613  1.00  0.00     0.129 A
HETATM   11  N7  UNL     1      22.605  23.283  39.609  1.00  0.00    -0.325 N
ATOM     12  H7  UNL     1      22.436  23.577  38.647  1.00  0.00     0.169 HD
HETATM   13  C11 UNL     1      22.915  22.018  39.833  1.00  0.00     0.155 A
HETATM   14  N8  UNL     1      23.018  21.101  38.837  1.00  0.00    -0.174 N
ATOM     15  H8  UNL     1      22.850  21.408  37.879  1.00  0.00     0.186 HD
ENDROOT
BRANCH  10  16
HETATM   16  N5  UNL     1      22.130  25.356  40.299  1.00  0.00    -0.350 N
HETATM   17  C9  UNL     1      22.019  26.484  39.596  1.00  0.00     0.122 C
ATOM     18  H5  UNL     1      21.506  25.565  41.078  1.00  0.00     0.166 HD
BRANCH  17  19
HETATM   19  C10 UNL     1      21.427  27.694  40.363  1.00  0.00     0.356 C
BRANCH  19  20
HETATM   20  N6  UNL     1      21.944  27.747  41.711  1.00  0.00    -0.048 N
ATOM     21  H63 UNL     1      21.571  26.993  42.288  1.00  0.00     0.277 HD
ATOM     22  H62 UNL     1      22.932  27.493  41.748  1.00  0.00     0.277 HD
ATOM     23  H61 UNL     1      21.772  28.662  42.127  1.00  0.00     0.277 HD
ENDBRANCH  19  20
BRANCH  19  24
HETATM   24  O3  UNL     1      20.058  27.439  40.447  1.00  0.00    -0.366 OA
ATOM     25  H3  UNL     1      19.833  27.584  41.359  1.00  0.00     0.212 HD
ENDBRANCH  19  24
ENDBRANCH  17  19
ENDBRANCH  10  16
BRANCH   9  26
HETATM   26  C5  UNL     1      22.778  24.678  43.079  1.00  0.00     0.101 C
BRANCH  26  27
HETATM   27  C6  UNL     1      21.556  24.585  43.964  1.00  0.00     0.249 C
BRANCH  27  28
HETATM   28  N4  UNL     1      21.526  25.609  44.932  1.00  0.00    -0.069 N
ATOM     29  H43 UNL     1      22.464  25.829  45.267  1.00  0.00     0.275 HD
ATOM     30  H42 UNL     1      21.289  26.508  44.512  1.00  0.00     0.275 HD
ATOM     31  H41 UNL     1      20.899  25.385  45.705  1.00  0.00     0.275 HD
ENDBRANCH  27  28
BRANCH  27  32
HETATM   32  C7  UNL     1      20.307  24.575  43.121  1.00  0.00     0.264 C
HETATM   33  O2  UNL     1      19.876  25.593  42.621  1.00  0.00    -0.305 OA
ENDBRANCH  27  32
ENDBRANCH  26  27
ENDBRANCH   9  26
BRANCH   1  34
HETATM   34  N1  UNL     1      23.428  18.944  38.105  1.00  0.00    -0.234 N
ATOM     35  H12 UNL     1      23.821  19.138  37.184  1.00  0.00     0.174 HD
ATOM     36  H11 UNL     1      23.100  17.994  38.281  1.00  0.00     0.174 HD
ENDBRANCH   1  34
TORSDOF 9
ENDMDL