MODEL 3
REMARK VINA RESULT: -7.598977589      2.854      5.833
REMARK  8 active torsions:
REMARK  status: ('A' for Active; 'I' for Inactive)
REMARK    1  A    between atoms: C2_7  and  N3_8
REMARK    2  A    between atoms: N3_8  and  N4_9
REMARK    3  A    between atoms: N3_8  and  C3_12
REMARK    4  A    between atoms: N4_9  and  O1_10
REMARK    5  A    between atoms: C4_17  and  N7_18
REMARK    6  A    between atoms: N7_18  and  C5_20
REMARK    7  A    between atoms: C5_20  and  C6_21
REMARK    8  A    between atoms: C6_21  and  N8_22
ROOT
HETATM    1  N1  UNL     1      19.653  20.582  40.146  1.00  0.00    -0.234 N
ATOM      2  H11 UNL     1      19.340  20.241  39.237  1.00  0.00     0.174 HD
ATOM      3  H12 UNL     1      19.741  19.912  40.910  1.00  0.00     0.174 HD
HETATM    4  C1  UNL     1      19.924  21.837  40.285  1.00  0.00     0.705 A
HETATM    5  N2  UNL     1      20.348  22.298  41.514  1.00  0.00    -0.020 N
ATOM      6  H2  UNL     1      20.439  21.633  42.284  1.00  0.00     0.203 HD
HETATM    7  C2  UNL     1      20.643  23.570  41.733  1.00  0.00     0.733 A
HETATM    8  N6  UNL     1      20.512  24.442  40.674  1.00  0.00    -0.020 N
ATOM      9  H6  UNL     1      20.731  25.428  40.810  1.00  0.00     0.203 HD
HETATM   10  C4  UNL     1      20.101  24.019  39.467  1.00  0.00     0.707 A
HETATM   11  N10 UNL     1      19.809  22.719  39.280  1.00  0.00    -0.022 N
ATOM     12  H10 UNL     1      19.496  22.399  38.364  1.00  0.00     0.203 HD
ENDROOT
BRANCH  10  13
HETATM   13  N7  UNL     1      19.968  24.814  38.471  1.00  0.00    -0.223 N
ATOM     14  H7  UNL     1      19.152  24.648  37.883  1.00  0.00     0.177 HD
BRANCH  13  15
HETATM   15  C5  UNL     1      20.800  25.891  38.076  1.00  0.00     0.168 C
BRANCH  15  16
HETATM   16  C6  UNL     1      21.047  25.980  36.591  1.00  0.00     0.294 C
BRANCH  16  17
HETATM   17  N8  UNL     1      22.435  26.103  36.232  1.00  0.00     0.117 N
HETATM   18  C7  UNL     1      23.148  26.467  37.455  1.00  0.00     0.302 C
HETATM   19  C8  UNL     1      24.164  27.485  37.020  1.00  0.00     0.264 C
HETATM   20  N9  UNL     1      23.466  28.159  35.931  1.00  0.00    -0.047 N
HETATM   21  C9  UNL     1      22.718  27.106  35.258  1.00  0.00     0.502 C
ATOM     22  H92 UNL     1      22.891  28.946  36.233  1.00  0.00     0.279 HD
ATOM     23  H91 UNL     1      24.078  28.692  35.314  1.00  0.00     0.279 HD
ENDBRANCH  16  17
ENDBRANCH  15  16
ENDBRANCH  13  15
ENDBRANCH  10  13
BRANCH   7  24
HETATM   24  N3  UNL     1      21.056  24.111  42.971  1.00  0.00    -0.039 N
BRANCH  24  25
HETATM   25  N4  UNL     1      20.002  24.357  43.953  1.00  0.00     0.043 NA
BRANCH  25  26
HETATM   26  O1  UNL     1      18.865  23.957  43.346  1.00  0.00    -0.276 OA
ATOM     27  H1  UNL     1      18.501  23.297  43.923  1.00  0.00     0.240 HD
ENDBRANCH  25  26
ENDBRANCH  24  25
BRANCH  24  28
HETATM   28  C3  UNL     1      22.321  24.413  43.437  1.00  0.00     0.223 C
HETATM   29  N5  UNL     1      22.455  25.166  44.659  1.00  0.00    -0.068 NA
HETATM   30  S1  UNL     1      23.703  23.971  42.743  1.00  0.00    -0.042 SA
ENDBRANCH  24  28
ENDBRANCH   7  24
TORSDOF 8
ENDMDL