MODEL 5
REMARK VINA RESULT: -7.362763574      2.116      4.274
REMARK  9 active torsions:
REMARK  status: ('A' for Active; 'I' for Inactive)
REMARK    1  A    between atoms: N1_1  and  C1_4
REMARK    2  A    between atoms: C2_10  and  N4_11
REMARK    3  A    between atoms: C5_17  and  O3_18
REMARK    4  A    between atoms: C6_20  and  O4_21
REMARK    5  A    between atoms: C7_23  and  O5_24
REMARK    6  A    between atoms: C8_26  and  C9_27
REMARK    7  A    between atoms: C9_27  and  S1_28
REMARK    8  A    between atoms: S1_28  and  C10_29
REMARK    9  A    between atoms: C10_29  and  C11_30
REMARK       I    between atoms: C11_30  and  N6_32
ROOT
HETATM    1  N4  UNL     1      -1.686 -37.613  25.670  1.00  0.00    -0.242 N
HETATM    2  C3  UNL     1      -2.251 -36.446  25.197  1.00  0.00     0.333 A
HETATM    3  O2  UNL     1      -1.868 -35.315  25.572  1.00  0.00    -0.246 OA
HETATM    4  N5  UNL     1      -3.203 -36.687  24.335  1.00  0.00    -0.304 N
ATOM      5  H5  UNL     1      -3.772 -35.998  23.843  1.00  0.00     0.171 HD
HETATM    6  C4  UNL     1      -3.283 -38.035  24.227  1.00  0.00     0.101 A
HETATM    7  C5  UNL     1      -4.128 -38.815  23.473  1.00  0.00     0.131 A
HETATM    8  C6  UNL     1      -4.013 -40.181  23.564  1.00  0.00     0.135 A
HETATM    9  C7  UNL     1      -3.088 -40.773  24.376  1.00  0.00     0.111 A
HETATM   10  C8  UNL     1      -2.211 -39.979  25.156  1.00  0.00     0.017 A
HETATM   11  C13 UNL     1      -2.325 -38.623  25.069  1.00  0.00     0.085 A
ENDROOT
BRANCH  10  12
HETATM   12  C9  UNL     1      -1.247 -40.703  26.023  1.00  0.00     0.118 C
BRANCH  12  13
HETATM   13  S1  UNL     1       0.245 -40.893  24.903  1.00  0.00    -0.155 SA
BRANCH  13  14
HETATM   14  C10 UNL     1       0.209 -42.536  24.120  1.00  0.00     0.179 C
BRANCH  14  15
HETATM   15  C11 UNL     1       0.143 -42.484  22.667  1.00  0.00     0.257 C
HETATM   16  O6  UNL     1       0.825 -41.573  22.095  1.00  0.00    -0.270 OA
HETATM   17  N6  UNL     1      -0.608 -43.348  21.834  1.00  0.00    -0.154 N
HETATM   18  N7  UNL     1      -0.681 -43.293  20.497  1.00  0.00    -0.214 N
HETATM   19  C12 UNL     1      -1.365 -44.376  22.244  1.00  0.00     0.365 A
HETATM   20  N8  UNL     1      -1.457 -44.248  20.064  1.00  0.00    -0.224 N
ATOM     21  H7  UNL     1      -0.204 -42.610  19.909  1.00  0.00     0.210 HD
HETATM   22  N9  UNL     1      -1.887 -44.925  21.137  1.00  0.00    -0.234 N
ATOM     23  H8  UNL     1      -1.692 -44.443  19.091  1.00  0.00     0.210 HD
ATOM     24  H9  UNL     1      -2.512 -45.731  21.115  1.00  0.00     0.193 HD
HETATM   25  O7  UNL     1      -1.604 -44.819  23.402  1.00  0.00    -0.243 OA
ENDBRANCH  14  15
ENDBRANCH  13  14
ENDBRANCH  12  13
ENDBRANCH  10  12
BRANCH   9  26
HETATM   26  O5  UNL     1      -2.936 -42.148  24.501  1.00  0.00    -0.357 OA
ATOM     27  H5  UNL     1      -3.259 -42.652  25.239  1.00  0.00     0.217 HD
ENDBRANCH   9  26
BRANCH   8  28
HETATM   28  O4  UNL     1      -4.868 -40.965  22.801  1.00  0.00    -0.356 OA
ATOM     29  H4  UNL     1      -4.734 -41.905  22.798  1.00  0.00     0.218 HD
ENDBRANCH   8  28
BRANCH   1  30
HETATM   30  C2  UNL     1      -0.648 -37.638  26.625  1.00  0.00     0.184 A
HETATM   31  C1  UNL     1       0.702 -37.502  26.354  1.00  0.00     0.168 A
HETATM   32  N2  UNL     1       1.373 -37.529  27.531  1.00  0.00    -0.222 N
HETATM   33  O1  UNL     1       0.487 -37.673  28.467  1.00  0.00    -0.153 OA
ATOM     34  H2  UNL     1       2.383 -37.452  27.656  1.00  0.00     0.198 HD
HETATM   35  N3  UNL     1      -0.729 -37.741  27.954  1.00  0.00    -0.221 N
ATOM     36  H3  UNL     1      -1.591 -37.853  28.488  1.00  0.00     0.198 HD
BRANCH  31  37
HETATM   37  N1  UNL     1       1.254 -37.374  25.203  1.00  0.00    -0.381 N
ATOM     38  H12 UNL     1       1.559 -38.121  24.580  1.00  0.00     0.157 HD
ATOM     39  H11 UNL     1       1.464 -36.481  24.758  1.00  0.00     0.157 HD
ENDBRANCH  31  37
ENDBRANCH   1  30
BRANCH   7  40
HETATM   40  O3  UNL     1      -5.072 -38.233  22.642  1.00  0.00    -0.356 OA
ATOM     41  H3  UNL     1      -5.250 -38.597  21.783  1.00  0.00     0.218 HD
ENDBRANCH   7  40
TORSDOF 9
ENDMDL