MODEL 1
REMARK VINA RESULT: -7.274544597      0.000      0.000
REMARK  12 active torsions:
REMARK  status: ('A' for Active; 'I' for Inactive)
REMARK    1  A    between atoms: O1_2  and  C2_3
REMARK       I    between atoms: C2_3  and  N1_5
REMARK    2  A    between atoms: N1_5  and  C3_7
REMARK    3  A    between atoms: C4_8  and  N2_9
REMARK    4  A    between atoms: N2_9  and  C5_11
REMARK    5  A    between atoms: N4_18  and  C9_19
REMARK    6  A    between atoms: C9_19  and  O3_20
REMARK    7  A    between atoms: C9_19  and  O4_22
REMARK    8  A    between atoms: C10_24  and  N5_25
REMARK    9  A    between atoms: N5_25  and  N6_27
REMARK   10  A    between atoms: C11_29  and  C12_30
REMARK   11  A    between atoms: C13_36  and  N9_37
REMARK   12  A    between atoms: C14_42  and  N11_43
ROOT
HETATM    1  C3  UNL     1      -4.850 -41.719  26.209  1.00  0.00     0.126 A
HETATM    2  C4  UNL     1      -3.899 -41.158  25.393  1.00  0.00     0.155 A
HETATM    3  N4  UNL     1      -3.602 -41.868  24.262  1.00  0.00    -0.114 N
HETATM    4  C10 UNL     1      -4.179 -43.030  23.941  1.00  0.00     0.706 A
HETATM    5  N10 UNL     1      -5.103 -43.597  24.707  1.00  0.00    -0.173 N
ATOM      6  H10 UNL     1      -5.539 -44.484  24.454  1.00  0.00     0.186 HD
HETATM    7  C14 UNL     1      -5.432 -42.948  25.828  1.00  0.00     0.145 A
ENDROOT
BRANCH   4   8
HETATM    8  N5  UNL     1      -3.838 -43.666  22.844  1.00  0.00    -0.132 N
ATOM      9  H5  UNL     1      -3.771 -43.138  21.974  1.00  0.00     0.205 HD
BRANCH   8  10
HETATM   10  N6  UNL     1      -3.569 -45.005  22.822  1.00  0.00    -0.295 N
HETATM   11  C11 UNL     1      -2.592 -45.540  22.197  1.00  0.00     0.143 C
ATOM     12  H6  UNL     1      -4.194 -45.621  23.342  1.00  0.00     0.186 HD
BRANCH  11  13
HETATM   13  C12 UNL     1      -1.660 -44.723  21.433  1.00  0.00     0.126 A
HETATM   14  N7  UNL     1      -1.747 -44.500  20.095  1.00  0.00    -0.275 N
HETATM   15  N8  UNL     1      -0.756 -43.728  19.742  1.00  0.00    -0.199 N
ATOM     16  H7  UNL     1      -2.466 -44.872  19.473  1.00  0.00     0.189 HD
HETATM   17  O5  UNL     1      -0.035 -43.437  20.757  1.00  0.00    -0.196 OA
ATOM     18  H8  UNL     1      -0.580 -43.402  18.792  1.00  0.00     0.216 HD
HETATM   19  C13 UNL     1      -0.556 -44.032  21.836  1.00  0.00     0.266 A
BRANCH  19  20
HETATM   20  N9  UNL     1      -0.043 -43.950  23.150  1.00  0.00    -0.086 N
HETATM   21  O6  UNL     1      -0.748 -44.006  24.137  1.00  0.00    -0.530 OA
HETATM   22  O7  UNL     1       1.323 -43.801  23.306  1.00  0.00    -0.530 OA
ENDBRANCH  19  20
ENDBRANCH  11  13
ENDBRANCH   8  10
ENDBRANCH   4   8
BRANCH   3  23
HETATM   23  C9  UNL     1      -2.623 -41.354  23.328  1.00  0.00     0.391 C
BRANCH  23  24
HETATM   24  O3  UNL     1      -1.471 -40.937  24.012  1.00  0.00    -0.354 OA
ATOM     25  H3  UNL     1      -1.709 -40.402  24.760  1.00  0.00     0.214 HD
ENDBRANCH  23  24
BRANCH  23  26
HETATM   26  O4  UNL     1      -3.130 -40.301  22.606  1.00  0.00    -0.354 OA
ATOM     27  H4  UNL     1      -2.434 -39.790  22.208  1.00  0.00     0.214 HD
ENDBRANCH  23  26
ENDBRANCH   3  23
BRANCH   2  28
HETATM   28  N2  UNL     1      -3.284 -39.911  25.616  1.00  0.00    -0.367 N
ATOM     29  H2  UNL     1      -2.269 -39.963  25.698  1.00  0.00     0.161 HD
BRANCH  28  30
HETATM   30  C5  UNL     1      -3.797 -38.608  25.746  1.00  0.00     0.110 C
HETATM   31  C6  UNL     1      -2.998 -37.695  24.766  1.00  0.00     0.054 C
HETATM   32  C7  UNL     1      -3.971 -36.541  24.661  1.00  0.00     0.234 C
HETATM   33  N3  UNL     1      -5.204 -37.217  24.401  1.00  0.00    -0.073 N
HETATM   34  C8  UNL     1      -5.196 -38.439  25.172  1.00  0.00     0.257 C
ATOM     35  H32 UNL     1      -6.022 -36.637  24.583  1.00  0.00     0.277 HD
ATOM     36  H31 UNL     1      -5.370 -37.374  23.408  1.00  0.00     0.277 HD
ENDBRANCH  28  30
ENDBRANCH   2  28
BRANCH   7  37
HETATM   37  N11 UNL     1      -6.327 -43.479  26.588  1.00  0.00    -0.383 N
ATOM     38 2H11 UNL     1      -7.199 -42.967  26.724  1.00  0.00     0.157 HD
ATOM     39 1H11 UNL     1      -6.136 -44.381  27.022  1.00  0.00     0.157 HD
ENDBRANCH   7  37
BRANCH   1  40
HETATM   40  N1  UNL     1      -5.261 -41.183  27.458  1.00  0.00    -0.296 N
HETATM   41  C2  UNL     1      -4.369 -41.161  28.560  1.00  0.00     0.364 C
HETATM   42  O2  UNL     1      -3.201 -41.619  28.438  1.00  0.00    -0.238 OA
ATOM     43  H1  UNL     1      -6.205 -40.812  27.564  1.00  0.00     0.171 HD
BRANCH  41  44
HETATM   44  O1  UNL     1      -4.716 -40.650  29.802  1.00  0.00    -0.309 OA
HETATM   45  C1  UNL     1      -4.700 -41.438  30.980  1.00  0.00     0.215 C
ENDBRANCH  41  44
ENDBRANCH   1  40
TORSDOF 12
ENDMDL