MODEL 1
REMARK VINA RESULT: -7.905327251      0.000      0.000
REMARK  10 active torsions:
REMARK  status: ('A' for Active; 'I' for Inactive)
REMARK    1  A    between atoms: O1_2  and  C2_3
REMARK       I    between atoms: C2_3  and  N1_5
REMARK    2  A    between atoms: N1_5  and  C3_7
REMARK    3  A    between atoms: C3_7  and  C4_8
REMARK    4  A    between atoms: N4_12  and  C5_13
REMARK    5  A    between atoms: C6_16  and  N6_17
REMARK    6  A    between atoms: C8_22  and  N8_23
REMARK    7  A    between atoms: C9_25  and  C11_28
REMARK    8  A    between atoms: C11_28  and  C12_29
REMARK    9  A    between atoms: C13_34  and  N12_35
REMARK   10  A    between atoms: C14_40  and  O3_41
ROOT
HETATM    1  N8  UNL     1      -2.757 -44.637  25.406  1.00  0.00    -0.334 N
ATOM      2  H8  UNL     1      -3.111 -45.392  25.994  1.00  0.00     0.168 HD
HETATM    3  C9  UNL     1      -1.477 -44.539  25.293  1.00  0.00     0.099 C
HETATM    4  C10 UNL     1      -0.640 -45.478  25.984  1.00  0.00     0.113 C
HETATM    5  N9  UNL     1       0.027 -46.250  26.558  1.00  0.00    -0.190 NA
ENDROOT
BRANCH   3   6
HETATM    6  C11 UNL     1      -0.827 -43.491  24.474  1.00  0.00     0.147 C
BRANCH   6   7
HETATM    7  C12 UNL     1      -0.657 -43.905  23.059  1.00  0.00     0.118 A
HETATM    8  N10 UNL     1       0.230 -44.802  22.595  1.00  0.00    -0.274 N
HETATM    9  N11 UNL     1       0.081 -44.906  21.286  1.00  0.00    -0.131 N
ATOM     10  H10 UNL     1       0.906 -45.317  23.160  1.00  0.00     0.189 HD
HETATM   11  C13 UNL     1      -0.906 -44.079  20.872  1.00  0.00     0.691 A
ATOM     12  H11 UNL     1       0.628 -45.518  20.680  1.00  0.00     0.205 HD
HETATM   13  N13 UNL     1      -1.356 -43.459  22.001  1.00  0.00    -0.178 N
ATOM     14  H13 UNL     1      -2.105 -42.768  22.036  1.00  0.00     0.185 HD
BRANCH  11  15
HETATM   15  N12 UNL     1      -1.327 -43.915  19.661  1.00  0.00    -0.233 N
ATOM     16 2H12 UNL     1      -1.054 -43.189  19.000  1.00  0.00     0.174 HD
ATOM     17 1H12 UNL     1      -2.005 -44.492  19.164  1.00  0.00     0.174 HD
ENDBRANCH  11  15
ENDBRANCH   6   7
ENDBRANCH   3   6
BRANCH   1  18
HETATM   18  C8  UNL     1      -3.709 -43.808  24.802  1.00  0.00     0.161 A
HETATM   19  N7  UNL     1      -4.441 -44.289  23.781  1.00  0.00    -0.170 N
HETATM   20  C6  UNL     1      -5.343 -43.456  23.231  1.00  0.00     0.681 A
HETATM   21  C7  UNL     1      -4.271 -45.661  23.281  1.00  0.00     0.177 C
HETATM   22  N5  UNL     1      -5.543 -42.191  23.647  1.00  0.00    -0.171 N
HETATM   23  C5  UNL     1      -4.831 -41.669  24.667  1.00  0.00     0.195 A
ATOM     24  H5  UNL     1      -6.245 -41.617  23.181  1.00  0.00     0.186 HD
HETATM   25  C14 UNL     1      -3.897 -42.503  25.249  1.00  0.00     0.159 A
BRANCH  20  26
HETATM   26  N6  UNL     1      -6.045 -43.941  22.240  1.00  0.00    -0.234 N
ATOM     27  H62 UNL     1      -6.811 -44.564  22.494  1.00  0.00     0.174 HD
ATOM     28  H61 UNL     1      -5.814 -43.690  21.278  1.00  0.00     0.174 HD
ENDBRANCH  20  26
BRANCH  23  29
HETATM   29  N4  UNL     1      -5.042 -40.329  25.109  1.00  0.00    -0.158 N
HETATM   30  N3  UNL     1      -5.654 -39.928  26.210  1.00  0.00     0.004 NA
HETATM   31  N2  UNL     1      -5.657 -38.596  26.281  1.00  0.00    -0.269 N
HETATM   32  C4  UNL     1      -5.025 -38.134  25.186  1.00  0.00     0.128 A
ATOM     33  H2  UNL     1      -6.063 -38.033  27.028  1.00  0.00     0.185 HD
HETATM   34  N14 UNL     1      -4.663 -39.212  24.494  1.00  0.00    -0.265 N
ATOM     35  H14 UNL     1      -4.161 -39.185  23.607  1.00  0.00     0.190 HD
BRANCH  32  36
HETATM   36  C3  UNL     1      -4.790 -36.686  24.839  1.00  0.00     0.203 C
BRANCH  36  37
HETATM   37  N1  UNL     1      -3.531 -36.531  24.161  1.00  0.00    -0.330 N
HETATM   38  C2  UNL     1      -2.801 -35.334  24.278  1.00  0.00     0.360 C
HETATM   39  O2  UNL     1      -3.223 -34.382  24.968  1.00  0.00    -0.239 OA
ATOM     40  H1  UNL     1      -3.166 -37.294  23.592  1.00  0.00     0.165 HD
BRANCH  38  41
HETATM   41  O1  UNL     1      -1.595 -35.203  23.622  1.00  0.00    -0.309 OA
HETATM   42  C1  UNL     1      -0.438 -34.701  24.286  1.00  0.00     0.215 C
ENDBRANCH  38  41
ENDBRANCH  36  37
ENDBRANCH  32  36
ENDBRANCH  23  29
BRANCH  25  43
HETATM   43  O3  UNL     1      -3.155 -41.979  26.301  1.00  0.00    -0.354 OA
ATOM     44  H3  UNL     1      -2.210 -41.979  26.203  1.00  0.00     0.218 HD
ENDBRANCH  25  43
ENDBRANCH   1  18
TORSDOF 10
ENDMDL