MODEL 2
REMARK VINA RESULT: -7.458131119     10.258     12.553
REMARK  8 active torsions:
REMARK  status: ('A' for Active; 'I' for Inactive)
REMARK    1  A    between atoms: C3_7  and  S1_8
REMARK    2  A    between atoms: S1_8  and  C4_9
REMARK    3  A    between atoms: C4_9  and  C5_10
REMARK    4  A    between atoms: C8_19  and  N5_20
REMARK    5  A    between atoms: N6_22  and  C9_24
REMARK       I    between atoms: N8_28  and  C10_29
REMARK       I    between atoms: C10_29  and  N10_33
REMARK    6  A    between atoms: N10_33  and  N11_35
REMARK    7  A    between atoms: C11_38  and  N12_39
REMARK    8  A    between atoms: N13_42  and  N14_43
ROOT
HETATM    1  C5  UNL     1     -10.158 -42.551  34.854  1.00  0.00     0.057 A
HETATM    2  N3  UNL     1     -10.034 -42.619  36.165  1.00  0.00    -0.309 N
ATOM      3  H3  UNL     1     -10.851 -42.460  36.754  1.00  0.00     0.170 HD
HETATM    4  C6  UNL     1      -8.845 -42.897  36.743  1.00  0.00     0.327 A
HETATM    5  O1  UNL     1      -8.729 -42.963  38.004  1.00  0.00    -0.247 OA
HETATM    6  N4  UNL     1      -7.747 -43.112  36.001  1.00  0.00    -0.273 N
ATOM      7  H4  UNL     1      -6.861 -43.320  36.461  1.00  0.00     0.173 HD
HETATM    8  C7  UNL     1      -7.799 -43.056  34.651  1.00  0.00     0.279 A
HETATM    9  O2  UNL     1      -6.765 -43.257  33.939  1.00  0.00    -0.265 OA
HETATM   10  C8  UNL     1      -9.013 -42.775  34.075  1.00  0.00     0.140 A
ENDROOT
BRANCH  10  11
HETATM   11  N5  UNL     1      -9.165 -42.719  32.685  1.00  0.00    -0.292 N
HETATM   12  N6  UNL     1      -8.909 -43.735  31.975  1.00  0.00    -0.280 N
ATOM     13  H6  UNL     1      -8.587 -44.615  32.379  1.00  0.00     0.188 HD
ATOM     14  H5  UNL     1      -9.484 -41.856  32.243  1.00  0.00     0.187 HD
BRANCH  12  15
HETATM   15  C9  UNL     1      -9.100 -43.567  30.568  1.00  0.00     0.189 A
HETATM   16  N7  UNL     1     -10.262 -43.672  29.910  1.00  0.00    -0.220 N
HETATM   17  O3  UNL     1     -10.016 -43.460  28.665  1.00  0.00    -0.131 OA
ATOM     18  H7  UNL     1     -11.173 -43.881  30.320  1.00  0.00     0.198 HD
HETATM   19  N8  UNL     1      -8.758 -43.224  28.471  1.00  0.00    -0.005 N
HETATM   20  C10 UNL     1      -8.164 -42.958  27.194  1.00  0.00     0.720 C
HETATM   21  C11 UNL     1      -8.126 -43.277  29.646  1.00  0.00     0.195 A
HETATM   22  N9  UNL     1      -7.298 -42.049  26.977  1.00  0.00    -0.231 N
HETATM   23  N10 UNL     1      -8.606 -43.788  26.128  1.00  0.00    -0.137 N
ATOM     24  H92 UNL     1      -6.982 -41.453  27.741  1.00  0.00     0.174 HD
ATOM     25  H91 UNL     1      -6.876 -41.860  26.068  1.00  0.00     0.174 HD
ATOM     26  H10 UNL     1      -7.935 -44.317  25.571  1.00  0.00     0.205 HD
BRANCH  23  27
HETATM   27  N11 UNL     1      -9.970 -43.867  25.857  1.00  0.00    -0.331 N
ATOM     28 2H11 UNL     1     -10.566 -44.457  26.438  1.00  0.00     0.177 HD
ATOM     29 1H11 UNL     1     -10.349 -43.330  25.077  1.00  0.00     0.177 HD
ENDBRANCH  23  27
BRANCH  21  30
HETATM   30  N12 UNL     1      -6.857 -43.087  29.843  1.00  0.00    -0.380 N
ATOM     31 2H12 UNL     1      -6.096 -43.496  29.301  1.00  0.00     0.158 HD
ATOM     32 1H12 UNL     1      -6.403 -42.510  30.551  1.00  0.00     0.158 HD
ENDBRANCH  21  30
ENDBRANCH  12  15
ENDBRANCH  10  11
BRANCH   1  33
HETATM   33  C4  UNL     1     -11.371 -42.192  34.140  1.00  0.00     0.142 C
BRANCH  33  34
HETATM   34  S1  UNL     1     -12.772 -43.273  34.240  1.00  0.00    -0.085 SA
BRANCH  34  35
HETATM   35  C3  UNL     1     -13.645 -43.459  32.669  1.00  0.00     0.182 A
HETATM   36  N2  UNL     1     -13.138 -44.238  31.643  1.00  0.00    -0.277 N
HETATM   37  N1  UNL     1     -13.949 -44.175  30.619  1.00  0.00    -0.286 N
ATOM     38  H2  UNL     1     -12.271 -44.774  31.679  1.00  0.00     0.189 HD
HETATM   39  C2  UNL     1     -14.981 -43.383  30.915  1.00  0.00     0.116 A
ATOM     40  H1  UNL     1     -13.814 -44.657  29.730  1.00  0.00     0.188 HD
HETATM   41  C1  UNL     1     -16.172 -43.006  30.073  1.00  0.00     0.092 C
HETATM   42  N13 UNL     1     -14.762 -42.953  32.195  1.00  0.00    -0.226 N
BRANCH  42  43
HETATM   43  N14 UNL     1     -15.619 -42.056  32.851  1.00  0.00    -0.335 N
ATOM     44 2H14 UNL     1     -16.639 -42.064  32.830  1.00  0.00     0.177 HD
ATOM     45 1H14 UNL     1     -15.279 -41.311  33.458  1.00  0.00     0.177 HD
ENDBRANCH  42  43
ENDBRANCH  34  35
ENDBRANCH  33  34
ENDBRANCH   1  33
TORSDOF 8
ENDMDL