MODEL 5
REMARK VINA RESULT: -7.862148414      8.574     12.156
REMARK  7 active torsions:
REMARK  status: ('A' for Active; 'I' for Inactive)
REMARK    1  A    between atoms: C2_7  and  N3_8
REMARK    2  A    between atoms: C4_13  and  C5_14
REMARK    3  A    between atoms: C7_16  and  C8_17
REMARK    4  A    between atoms: C9_25  and  S1_26
REMARK    5  A    between atoms: S1_26  and  C10_27
REMARK    6  A    between atoms: C10_27  and  N10_28
REMARK    7  A    between atoms: C12_40  and  N16_41
ROOT
HETATM    1  C5  UNL     1      -1.268 -39.308  25.352  1.00  0.00     0.067 A
HETATM    2  C6  UNL     1      -2.511 -39.844  25.614  1.00  0.00     0.050 A
HETATM    3  C7  UNL     1      -2.902 -41.117  25.233  1.00  0.00     0.047 A
HETATM    4  C9  UNL     1      -1.957 -41.870  24.549  1.00  0.00     0.100 A
HETATM    5  N14 UNL     1      -0.756 -41.321  24.310  1.00  0.00    -0.293 N
ATOM      6  H14 UNL     1      -0.067 -41.881  23.807  1.00  0.00     0.187 HD
HETATM    7  N15 UNL     1      -0.406 -40.094  24.686  1.00  0.00    -0.299 N
ATOM      8  H15 UNL     1       0.527 -39.746  24.465  1.00  0.00     0.187 HD
ENDROOT
BRANCH   1   9
HETATM    9  C4  UNL     1      -0.967 -37.955  25.787  1.00  0.00     0.081 A
HETATM   10  C2  UNL     1      -1.568 -36.874  25.186  1.00  0.00     0.139 A
HETATM   11  N2  UNL     1      -1.272 -35.606  25.598  1.00  0.00    -0.176 N
HETATM   12  C1  UNL     1      -0.398 -35.368  26.588  1.00  0.00     0.679 A
ATOM     13  H2  UNL     1      -1.728 -34.818  25.139  1.00  0.00     0.186 HD
HETATM   14  N1  UNL     1      -0.113 -34.154  26.983  1.00  0.00    -0.234 N
HETATM   15  N17 UNL     1       0.193 -36.415  27.180  1.00  0.00    -0.176 N
ATOM     16  H12 UNL     1      -0.563 -33.357  26.533  1.00  0.00     0.174 HD
ATOM     17  H11 UNL     1       0.550 -33.972  27.737  1.00  0.00     0.174 HD
HETATM   18  C12 UNL     1      -0.065 -37.681  26.811  1.00  0.00     0.131 A
ATOM     19  H17 UNL     1       0.858 -36.246  27.934  1.00  0.00     0.186 HD
BRANCH  10  20
HETATM   20  N3  UNL     1      -2.487 -37.145  24.147  1.00  0.00    -0.318 N
HETATM   21  C3  UNL     1      -3.742 -37.050  24.374  1.00  0.00     0.202 C
HETATM   22  N4  UNL     1      -4.182 -36.675  25.668  1.00  0.00    -0.066 NA
HETATM   23  N5  UNL     1      -4.708 -37.309  23.379  1.00  0.00    -0.066 NA
ATOM     24  H3  UNL     1      -2.152 -37.415  23.222  1.00  0.00     0.169 HD
ENDBRANCH  10  20
BRANCH  18  25
HETATM   25  N16 UNL     1       0.512 -38.714  27.383  1.00  0.00    -0.384 N
ATOM     26 2H16 UNL     1       1.211 -39.282  26.907  1.00  0.00     0.157 HD
ATOM     27 1H16 UNL     1       0.225 -38.929  28.338  1.00  0.00     0.157 HD
ENDBRANCH  18  25
ENDBRANCH   1   9
BRANCH   3  28
HETATM   28  C8  UNL     1      -4.232 -41.634  25.530  1.00  0.00     0.147 A
HETATM   29  N6  UNL     1      -5.310 -41.393  24.769  1.00  0.00    -0.271 N
HETATM   30  N7  UNL     1      -6.370 -41.982  25.269  1.00  0.00    -0.225 N
ATOM     31  H6  UNL     1      -5.306 -40.830  23.919  1.00  0.00     0.190 HD
HETATM   32  N8  UNL     1      -5.974 -42.611  26.364  1.00  0.00    -0.005 NA
ATOM     33  H7  UNL     1      -7.316 -41.960  24.887  1.00  0.00     0.205 HD
HETATM   34  N9  UNL     1      -4.680 -42.404  26.528  1.00  0.00    -0.266 N
ATOM     35  H9  UNL     1      -4.114 -42.772  27.292  1.00  0.00     0.186 HD
ENDBRANCH   3  28
BRANCH   4  36
HETATM   36  S1  UNL     1      -2.372 -43.535  24.020  1.00  0.00    -0.088 SA
BRANCH  36  37
HETATM   37  C10 UNL     1      -0.975 -44.305  23.158  1.00  0.00     0.232 C
BRANCH  37  38
HETATM   38  N10 UNL     1      -1.082 -44.031  21.739  1.00  0.00    -0.261 N
HETATM   39  C11 UNL     1      -0.683 -42.877  21.164  1.00  0.00     0.220 A
HETATM   40  N11 UNL     1      -0.945 -43.007  19.863  1.00  0.00    -0.279 N
HETATM   41  N12 UNL     1      -1.485 -44.196  19.646  1.00  0.00    -0.227 N
ATOM     42  H11 UNL     1      -0.758 -42.303  19.149  1.00  0.00     0.189 HD
HETATM   43  N13 UNL     1      -1.575 -44.833  20.789  1.00  0.00    -0.224 N
ATOM     44  H12 UNL     1      -1.782 -44.557  18.740  1.00  0.00     0.210 HD
ATOM     45  H13 UNL     1      -1.953 -45.770  20.928  1.00  0.00     0.210 HD
ENDBRANCH  37  38
ENDBRANCH  36  37
ENDBRANCH   4  36
TORSDOF 7
ENDMDL