MODEL 5
REMARK VINA RESULT: -7.352438198      4.726      9.072
REMARK  11 active torsions:
REMARK  status: ('A' for Active; 'I' for Inactive)
REMARK    1  A    between atoms: O1_1  and  C1_3
REMARK    2  A    between atoms: C1_3  and  N1_4
REMARK    3  A    between atoms: C1_3  and  O7_25
REMARK    4  A    between atoms: N1_4  and  C2_6
REMARK    5  A    between atoms: C2_6  and  O2_7
REMARK    6  A    between atoms: C2_6  and  C3_9
REMARK    7  A    between atoms: C5_15  and  S1_16
REMARK    8  A    between atoms: C6_22  and  O6_23
REMARK    9  A    between atoms: O7_25  and  C7_26
REMARK   10  A    between atoms: C7_26  and  C8_27
REMARK   11  A    between atoms: C10_34  and  O9_35
ROOT
HETATM    1  C2  UNL     1      -9.155 -41.959  35.490  1.00  0.00     0.277 C
ENDROOT
BRANCH   1   2
HETATM    2  N1  UNL     1      -7.978 -42.797  35.489  1.00  0.00    -0.319 N
ATOM      3  H1  UNL     1      -7.604 -43.179  36.358  1.00  0.00     0.166 HD
BRANCH   2   4
HETATM    4  C1  UNL     1      -7.362 -43.073  34.247  1.00  0.00     0.260 C
BRANCH   4   5
HETATM    5  O1  UNL     1      -6.729 -44.251  34.163  1.00  0.00    -0.327 OA
ATOM      6  H1  UNL     1      -5.790 -44.204  34.024  1.00  0.00     0.221 HD
ENDBRANCH   4   5
BRANCH   4   7
HETATM    7  O7  UNL     1      -7.290 -42.350  33.115  1.00  0.00    -0.311 OA
BRANCH   7   8
HETATM    8  C7  UNL     1      -6.628 -42.886  31.954  1.00  0.00     0.241 C
BRANCH   8   9
HETATM    9  C8  UNL     1      -5.213 -42.624  31.847  1.00  0.00     0.089 A
HETATM   10  N5  UNL     1      -4.258 -43.139  32.689  1.00  0.00    -0.306 N
HETATM   11  C9  UNL     1      -3.046 -42.779  32.278  1.00  0.00     0.326 A
ATOM     12  H5  UNL     1      -4.451 -43.714  33.509  1.00  0.00     0.170 HD
HETATM   13  O8  UNL     1      -1.974 -43.110  32.859  1.00  0.00    -0.247 OA
HETATM   14  N6  UNL     1      -3.226 -42.026  31.170  1.00  0.00    -0.287 N
HETATM   15  C10 UNL     1      -4.516 -41.915  30.882  1.00  0.00     0.169 A
ATOM     16  H6  UNL     1      -2.472 -41.601  30.629  1.00  0.00     0.172 HD
BRANCH  15  17
HETATM   17  O9  UNL     1      -5.161 -41.242  29.838  1.00  0.00    -0.344 OA
ATOM     18  H9  UNL     1      -4.681 -40.788  29.155  1.00  0.00     0.219 HD
ENDBRANCH  15  17
ENDBRANCH   8   9
ENDBRANCH   7   8
ENDBRANCH   4   7
ENDBRANCH   2   4
ENDBRANCH   1   2
BRANCH   1  19
HETATM   19  O2  UNL     1      -8.645 -40.841  34.613  1.00  0.00    -0.371 OA
ATOM     20  H2  UNL     1      -9.327 -40.851  33.950  1.00  0.00     0.212 HD
ENDBRANCH   1  19
BRANCH   1  21
HETATM   21  C3  UNL     1     -10.268 -42.459  34.667  1.00  0.00     0.127 A
HETATM   22  N2  UNL     1     -10.285 -42.829  33.383  1.00  0.00    -0.185 N
HETATM   23  C4  UNL     1     -11.550 -43.139  32.977  1.00  0.00     0.699 A
ATOM     24  H2  UNL     1      -9.460 -42.874  32.785  1.00  0.00     0.184 HD
HETATM   25  N3  UNL     1     -12.100 -43.526  31.860  1.00  0.00    -0.169 N
HETATM   26  N4  UNL     1     -12.306 -42.959  34.039  1.00  0.00    -0.089 N
HETATM   27  C5  UNL     1     -13.397 -43.733  31.801  1.00  0.00     0.224 A
ATOM     28  H3  UNL     1     -11.523 -43.667  31.031  1.00  0.00     0.185 HD
HETATM   29  S2  UNL     1     -13.854 -43.364  33.397  1.00  0.00     0.046 SA
HETATM   30  C6  UNL     1     -11.582 -42.546  35.097  1.00  0.00     0.198 A
BRANCH  27  31
HETATM   31  S1  UNL     1     -14.292 -44.276  30.416  1.00  0.00     0.163 S
HETATM   32  O3  UNL     1     -13.815 -45.695  30.065  1.00  0.00    -0.590 OA
HETATM   33  O4  UNL     1     -14.050 -43.418  29.248  1.00  0.00    -0.590 OA
HETATM   34  O5  UNL     1     -15.908 -44.434  30.858  1.00  0.00    -0.590 OA
ENDBRANCH  27  31
BRANCH  30  35
HETATM   35  O6  UNL     1     -12.173 -42.294  36.323  1.00  0.00    -0.343 OA
ATOM     36  H6  UNL     1     -11.874 -41.814  37.086  1.00  0.00     0.219 HD
ENDBRANCH  30  35
ENDBRANCH   1  21
TORSDOF 11
ENDMDL