MODEL 4
REMARK VINA RESULT: -7.834791964      1.666      2.212
REMARK  9 active torsions:
REMARK  status: ('A' for Active; 'I' for Inactive)
REMARK    1  A    between atoms: N1_1  and  N2_4
REMARK    2  A    between atoms: N3_7  and  N4_8
REMARK    3  A    between atoms: C3_15  and  C4_16
REMARK       I    between atoms: C4_16  and  N7_18
REMARK    4  A    between atoms: N7_18  and  N8_20
REMARK    5  A    between atoms: C5_22  and  C6_23
REMARK    6  A    between atoms: C9_28  and  N10_29
REMARK    7  A    between atoms: N11_36  and  N12_37
REMARK    8  A    between atoms: N12_37  and  C13_38
REMARK    9  A    between atoms: C13_38  and  C14_39
ROOT
HETATM    1  N2  UNL     1      -2.552 -42.637  22.640  1.00  0.00    -0.133 N
ATOM      2  H2  UNL     1      -1.965 -43.014  21.896  1.00  0.00     0.205 HD
HETATM    3  C1  UNL     1      -3.108 -43.570  23.253  1.00  0.00     0.765 A
HETATM    4  N3  UNL     1      -2.832 -44.884  22.810  1.00  0.00    -0.021 N
HETATM    5  N5  UNL     1      -3.370 -45.973  23.439  1.00  0.00    -0.250 N
ATOM      6  H5  UNL     1      -3.164 -46.917  23.110  1.00  0.00     0.191 HD
HETATM    7  C2  UNL     1      -4.242 -45.762  24.586  1.00  0.00     0.169 A
HETATM    8  N6  UNL     1      -4.760 -46.956  25.162  1.00  0.00    -0.079 NA
HETATM    9  C3  UNL     1      -4.548 -44.585  25.056  1.00  0.00     0.199 A
HETATM   10  N11 UNL     1      -3.992 -43.389  24.413  1.00  0.00    -0.006 N
ENDROOT
BRANCH   9  11
HETATM   11  C4  UNL     1      -5.417 -44.343  26.209  1.00  0.00     0.293 C
HETATM   12  O1  UNL     1      -6.680 -44.549  26.075  1.00  0.00    -0.264 OA
HETATM   13  N7  UNL     1      -5.042 -43.901  27.472  1.00  0.00    -0.265 N
ATOM     14  H7  UNL     1      -4.058 -43.717  27.662  1.00  0.00     0.190 HD
BRANCH  13  15
HETATM   15  N8  UNL     1      -5.985 -43.702  28.492  1.00  0.00    -0.305 N
HETATM   16  C5  UNL     1      -5.709 -43.734  29.721  1.00  0.00     0.163 C
ATOM     17  H8  UNL     1      -6.952 -43.520  28.222  1.00  0.00     0.186 HD
BRANCH  16  18
HETATM   18  C6  UNL     1      -6.825 -43.498  30.684  1.00  0.00     0.165 A
HETATM   19  N9  UNL     1      -6.650 -43.092  31.951  1.00  0.00    -0.333 N
HETATM   20  C7  UNL     1      -7.893 -42.992  32.502  1.00  0.00     0.070 A
ATOM     21  H9  UNL     1      -5.761 -42.898  32.412  1.00  0.00     0.168 HD
HETATM   22  C8  UNL     1      -8.376 -42.634  33.746  1.00  0.00     0.068 A
HETATM   23  C12 UNL     1      -8.790 -43.349  31.533  1.00  0.00     0.104 A
HETATM   24  C9  UNL     1      -9.724 -42.626  34.023  1.00  0.00     0.105 A
HETATM   25  C10 UNL     1     -10.606 -42.986  33.037  1.00  0.00     0.039 A
HETATM   26  C11 UNL     1     -10.136 -43.354  31.771  1.00  0.00     0.042 A
HETATM   27  O4  UNL     1      -8.101 -43.639  30.472  1.00  0.00    -0.290 OA
BRANCH  24  28
HETATM   28  N10 UNL     1     -10.190 -42.248  35.325  1.00  0.00    -0.116 N
HETATM   29  O2  UNL     1      -9.418 -41.905  36.235  1.00  0.00    -0.532 OA
HETATM   30  O3  UNL     1     -11.527 -42.249  35.621  1.00  0.00    -0.532 OA
ENDBRANCH  24  28
ENDBRANCH  16  18
ENDBRANCH  13  15
ENDBRANCH   9  11
BRANCH  10  31
HETATM   31  N12 UNL     1      -4.164 -42.158  24.807  1.00  0.00    -0.309 NA
BRANCH  31  32
HETATM   32  C13 UNL     1      -4.319 -41.042  25.178  1.00  0.00     0.294 C
BRANCH  32  33
HETATM   33  C14 UNL     1      -5.452 -40.476  25.964  1.00  0.00     0.231 C
HETATM   34  O5  UNL     1      -6.273 -41.203  26.580  1.00  0.00    -0.643 OA
HETATM   35  O6  UNL     1      -5.596 -39.116  26.018  1.00  0.00    -0.643 OA
ENDBRANCH  32  33
ENDBRANCH  31  32
ENDBRANCH  10  31
BRANCH   4  36
HETATM   36  N4  UNL     1      -1.995 -45.067  21.707  1.00  0.00    -0.309 N
ATOM     37  H42 UNL     1      -2.054 -44.425  20.917  1.00  0.00     0.179 HD
ATOM     38  H41 UNL     1      -1.333 -45.843  21.711  1.00  0.00     0.179 HD
ENDBRANCH   4  36
BRANCH   1  39
HETATM   39  N1  UNL     1      -2.477 -41.305  22.644  1.00  0.00    -0.331 N
ATOM     40  H12 UNL     1      -3.132 -40.947  21.949  1.00  0.00     0.177 HD
ATOM     41  H11 UNL     1      -1.982 -40.547  23.113  1.00  0.00     0.177 HD
ENDBRANCH   1  39
TORSDOF 9
ENDMDL