MODEL 3
REMARK VINA RESULT: -6.754887544      2.275      5.409
REMARK  12 active torsions:
REMARK  status: ('A' for Active; 'I' for Inactive)
REMARK    1  A    between atoms: C2_2  and  C3_4
REMARK    2  A    between atoms: C3_4  and  N1_5
REMARK    3  A    between atoms: C3_4  and  N11_37
REMARK       I    between atoms: N1_5  and  C4_7
REMARK       I    between atoms: C4_7  and  N2_8
REMARK       I    between atoms: C4_7  and  N4_12
REMARK    4  A    between atoms: N4_12  and  N5_14
REMARK    5  A    between atoms: N5_14  and  C6_16
REMARK    6  A    between atoms: C6_16  and  C8_18
REMARK    7  A    between atoms: N7_23  and  C10_24
REMARK    8  A    between atoms: C11_30  and  N10_31
REMARK    9  A    between atoms: C12_34  and  O3_35
REMARK   10  A    between atoms: N11_37  and  O4_38
REMARK   11  A    between atoms: N11_37  and  N12_40
REMARK   12  A    between atoms: N12_40  and  N13_41
ROOT
HETATM    1  N1  UNL     1      -3.994 -40.311  25.766  1.00  0.00    -0.195 N
ATOM      2  H1  UNL     1      -4.239 -40.264  26.755  1.00  0.00     0.180 HD
HETATM    3  C4  UNL     1      -3.400 -39.180  25.141  1.00  0.00     0.703 C
HETATM    4  N2  UNL     1      -4.124 -38.106  25.058  1.00  0.00    -0.125 N
ATOM      5  H2  UNL     1      -5.070 -38.120  25.438  1.00  0.00     0.197 HD
HETATM    6  C5  UNL     1      -3.651 -36.932  24.467  1.00  0.00     0.196 C
HETATM    7  N3  UNL     1      -3.244 -35.960  23.962  1.00  0.00    -0.171 NA
HETATM    8  N4  UNL     1      -2.077 -39.212  24.629  1.00  0.00    -0.131 N
ATOM      9  H4  UNL     1      -1.905 -39.393  23.640  1.00  0.00     0.205 HD
ENDROOT
BRANCH   1  10
HETATM   10  C3  UNL     1      -4.256 -41.514  25.034  1.00  0.00     0.308 C
BRANCH  10  11
HETATM   11  C2  UNL     1      -5.451 -42.200  25.558  1.00  0.00     0.165 C
HETATM   12  C1  UNL     1      -6.595 -41.492  26.183  1.00  0.00     0.095 C
HETATM   13  O1  UNL     1      -5.524 -43.411  25.483  1.00  0.00    -0.294 OA
ENDBRANCH  10  11
BRANCH  10  14
HETATM   14  N11 UNL     1      -4.401 -41.277  23.603  1.00  0.00     0.014 NA
BRANCH  14  15
HETATM   15  O4  UNL     1      -3.215 -41.548  23.014  1.00  0.00    -0.280 OA
ATOM     16  H4  UNL     1      -3.132 -42.492  22.945  1.00  0.00     0.240 HD
ENDBRANCH  14  15
BRANCH  14  17
HETATM   17  N12 UNL     1      -5.373 -42.025  23.064  1.00  0.00    -0.242 NA
BRANCH  17  18
HETATM   18  N13 UNL     1      -6.182 -42.649  22.610  1.00  0.00    -0.264 N
ATOM     19 2H13 UNL     1      -5.356 -42.090  22.824  1.00  0.00     0.193 HD
ATOM     20 1H13 UNL     1      -6.921 -43.219  22.199  1.00  0.00     0.193 HD
ENDBRANCH  17  18
ENDBRANCH  14  17
ENDBRANCH  10  14
ENDBRANCH   1  10
BRANCH   8  21
HETATM   21  N5  UNL     1      -1.016 -38.992  25.509  1.00  0.00    -0.289 N
ATOM     22  H5  UNL     1      -0.675 -38.044  25.670  1.00  0.00     0.187 HD
BRANCH  21  23
HETATM   23  C6  UNL     1      -0.473 -39.975  26.111  1.00  0.00     0.053 C
HETATM   24  C7  UNL     1       0.184 -39.777  27.414  1.00  0.00     0.072 C
BRANCH  23  25
HETATM   25  C8  UNL     1      -0.499 -41.296  25.519  1.00  0.00     0.110 A
HETATM   26  N6  UNL     1      -1.002 -42.416  26.076  1.00  0.00    -0.331 N
HETATM   27  C9  UNL     1      -0.833 -43.441  25.199  1.00  0.00     0.166 A
ATOM     28  H6  UNL     1      -1.435 -42.484  26.997  1.00  0.00     0.168 HD
HETATM   29  S1  UNL     1      -1.365 -45.105  25.553  1.00  0.00    -0.012 SA
HETATM   30  N7  UNL     1      -0.230 -42.981  24.093  1.00  0.00    -0.250 N
HETATM   31  C12 UNL     1      -0.014 -41.674  24.262  1.00  0.00     0.180 A
BRANCH  30  32
HETATM   32  C10 UNL     1       0.100 -43.780  22.971  1.00  0.00     0.184 A
HETATM   33  N8  UNL     1       1.301 -44.284  22.640  1.00  0.00    -0.221 N
HETATM   34  O2  UNL     1       1.197 -44.961  21.542  1.00  0.00    -0.153 OA
ATOM     35  H8  UNL     1       2.162 -44.152  23.172  1.00  0.00     0.198 HD
HETATM   36  N9  UNL     1      -0.015 -44.934  21.126  1.00  0.00    -0.222 N
HETATM   37  C11 UNL     1      -0.752 -44.209  21.978  1.00  0.00     0.168 A
ATOM     38  H9  UNL     1      -0.362 -45.390  20.283  1.00  0.00     0.198 HD
BRANCH  37  39
HETATM   39  N10 UNL     1      -2.040 -43.958  21.881  1.00  0.00    -0.381 N
ATOM     40 2H10 UNL     1      -2.509 -43.086  22.125  1.00  0.00     0.157 HD
ATOM     41 1H10 UNL     1      -2.764 -44.596  21.548  1.00  0.00     0.157 HD
ENDBRANCH  37  39
ENDBRANCH  30  32
BRANCH  31  42
HETATM   42  O3  UNL     1       0.585 -40.789  23.375  1.00  0.00    -0.344 OA
ATOM     43  H3  UNL     1       0.332 -40.710  22.464  1.00  0.00     0.219 HD
ENDBRANCH  31  42
ENDBRANCH  23  25
ENDBRANCH  21  23
ENDBRANCH   8  21
TORSDOF 12
ENDMDL