MODEL 2
REMARK VINA RESULT: -7.019243472      2.261      3.115
REMARK  8 active torsions:
REMARK  status: ('A' for Active; 'I' for Inactive)
REMARK    1  A    between atoms: N1_1  and  C1_4
REMARK    2  A    between atoms: N3_9  and  C3_10
REMARK    3  A    between atoms: C4_13  and  C5_14
REMARK    4  A    between atoms: N11_30  and  C12_31
REMARK    5  A    between atoms: C12_31  and  O3_32
REMARK    6  A    between atoms: O3_32  and  C13_33
REMARK    7  A    between atoms: C13_33  and  C14_34
REMARK    8  A    between atoms: C14_34  and  O4_35
ROOT
HETATM    1  C3  UNL     1      -5.730 -43.489  30.664  1.00  0.00     0.705 A
HETATM    2  N4  UNL     1      -6.755 -42.926  31.249  1.00  0.00    -0.183 N
ATOM      3  H4  UNL     1      -6.701 -42.019  31.712  1.00  0.00     0.184 HD
HETATM    4  C4  UNL     1      -7.872 -43.640  31.187  1.00  0.00     0.137 A
HETATM    5  C11 UNL     1      -7.476 -44.785  30.473  1.00  0.00     0.167 A
HETATM    6  N10 UNL     1      -8.287 -45.893  30.118  1.00  0.00    -0.079 NA
HETATM    7  N11 UNL     1      -6.158 -44.655  30.171  1.00  0.00    -0.145 N
ENDROOT
BRANCH   4   8
HETATM    8  C5  UNL     1      -9.238 -43.487  31.651  1.00  0.00     0.161 A
HETATM    9  N5  UNL     1     -10.329 -43.712  30.845  1.00  0.00    -0.281 N
HETATM   10  N6  UNL     1     -11.447 -43.520  31.449  1.00  0.00    -0.283 N
ATOM     11  H5  UNL     1     -10.257 -44.001  29.870  1.00  0.00     0.188 HD
HETATM   12  C6  UNL     1     -11.134 -43.152  32.710  1.00  0.00     0.133 A
ATOM     13  H6  UNL     1     -12.382 -43.625  31.055  1.00  0.00     0.188 HD
HETATM   14  C7  UNL     1     -11.892 -42.821  33.798  1.00  0.00     0.107 A
HETATM   15  N9  UNL     1      -9.778 -43.134  32.824  1.00  0.00    -0.265 N
HETATM   16  C8  UNL     1     -11.354 -42.467  35.016  1.00  0.00     0.203 A
HETATM   17  O2  UNL     1     -12.101 -42.171  35.989  1.00  0.00    -0.286 OA
HETATM   18  C9  UNL     1      -9.989 -42.453  35.118  1.00  0.00     0.138 A
HETATM   19  N7  UNL     1      -9.374 -42.103  36.329  1.00  0.00    -0.095 NA
HETATM   20  C10 UNL     1      -9.229 -42.796  33.989  1.00  0.00     0.154 A
HETATM   21  N8  UNL     1      -7.835 -42.751  34.201  1.00  0.00    -0.080 NA
ENDBRANCH   4   8
BRANCH   1  22
HETATM   22  N3  UNL     1      -4.403 -42.960  30.570  1.00  0.00    -0.059 N
HETATM   23  C2  UNL     1      -3.364 -43.197  31.375  1.00  0.00     0.353 A
HETATM   24  N2  UNL     1      -2.218 -42.607  31.114  1.00  0.00    -0.286 N
HETATM   25  O1  UNL     1      -3.485 -43.994  32.391  1.00  0.00    -0.245 OA
HETATM   26  C1  UNL     1      -2.165 -41.801  30.053  1.00  0.00     0.163 A
ATOM     27  H2  UNL     1      -1.399 -42.760  31.704  1.00  0.00     0.172 HD
HETATM   28  S1  UNL     1      -3.746 -41.892  29.438  1.00  0.00     0.051 SA
BRANCH  26  29
HETATM   29  N1  UNL     1      -1.135 -41.119  29.615  1.00  0.00    -0.378 N
ATOM     30  H12 UNL     1      -0.334 -41.430  29.065  1.00  0.00     0.158 HD
ATOM     31  H11 UNL     1      -0.940 -40.126  29.749  1.00  0.00     0.158 HD
ENDBRANCH  26  29
ENDBRANCH   1  22
BRANCH   7  32
HETATM   32  C12 UNL     1      -5.407 -45.658  29.426  1.00  0.00     0.318 C
BRANCH  32  33
HETATM   33  O3  UNL     1      -4.523 -46.336  30.227  1.00  0.00    -0.369 OA
BRANCH  33  34
HETATM   34  C13 UNL     1      -5.074 -47.285  31.000  1.00  0.00     0.196 C
BRANCH  34  35
HETATM   35  C14 UNL     1      -4.927 -47.230  32.475  1.00  0.00     0.190 C
BRANCH  35  36
HETATM   36  O4  UNL     1      -5.556 -46.185  33.120  1.00  0.00    -0.399 OA
ATOM     37  H4  UNL     1      -6.312 -46.406  33.650  1.00  0.00     0.209 HD
ENDBRANCH  35  36
ENDBRANCH  34  35
ENDBRANCH  33  34
ENDBRANCH  32  33
ENDBRANCH   7  32
TORSDOF 8
ENDMDL