MODEL 1
REMARK VINA RESULT: -8.593814284      0.000      0.000
REMARK  10 active torsions:
REMARK  status: ('A' for Active; 'I' for Inactive)
REMARK    1  A    between atoms: O1_2  and  C2_3
REMARK    2  A    between atoms: C2_3  and  O2_4
REMARK    3  A    between atoms: C2_3  and  C3_6
REMARK    4  A    between atoms: C3_6  and  O3_7
REMARK    5  A    between atoms: C3_6  and  C4_9
REMARK    6  A    between atoms: C4_9  and  C5_13
REMARK    7  A    between atoms: C5_13  and  O4_14
REMARK    8  A    between atoms: N3_19  and  C7_20
REMARK    9  A    between atoms: C8_23  and  N5_24
REMARK   10  A    between atoms: N6_26  and  C9_28
ROOT
HETATM    1  C7  UNL     1      -4.031 -43.330  23.753  1.00  0.00     0.728 A
HETATM    2  N4  UNL     1      -3.251 -43.768  22.745  1.00  0.00    -0.018 N
ATOM      3  H4  UNL     1      -2.821 -43.082  22.124  1.00  0.00     0.203 HD
HETATM    4  C8  UNL     1      -3.013 -45.092  22.523  1.00  0.00     0.726 A
HETATM    5  N11 UNL     1      -3.568 -46.008  23.328  1.00  0.00    -0.020 N
ATOM      6  H11 UNL     1      -3.401 -47.003  23.176  1.00  0.00     0.203 HD
HETATM    7  C13 UNL     1      -4.350 -45.595  24.339  1.00  0.00     0.705 A
HETATM    8  N12 UNL     1      -4.878 -46.468  25.102  1.00  0.00    -0.234 N
ATOM      9 1H12 UNL     1      -5.471 -46.154  25.869  1.00  0.00     0.174 HD
ATOM     10 2H12 UNL     1      -4.708 -47.462  24.948  1.00  0.00     0.174 HD
HETATM   11  N13 UNL     1      -4.577 -44.263  24.545  1.00  0.00    -0.020 N
ATOM     12  H13 UNL     1      -5.175 -43.973  25.319  1.00  0.00     0.203 HD
ENDROOT
BRANCH   1  13
HETATM   13  N3  UNL     1      -4.253 -41.921  23.946  1.00  0.00    -0.123 N
HETATM   14  N2  UNL     1      -4.256 -41.035  22.869  1.00  0.00    -0.296 N
HETATM   15  C6  UNL     1      -3.993 -39.770  22.972  1.00  0.00     0.124 C
ATOM     16  H2  UNL     1      -4.478 -41.405  21.945  1.00  0.00     0.186 HD
HETATM   17  C5  UNL     1      -3.677 -39.258  24.296  1.00  0.00     0.133 C
HETATM   18  C15 UNL     1      -4.416 -39.947  25.406  1.00  0.00     0.072 C
HETATM   19  C14 UNL     1      -4.470 -41.433  25.262  1.00  0.00     0.172 C
BRANCH  17  20
HETATM   20  C4  UNL     1      -3.985 -37.769  24.316  1.00  0.00     0.054 C
HETATM   21  N1  UNL     1      -5.174 -37.395  24.258  1.00  0.00    -0.401 N
ATOM     22  H12 UNL     1      -5.381 -36.396  24.272  1.00  0.00     0.155 HD
ATOM     23  H11 UNL     1      -5.975 -38.019  24.160  1.00  0.00     0.155 HD
BRANCH  20  24
HETATM   24  C3  UNL     1      -2.839 -36.877  24.456  1.00  0.00     0.221 C
BRANCH  24  25
HETATM   25  C2  UNL     1      -2.952 -35.488  23.954  1.00  0.00     0.290 C
BRANCH  25  26
HETATM   26  O1  UNL     1      -1.787 -34.804  23.727  1.00  0.00    -0.363 OA
HETATM   27  C1  UNL     1      -1.636 -33.674  24.505  1.00  0.00     0.204 C
ENDBRANCH  25  26
BRANCH  25  28
HETATM   28  O2  UNL     1      -3.606 -34.769  25.044  1.00  0.00    -0.368 OA
ATOM     29  H2  UNL     1      -3.241 -35.142  25.837  1.00  0.00     0.212 HD
ENDBRANCH  25  28
ENDBRANCH  24  25
BRANCH  24  30
HETATM   30  O3  UNL     1      -2.556 -36.713  25.865  1.00  0.00    -0.385 OA
ATOM     31  H3  UNL     1      -2.296 -37.582  26.147  1.00  0.00     0.210 HD
ENDBRANCH  24  30
ENDBRANCH  20  24
ENDBRANCH  17  20
BRANCH  17  32
HETATM   32  O4  UNL     1      -2.297 -39.346  24.493  1.00  0.00    -0.378 OA
ATOM     33  H4  UNL     1      -1.958 -39.744  23.699  1.00  0.00     0.211 HD
ENDBRANCH  17  32
ENDBRANCH   1  13
BRANCH   4  34
HETATM   34  N5  UNL     1      -2.168 -45.385  21.421  1.00  0.00    -0.117 N
HETATM   35  N6  UNL     1      -0.971 -45.014  21.366  1.00  0.00    -0.116 N
ATOM     36  H6  UNL     1      -0.427 -45.263  20.540  1.00  0.00     0.206 HD
ATOM     37  H5  UNL     1      -2.550 -45.920  20.642  1.00  0.00     0.206 HD
BRANCH  35  38
HETATM   38  C9  UNL     1      -0.332 -44.267  22.390  1.00  0.00     0.713 A
HETATM   39  N7  UNL     1       0.014 -42.987  22.155  1.00  0.00    -0.172 N
HETATM   40  C10 UNL     1       0.614 -42.221  23.051  1.00  0.00     0.138 A
ATOM     41  H7  UNL     1      -0.197 -42.589  21.240  1.00  0.00     0.186 HD
HETATM   42  N8  UNL     1       0.934 -41.001  22.802  1.00  0.00    -0.383 N
HETATM   43  C11 UNL     1       0.902 -42.760  24.291  1.00  0.00     0.066 A
ATOM     44  H82 UNL     1       0.722 -40.603  21.886  1.00  0.00     0.157 HD
ATOM     45  H81 UNL     1       1.396 -40.410  23.493  1.00  0.00     0.157 HD
HETATM   46  C12 UNL     1       1.570 -41.932  25.312  1.00  0.00     0.074 C
HETATM   47  N9  UNL     1       0.550 -44.041  24.509  1.00  0.00    -0.287 N
HETATM   48  N10 UNL     1      -0.049 -44.788  23.599  1.00  0.00    -0.130 N
ATOM     49  H9  UNL     1       0.754 -44.454  25.419  1.00  0.00     0.187 HD
ATOM     50  H10 UNL     1      -0.297 -45.754  23.812  1.00  0.00     0.205 HD
ENDBRANCH  35  38
ENDBRANCH   4  34
TORSDOF 10
ENDMDL