MODEL 1
REMARK VINA RESULT: -6.638833285      0.000      0.000
REMARK  7 active torsions:
REMARK  status: ('A' for Active; 'I' for Inactive)
REMARK    1  A    between atoms: C2_2  and  O1_3
REMARK    2  A    between atoms: O1_3  and  C3_4
REMARK    3  A    between atoms: C3_4  and  C4_6
REMARK    4  A    between atoms: C4_6  and  N1_7
REMARK    5  A    between atoms: N1_7  and  C6_10
REMARK    6  A    between atoms: C6_10  and  C7_11
REMARK    7  A    between atoms: C7_11  and  O3_12
ROOT
HETATM    1  N1  UNL     1      -4.727   1.809  13.712  1.00  0.00    -0.308 N
HETATM    2  C5  UNL     1      -5.123   1.821  12.335  1.00  0.00     0.180 C
HETATM    3  N2  UNL     1      -5.430   1.813  11.221  1.00  0.00    -0.172 NA
ENDROOT
BRANCH   1   4
HETATM    4  C4  UNL     1      -4.177   0.569  14.186  1.00  0.00     0.245 C
BRANCH   4   5
HETATM    5  C3  UNL     1      -4.343   0.501  15.696  1.00  0.00     0.277 C
HETATM    6  O2  UNL     1      -3.423   0.858  16.458  1.00  0.00    -0.263 OA
BRANCH   5   7
HETATM    7  O1  UNL     1      -5.529   0.037  16.228  1.00  0.00    -0.321 OA
BRANCH   7   8
HETATM    8  C2  UNL     1      -6.115   0.570  17.396  1.00  0.00     0.174 C
HETATM    9  C1  UNL     1      -7.302   1.414  17.014  1.00  0.00     0.034 C
ENDBRANCH   7   8
ENDBRANCH   5   7
ENDBRANCH   4   5
ENDBRANCH   1   4
BRANCH   1  10
HETATM   10  C6  UNL     1      -4.864   2.979  14.515  1.00  0.00     0.173 C
BRANCH  10  11
HETATM   11  C7  UNL     1      -3.763   3.980  14.468  1.00  0.00     0.077 C
HETATM   12  C8  UNL     1      -4.197   5.354  14.741  1.00  0.00     0.067 C
HETATM   13  C9  UNL     1      -3.180   6.411  14.339  1.00  0.00     0.235 C
HETATM   14  N3  UNL     1      -2.890   6.347  12.932  1.00  0.00    -0.075 N
HETATM   15  C10 UNL     1      -3.384   5.127  12.333  1.00  0.00     0.235 C
ATOM     16  H32 UNL     1      -3.243   7.169  12.442  1.00  0.00     0.277 HD
ATOM     17  H31 UNL     1      -1.893   6.470  12.753  1.00  0.00     0.277 HD
HETATM   18  C11 UNL     1      -3.032   3.913  13.133  1.00  0.00     0.067 C
BRANCH  11  19
HETATM   19  O3  UNL     1      -2.786   3.567  15.421  1.00  0.00    -0.388 OA
ATOM     20  H3  UNL     1      -2.169   3.011  14.960  1.00  0.00     0.210 HD
ENDBRANCH  11  19
ENDBRANCH  10  11
ENDBRANCH   1  10
TORSDOF 7
ENDMDL