MODEL 5
REMARK VINA RESULT: -6.667216446      1.707      3.652
REMARK  8 active torsions:
REMARK  status: ('A' for Active; 'I' for Inactive)
REMARK    1  A    between atoms: C3_3  and  O1_4
REMARK    2  A    between atoms: C3_3  and  C4_6
REMARK    3  A    between atoms: C5_7  and  C6_8
REMARK    4  A    between atoms: C6_8  and  O3_10
REMARK    5  A    between atoms: O3_10  and  C7_11
REMARK    6  A    between atoms: C7_11  and  C8_12
REMARK    7  A    between atoms: C10_15  and  C11_16
REMARK    8  A    between atoms: C11_16  and  O5_17
ROOT
HETATM    1  C1  UNL     1      -6.479   5.454  14.027  1.00  0.00     0.100 C
HETATM    2  C2  UNL     1      -6.246   4.637  14.904  1.00  0.00    -0.152 C
HETATM    3  C3  UNL     1      -5.974   3.672  15.974  1.00  0.00     0.207 C
ENDROOT
BRANCH   3   4
HETATM    4  O1  UNL     1      -6.963   3.748  16.933  1.00  0.00    -0.381 OA
ATOM      5  H1  UNL     1      -7.341   2.889  17.073  1.00  0.00     0.211 HD
ENDBRANCH   3   4
BRANCH   3   6
HETATM    6  C4  UNL     1      -5.866   2.282  15.419  1.00  0.00     0.022 C
HETATM    7  C5  UNL     1      -4.673   1.798  15.133  1.00  0.00     0.081 C
BRANCH   7   8
HETATM    8  C6  UNL     1      -4.547   0.457  14.595  1.00  0.00     0.282 C
HETATM    9  O2  UNL     1      -4.453  -0.500  15.401  1.00  0.00    -0.260 OA
BRANCH   8  10
HETATM   10  O3  UNL     1      -4.524   0.147  13.260  1.00  0.00    -0.313 OA
BRANCH  10  11
HETATM   11  C7  UNL     1      -3.738   0.727  12.279  1.00  0.00     0.239 C
BRANCH  11  12
HETATM   12  C8  UNL     1      -4.482   1.549  11.268  1.00  0.00     0.284 C
HETATM   13  O4  UNL     1      -5.122   2.640  11.806  1.00  0.00    -0.356 OA
HETATM   14  C9  UNL     1      -4.187   3.666  11.926  1.00  0.00     0.205 C
HETATM   15  C10 UNL     1      -3.088   3.263  10.992  1.00  0.00     0.172 C
HETATM   16  O6  UNL     1      -3.506   2.089  10.396  1.00  0.00    -0.350 OA
BRANCH  15  17
HETATM   17  C11 UNL     1      -2.834   4.324   9.936  1.00  0.00     0.198 C
BRANCH  17  18
HETATM   18  O5  UNL     1      -3.868   4.311   9.007  1.00  0.00    -0.398 OA
ATOM     19  H5  UNL     1      -3.536   4.580   8.158  1.00  0.00     0.209 HD
ENDBRANCH  17  18
ENDBRANCH  15  17
ENDBRANCH  11  12
ENDBRANCH  10  11
ENDBRANCH   8  10
ENDBRANCH   7   8
ENDBRANCH   3   6
TORSDOF 8
ENDMDL