MODEL 1
REMARK VINA RESULT: -5.858996766      0.000      0.000
REMARK  7 active torsions:
REMARK  status: ('A' for Active; 'I' for Inactive)
REMARK    1  A    between atoms: C3_4  and  S1_5
REMARK    2  A    between atoms: S1_5  and  C4_6
REMARK    3  A    between atoms: C4_6  and  C5_7
REMARK    4  A    between atoms: C5_7  and  O1_8
REMARK    5  A    between atoms: O1_8  and  C6_9
REMARK    6  A    between atoms: C8_12  and  O3_13
REMARK    7  A    between atoms: C9_15  and  O4_16
ROOT
HETATM    1  C6  UNL     1      -4.374   2.265  14.975  1.00  0.00     0.290 C
HETATM    2  O2  UNL     1      -5.187   3.222  15.601  1.00  0.00    -0.356 OA
HETATM    3  C7  UNL     1      -6.324   2.535  16.009  1.00  0.00     0.205 C
HETATM    4  C8  UNL     1      -5.732   1.306  16.657  1.00  0.00     0.175 C
HETATM    5  C9  UNL     1      -4.586   0.980  15.733  1.00  0.00     0.204 C
ENDROOT
BRANCH   1   6
HETATM    6  O1  UNL     1      -4.844   2.188  13.668  1.00  0.00    -0.358 OA
BRANCH   6   7
HETATM    7  C5  UNL     1      -4.340   1.042  13.099  1.00  0.00     0.181 C
BRANCH   7   8
HETATM    8  C4  UNL     1      -4.248   1.079  11.614  1.00  0.00     0.100 C
BRANCH   8   9
HETATM    9  S1  UNL     1      -4.191   2.635  10.819  1.00  0.00    -0.159 SA
BRANCH   9  10
HETATM   10  C3  UNL     1      -2.786   3.664  10.921  1.00  0.00     0.104 C
HETATM   11  C2  UNL     1      -3.067   4.972  11.676  1.00  0.00     0.288 C
HETATM   12  N1  UNL     1      -1.831   4.874  12.407  1.00  0.00     0.086 N
HETATM   13  C1  UNL     1      -1.971   4.898  13.864  1.00  0.00     0.310 C
HETATM   14  C10 UNL     1      -1.702   3.497  11.893  1.00  0.00     0.288 C
ENDBRANCH   9  10
ENDBRANCH   8   9
ENDBRANCH   7   8
ENDBRANCH   6   7
ENDBRANCH   1   6
BRANCH   5  15
HETATM   15  O4  UNL     1      -3.452   0.745  16.502  1.00  0.00    -0.388 OA
ATOM     16  H4  UNL     1      -3.736   0.463  17.363  1.00  0.00     0.210 HD
ENDBRANCH   5  15
BRANCH   4  17
HETATM   17  O3  UNL     1      -6.680   0.284  16.701  1.00  0.00    -0.391 OA
ATOM     18  H3  UNL     1      -6.272  -0.529  16.979  1.00  0.00     0.210 HD
ENDBRANCH   4  17
TORSDOF 7
ENDMDL