MODEL 5
REMARK VINA RESULT: -6.048339136      1.627      2.521
REMARK  6 active torsions:
REMARK  status: ('A' for Active; 'I' for Inactive)
REMARK    1  A    between atoms: O1_2  and  C2_3
REMARK    2  A    between atoms: C2_3  and  C3_4
REMARK    3  A    between atoms: C4_6  and  C5_7
REMARK    4  A    between atoms: C6_8  and  C7_9
REMARK    5  A    between atoms: C9_13  and  O5_14
REMARK    6  A    between atoms: C10_16  and  O6_17
ROOT
HETATM    1  C3  UNL     1      -3.790   3.538  12.488  1.00  0.00     0.177 C
HETATM    2  O2  UNL     1      -3.570   2.718  13.605  1.00  0.00    -0.372 OA
HETATM    3  C4  UNL     1      -4.773   2.678  14.303  1.00  0.00     0.147 C
HETATM    4  C8  UNL     1      -5.293   3.997  14.737  1.00  0.00     0.070 C
HETATM    5  C9  UNL     1      -5.120   5.109  13.750  1.00  0.00     0.152 C
HETATM    6  C10 UNL     1      -3.775   4.951  13.031  1.00  0.00     0.180 C
ENDROOT
BRANCH   3   7
HETATM    7  C5  UNL     1      -4.716   1.752  15.460  1.00  0.00     0.011 C
HETATM    8  C6  UNL     1      -5.723   1.656  16.303  1.00  0.00     0.083 C
BRANCH   8   9
HETATM    9  C7  UNL     1      -5.725   0.769  17.451  1.00  0.00     0.198 C
HETATM   10  O3  UNL     1      -5.822  -0.473  17.376  1.00  0.00    -0.645 OA
HETATM   11  O4  UNL     1      -5.615   1.346  18.700  1.00  0.00    -0.645 OA
ENDBRANCH   8   9
ENDBRANCH   3   7
BRANCH   1  12
HETATM   12  C2  UNL     1      -2.810   3.309  11.401  1.00  0.00     0.201 C
BRANCH  12  13
HETATM   13  O1  UNL     1      -1.653   2.698  11.849  1.00  0.00    -0.393 OA
HETATM   14  C1  UNL     1      -0.527   3.483  11.833  1.00  0.00     0.201 C
ENDBRANCH  12  13
ENDBRANCH   1  12
BRANCH   5  15
HETATM   15  O5  UNL     1      -6.171   5.211  12.842  1.00  0.00    -0.393 OA
ATOM     16  H5  UNL     1      -6.589   4.378  12.655  1.00  0.00     0.210 HD
ENDBRANCH   5  15
BRANCH   6  17
HETATM   17  O6  UNL     1      -3.562   5.907  12.077  1.00  0.00    -0.385 OA
HETATM   18  C11 UNL     1      -2.887   6.994  12.628  1.00  0.00     0.202 C
ENDBRANCH   6  17
TORSDOF 6
ENDMDL