MODEL 3
REMARK VINA RESULT: -5.925482490      2.361      3.757
REMARK  6 active torsions:
REMARK  status: ('A' for Active; 'I' for Inactive)
REMARK    1  A    between atoms: S1_2  and  O1_3
REMARK    2  A    between atoms: O1_3  and  C2_4
REMARK    3  A    between atoms: C8_12  and  C9_13
REMARK    4  A    between atoms: C9_13  and  O4_14
REMARK    5  A    between atoms: C9_13  and  C10_16
REMARK    6  A    between atoms: C10_16  and  O5_17
ROOT
HETATM    1  C2  UNL     1      -4.369   2.799  14.657  1.00  0.00     0.169 C
HETATM    2  C3  UNL     1      -4.004   3.213  13.228  1.00  0.00     0.045 C
HETATM    3  C4  UNL     1      -4.702   2.291  12.299  1.00  0.00     0.043 C
HETATM    4  C5  UNL     1      -4.379   2.378  10.859  1.00  0.00     0.175 C
HETATM    5  O2  UNL     1      -4.203   1.079  10.377  1.00  0.00    -0.388 OA
HETATM    6  C6  UNL     1      -4.595   0.200  11.412  1.00  0.00     0.199 C
HETATM    7  C7  UNL     1      -4.059   0.921  12.607  1.00  0.00     0.152 C
HETATM    8  O3  UNL     1      -4.596   0.542  13.798  1.00  0.00    -0.373 OA
HETATM    9  C8  UNL     1      -4.220   1.337  14.878  1.00  0.00     0.183 C
ENDROOT
BRANCH   9  10
HETATM   10  C9  UNL     1      -4.872   0.733  16.074  1.00  0.00     0.173 C
BRANCH  10  11
HETATM   11  O4  UNL     1      -5.053  -0.621  16.074  1.00  0.00    -0.391 OA
ATOM     12  H4  UNL     1      -5.325  -1.025  16.889  1.00  0.00     0.210 HD
ENDBRANCH  10  11
BRANCH  10  13
HETATM   13  C10 UNL     1      -6.144   1.412  16.527  1.00  0.00     0.198 C
BRANCH  13  14
HETATM   14  O5  UNL     1      -7.140   0.444  16.761  1.00  0.00    -0.398 OA
ATOM     15  H5  UNL     1      -7.554   0.608  17.600  1.00  0.00     0.209 HD
ENDBRANCH  13  14
ENDBRANCH  10  13
ENDBRANCH   9  10
BRANCH   1  16
HETATM   16  O1  UNL     1      -5.599   3.328  15.021  1.00  0.00    -0.312 OA
BRANCH  16  17
HETATM   17  S1  UNL     1      -5.801   4.971  14.977  1.00  0.00    -0.016 SA
HETATM   18  C1  UNL     1      -6.712   5.559  13.523  1.00  0.00     0.123 C
ENDBRANCH  16  17
ENDBRANCH   1  16
TORSDOF 6
ENDMDL