MODEL 3
REMARK VINA RESULT: -5.919557290      2.428      5.497
REMARK  6 active torsions:
REMARK  status: ('A' for Active; 'I' for Inactive)
REMARK    1  A    between atoms: O1_2  and  C2_3
REMARK    2  A    between atoms: C3_5  and  C4_6
REMARK    3  A    between atoms: C6_10  and  C7_11
REMARK    4  A    between atoms: C7_11  and  O5_12
REMARK    5  A    between atoms: C8_14  and  N1_15
REMARK    6  A    between atoms: N1_15  and  C9_17
ROOT
HETATM    1  C2  UNL     1      -3.073   2.193  12.101  1.00  0.00     0.287 C
HETATM    2  O2  UNL     1      -1.750   2.654  11.882  1.00  0.00    -0.322 OA
HETATM    3  C3  UNL     1      -1.854   3.768  11.090  1.00  0.00     0.333 C
HETATM    4  O4  UNL     1      -2.374   4.813  11.777  1.00  0.00    -0.344 OA
HETATM    5  C6  UNL     1      -3.150   4.577  12.874  1.00  0.00     0.175 C
HETATM    6  C8  UNL     1      -3.755   3.232  12.971  1.00  0.00     0.164 C
ENDROOT
BRANCH   6   7
HETATM    7  N1  UNL     1      -3.696   2.753  14.320  1.00  0.00    -0.407 N
ATOM      8  H1  UNL     1      -2.857   2.874  14.887  1.00  0.00     0.154 HD
BRANCH   7   9
HETATM    9  C9  UNL     1      -4.847   2.102  14.840  1.00  0.00     0.069 C
HETATM   10  C10 UNL     1      -5.890   3.196  15.130  1.00  0.00     0.031 C
HETATM   11  C11 UNL     1      -4.430   1.498  16.191  1.00  0.00     0.031 C
ENDBRANCH   7   9
ENDBRANCH   6   7
BRANCH   1  12
HETATM   12  O1  UNL     1      -3.689   1.993  10.879  1.00  0.00    -0.364 OA
HETATM   13  C1  UNL     1      -4.819   1.187  11.107  1.00  0.00     0.204 C
ENDBRANCH   1  12
BRANCH   5  14
HETATM   14  C7  UNL     1      -2.328   4.983  14.077  1.00  0.00     0.198 C
BRANCH  14  15
HETATM   15  O5  UNL     1      -1.120   4.278  14.123  1.00  0.00    -0.398 OA
ATOM     16  H5  UNL     1      -0.503   4.695  14.713  1.00  0.00     0.209 HD
ENDBRANCH  14  15
ENDBRANCH   5  14
BRANCH   3  17
HETATM   17  C4  UNL     1      -0.470   4.175  10.676  1.00  0.00     0.177 C
HETATM   18  C5  UNL     1      -0.266   4.839   9.381  1.00  0.00     0.096 C
HETATM   19  O3  UNL     1       0.427   3.924  11.456  1.00  0.00    -0.293 OA
ENDBRANCH   3  17
TORSDOF 6
ENDMDL