MODEL 1
REMARK VINA RESULT: -6.361022015      0.000      0.000
REMARK  8 active torsions:
REMARK  status: ('A' for Active; 'I' for Inactive)
REMARK    1  A    between atoms: O1_2  and  C2_3
REMARK    2  A    between atoms: C2_3  and  C3_4
REMARK    3  A    between atoms: C3_4  and  C4_5
REMARK    4  A    between atoms: C4_5  and  C5_6
REMARK    5  A    between atoms: C6_8  and  O3_9
REMARK    6  A    between atoms: O3_9  and  C7_10
REMARK    7  A    between atoms: C10_14  and  O5_15
REMARK    8  A    between atoms: C11_17  and  O6_18
ROOT
HETATM    1  C5  UNL     1      -3.241   2.667  12.310  1.00  0.00     0.156 C
HETATM    2  O2  UNL     1      -3.735   2.224  13.507  1.00  0.00    -0.353 OA
HETATM    3  C6  UNL     1      -4.482   1.058  13.371  1.00  0.00     0.272 C
HETATM    4  C9  UNL     1      -3.985   0.213  12.210  1.00  0.00     0.095 C
HETATM    5  C10 UNL     1      -4.349   0.962  10.923  1.00  0.00     0.154 C
HETATM    6  C11 UNL     1      -4.365   2.429  11.284  1.00  0.00     0.176 C
ENDROOT
BRANCH   1   7
HETATM    7  C4  UNL     1      -2.911   4.116  12.225  1.00  0.00     0.037 C
BRANCH   7   8
HETATM    8  C3  UNL     1      -3.482   5.022  13.267  1.00  0.00     0.029 C
BRANCH   8   9
HETATM    9  C2  UNL     1      -4.575   5.864  12.738  1.00  0.00     0.167 C
BRANCH   9  10
HETATM   10  O1  UNL     1      -5.827   5.243  12.778  1.00  0.00    -0.396 OA
HETATM   11  C1  UNL     1      -6.178   4.784  14.016  1.00  0.00     0.201 C
ENDBRANCH   9  10
ENDBRANCH   8   9
ENDBRANCH   7   8
ENDBRANCH   1   7
BRANCH   6  12
HETATM   12  O6  UNL     1      -4.106   3.237  10.177  1.00  0.00    -0.390 OA
ATOM     13  H6  UNL     1      -3.379   2.852   9.703  1.00  0.00     0.210 HD
ENDBRANCH   6  12
BRANCH   3  14
HETATM   14  O3  UNL     1      -4.451   0.270  14.538  1.00  0.00    -0.290 OA
BRANCH  14  15
HETATM   15  C7  UNL     1      -4.462   0.902  15.769  1.00  0.00     0.257 C
HETATM   16  C8  UNL     1      -5.653   1.641  16.273  1.00  0.00     0.126 C
HETATM   17  O4  UNL     1      -3.444   0.872  16.518  1.00  0.00    -0.266 OA
ENDBRANCH  14  15
ENDBRANCH   3  14
BRANCH   5  18
HETATM   18  O5  UNL     1      -5.634   0.611  10.505  1.00  0.00    -0.393 OA
ATOM     19  H5  UNL     1      -5.591  -0.058   9.832  1.00  0.00     0.210 HD
ENDBRANCH   5  18
TORSDOF 8
ENDMDL