MODEL 4
REMARK VINA RESULT: -5.334438366      1.459      3.082
REMARK  7 active torsions:
REMARK  status: ('A' for Active; 'I' for Inactive)
REMARK    1  A    between atoms: C2_2  and  C3_3
REMARK    2  A    between atoms: C3_3  and  O1_4
REMARK    3  A    between atoms: O1_4  and  C4_5
REMARK    4  A    between atoms: C5_6  and  O2_7
REMARK    5  A    between atoms: C8_11  and  O4_12
REMARK    6  A    between atoms: C10_14  and  O5_15
REMARK    7  A    between atoms: C11_17  and  O6_18
ROOT
HETATM    1  C4  UNL     1      -4.605   2.001  13.806  1.00  0.00     0.184 C
HETATM    2  C5  UNL     1      -5.343   3.289  14.057  1.00  0.00     0.176 C
HETATM    3  C7  UNL     1      -5.371   4.184  12.824  1.00  0.00     0.205 C
HETATM    4  O3  UNL     1      -4.126   4.468  12.336  1.00  0.00    -0.356 OA
HETATM    5  C8  UNL     1      -3.712   3.699  11.262  1.00  0.00     0.290 C
HETATM    6  C10 UNL     1      -3.538   2.245  11.612  1.00  0.00     0.204 C
HETATM    7  C11 UNL     1      -4.692   1.649  12.342  1.00  0.00     0.183 C
ENDROOT
BRANCH   1   8
HETATM    8  O1  UNL     1      -5.067   0.971  14.619  1.00  0.00    -0.377 OA
BRANCH   8   9
HETATM    9  C3  UNL     1      -4.436   0.966  15.862  1.00  0.00     0.195 C
BRANCH   9  10
HETATM   10  C2  UNL     1      -5.412   0.669  16.946  1.00  0.00    -0.011 C
HETATM   11  C1  UNL     1      -6.601   1.234  16.969  1.00  0.00     0.009 C
ENDBRANCH   9  10
ENDBRANCH   8   9
ENDBRANCH   1   8
BRANCH   2  12
HETATM   12  O2  UNL     1      -4.954   3.944  15.186  1.00  0.00    -0.386 OA
HETATM   13  C6  UNL     1      -5.664   5.092  15.478  1.00  0.00     0.202 C
ENDBRANCH   2  12
BRANCH   7  14
HETATM   14  O6  UNL     1      -4.546   0.243  12.269  1.00  0.00    -0.390 OA
ATOM     15  H6  UNL     1      -4.459   0.035  11.346  1.00  0.00     0.210 HD
ENDBRANCH   7  14
BRANCH   6  16
HETATM   16  O5  UNL     1      -2.394   2.087  12.403  1.00  0.00    -0.388 OA
ATOM     17  H5  UNL     1      -2.268   1.167  12.599  1.00  0.00     0.210 HD
ENDBRANCH   6  16
BRANCH   5  18
HETATM   18  O4  UNL     1      -4.362   3.945  10.099  1.00  0.00    -0.363 OA
HETATM   19  C9  UNL     1      -4.086   5.093   9.430  1.00  0.00     0.204 C
ENDBRANCH   5  18
TORSDOF 7
ENDMDL