MODEL 2
REMARK VINA RESULT: -5.601730923      3.213      5.299
REMARK  7 active torsions:
REMARK  status: ('A' for Active; 'I' for Inactive)
REMARK    1  A    between atoms: O1_2  and  C2_3
REMARK    2  A    between atoms: C2_3  and  C3_4
REMARK    3  A    between atoms: C3_4  and  O2_6
REMARK    4  A    between atoms: O2_6  and  C5_7
REMARK    5  A    between atoms: C7_10  and  C8_11
REMARK       I    between atoms: C8_11  and  N1_13
REMARK    6  A    between atoms: N1_13  and  N2_15
REMARK    7  A    between atoms: C9_20  and  O5_21
ROOT
HETATM    1  C5  UNL     1      -4.949   4.390  14.005  1.00  0.00     0.177 C
HETATM    2  C6  UNL     1      -5.920   4.135  15.167  1.00  0.00     0.203 C
HETATM    3  O3  UNL     1      -6.167   2.782  14.933  1.00  0.00    -0.371 OA
HETATM    4  C7  UNL     1      -4.904   2.209  14.851  1.00  0.00     0.246 C
HETATM    5  C9  UNL     1      -3.975   3.266  14.278  1.00  0.00     0.187 C
ENDROOT
BRANCH   4   6
HETATM    6  C8  UNL     1      -4.503   1.778  16.204  1.00  0.00     0.268 C
HETATM    7  O4  UNL     1      -3.383   1.232  16.350  1.00  0.00    -0.269 OA
HETATM    8  N1  UNL     1      -5.309   1.941  17.362  1.00  0.00    -0.254 N
ATOM      9  H1  UNL     1      -5.033   2.543  18.138  1.00  0.00     0.191 HD
BRANCH   8  10
HETATM   10  N2  UNL     1      -6.381   1.301  17.365  1.00  0.00    -0.247 N
HETATM   11  N3  UNL     1      -7.526   0.960  17.057  1.00  0.00    -0.331 N
ATOM     12  H32 UNL     1      -7.677   1.668  16.338  1.00  0.00     0.178 HD
ATOM     13  H31 UNL     1      -8.401   0.437  17.060  1.00  0.00     0.178 HD
ATOM     14  H2  UNL     1      -6.178   0.615  18.092  1.00  0.00     0.207 HD
ENDBRANCH   8  10
ENDBRANCH   4   6
BRANCH   5  15
HETATM   15  O5  UNL     1      -3.003   3.655  15.203  1.00  0.00    -0.390 OA
ATOM     16  H5  UNL     1      -3.084   3.163  16.012  1.00  0.00     0.210 HD
ENDBRANCH   5  15
BRANCH   1  17
HETATM   17  O2  UNL     1      -4.400   5.630  14.032  1.00  0.00    -0.374 OA
BRANCH  17  18
HETATM   18  C3  UNL     1      -4.048   5.992  12.732  1.00  0.00     0.141 C
HETATM   19  C4  UNL     1      -2.955   7.036  12.852  1.00  0.00     0.042 C
BRANCH  18  20
HETATM   20  C2  UNL     1      -5.214   6.479  11.934  1.00  0.00     0.198 C
BRANCH  20  21
HETATM   21  O1  UNL     1      -5.331   5.735  10.773  1.00  0.00    -0.393 OA
HETATM   22  C1  UNL     1      -5.286   6.474   9.606  1.00  0.00     0.201 C
ENDBRANCH  20  21
ENDBRANCH  18  20
ENDBRANCH  17  18
ENDBRANCH   1  17
TORSDOF 7
ENDMDL