MODEL 2
REMARK VINA RESULT: -6.012907048      1.779      3.253
REMARK  7 active torsions:
REMARK  status: ('A' for Active; 'I' for Inactive)
REMARK    1  A    between atoms: C3_3  and  O1_4
REMARK    2  A    between atoms: O1_4  and  C4_5
REMARK    3  A    between atoms: C5_6  and  O2_7
REMARK    4  A    between atoms: C6_10  and  C7_11
REMARK    5  A    between atoms: C6_10  and  C9_13
REMARK    6  A    between atoms: C9_13  and  O4_14
REMARK    7  A    between atoms: C10_17  and  O6_18
ROOT
HETATM    1  C1  UNL     1      -6.562   2.160  17.350  1.00  0.00     0.014 C
HETATM    2  C2  UNL     1      -5.738   1.472  16.800  1.00  0.00    -0.091 C
HETATM    3  C3  UNL     1      -4.735   0.656  16.157  1.00  0.00     0.261 C
ENDROOT
BRANCH   3   4
HETATM    4  O1  UNL     1      -3.900   1.449  15.357  1.00  0.00    -0.364 OA
BRANCH   4   5
HETATM    5  C4  UNL     1      -4.604   2.100  14.364  1.00  0.00     0.232 C
HETATM    6  C5  UNL     1      -4.140   3.529  14.226  1.00  0.00     0.294 C
HETATM    7  O3  UNL     1      -4.012   3.941  12.915  1.00  0.00    -0.317 OA
HETATM    8  C6  UNL     1      -3.188   3.153  12.148  1.00  0.00     0.209 C
HETATM    9  O5  UNL     1      -3.254   1.808  12.462  1.00  0.00    -0.317 OA
HETATM   10  C10 UNL     1      -4.463   1.425  13.018  1.00  0.00     0.296 C
BRANCH   6  11
HETATM   11  O2  UNL     1      -2.999   3.793  14.991  1.00  0.00    -0.368 OA
ATOM     12  H2  UNL     1      -2.843   4.724  15.097  1.00  0.00     0.212 HD
ENDBRANCH   6  11
BRANCH   8  13
HETATM   13  C7  UNL     1      -3.540   3.401  10.721  1.00  0.00     0.033 C
HETATM   14  C8  UNL     1      -3.926   4.587  10.278  1.00  0.00     0.012 C
ENDBRANCH   8  13
BRANCH   8  15
HETATM   15  C9  UNL     1      -1.716   3.556  12.294  1.00  0.00     0.237 C
BRANCH  15  16
HETATM   16  O4  UNL     1      -0.885   2.492  12.026  1.00  0.00    -0.395 OA
ATOM     17  H4  UNL     1      -0.450   2.603  11.189  1.00  0.00     0.209 HD
ENDBRANCH  15  16
ENDBRANCH   8  15
BRANCH  10  18
HETATM   18  O6  UNL     1      -4.426   0.054  13.205  1.00  0.00    -0.363 OA
HETATM   19  C11 UNL     1      -4.126  -0.566  11.992  1.00  0.00     0.204 C
ENDBRANCH  10  18
ENDBRANCH   4   5
ENDBRANCH   3   4
TORSDOF 7
ENDMDL