MODEL 5
REMARK VINA RESULT: -6.446890621      3.372      6.353
REMARK  4 active torsions:
REMARK  status: ('A' for Active; 'I' for Inactive)
REMARK    1  A    between atoms: C2_2  and  C3_3
REMARK    2  A    between atoms: C6_9  and  C7_10
REMARK    3  A    between atoms: C8_16  and  N4_17
REMARK    4  A    between atoms: C12_25  and  N6_26
ROOT
HETATM    1  C3  UNL     1      13.058   2.345 -36.485  1.00  0.00    -0.037 A
HETATM    2  C4  UNL     1      11.948   1.534 -36.473  1.00  0.00     0.060 A
HETATM    3  S1  UNL     1      12.518   0.039 -37.002  1.00  0.00    -0.083 SA
HETATM    4  C5  UNL     1      14.182   0.462 -37.238  1.00  0.00     0.087 A
HETATM    5  N1  UNL     1      15.237  -0.230 -37.645  1.00  0.00    -0.347 N
ATOM      6  H1  UNL     1      15.104  -1.213 -37.881  1.00  0.00     0.167 HD
HETATM    7  C6  UNL     1      16.516   0.306 -37.769  1.00  0.00     0.080 A
HETATM    8  C9  UNL     1      16.612   1.610 -37.454  1.00  0.00     0.044 A
HETATM    9  C10 UNL     1      17.812   2.285 -37.631  1.00  0.00     0.037 A
HETATM   10  C11 UNL     1      18.969   1.718 -38.334  1.00  0.00     0.070 C
HETATM   11  N5  UNL     1      17.842   3.608 -37.340  1.00  0.00    -0.195 N
ATOM     12  H5  UNL     1      18.727   4.101 -37.463  1.00  0.00     0.184 HD
HETATM   13  C12 UNL     1      16.773   4.328 -36.895  1.00  0.00     0.676 A
HETATM   14  N7  UNL     1      15.622   3.660 -36.748  1.00  0.00    -0.190 N
ATOM     15  H7  UNL     1      14.801   4.169 -36.420  1.00  0.00     0.184 HD
HETATM   16  C13 UNL     1      15.502   2.366 -37.010  1.00  0.00     0.077 A
HETATM   17  C14 UNL     1      14.216   1.775 -36.886  1.00  0.00     0.033 A
ENDROOT
BRANCH   7  18
HETATM   18  C7  UNL     1      17.528  -0.659 -38.095  1.00  0.00     0.129 A
HETATM   19  N2  UNL     1      18.456  -1.320 -37.506  1.00  0.00    -0.236 N
HETATM   20  O1  UNL     1      19.175  -2.016 -38.274  1.00  0.00    -0.155 OA
ATOM     21  H2  UNL     1      18.602  -1.286 -36.497  1.00  0.00     0.197 HD
HETATM   22  N3  UNL     1      18.782  -1.878 -39.487  1.00  0.00    -0.224 N
HETATM   23  C8  UNL     1      17.712  -1.010 -39.462  1.00  0.00     0.152 A
ATOM     24  H3  UNL     1      19.183  -2.325 -40.311  1.00  0.00     0.198 HD
BRANCH  23  25
HETATM   25  N4  UNL     1      17.112  -0.635 -40.510  1.00  0.00    -0.382 N
ATOM     26  H42 UNL     1      16.186  -0.208 -40.491  1.00  0.00     0.157 HD
ATOM     27  H41 UNL     1      17.371  -0.699 -41.494  1.00  0.00     0.157 HD
ENDBRANCH  23  25
ENDBRANCH   7  18
BRANCH   1  28
HETATM   28  C2  UNL     1      12.883   3.789 -36.037  1.00  0.00     0.035 C
HETATM   29  C1  UNL     1      12.208   3.885 -34.696  1.00  0.00     0.010 C
ENDBRANCH   1  28
BRANCH  13  30
HETATM   30  N6  UNL     1      16.863   5.519 -36.640  1.00  0.00    -0.234 N
ATOM     31  H62 UNL     1      17.138   6.201 -37.347  1.00  0.00     0.174 HD
ATOM     32  H61 UNL     1      16.665   5.884 -35.709  1.00  0.00     0.174 HD
ENDBRANCH  13  30
TORSDOF 4
ENDMDL