MODEL 1
REMARK VINA RESULT: -6.376201858      0.000      0.000
REMARK  5 active torsions:
REMARK  status: ('A' for Active; 'I' for Inactive)
REMARK    1  A    between atoms: C5_7  and  C6_8
REMARK    2  A    between atoms: C10_13  and  N1_14
REMARK    3  A    between atoms: C11_21  and  C12_22
REMARK    4  A    between atoms: C12_22  and  O1_23
REMARK    5  A    between atoms: N3_25  and  O2_27
ROOT
HETATM    1  C1  UNL     1      11.772   3.393 -34.625  1.00  0.00     0.029 C
HETATM    2  C2  UNL     1      12.613   2.426 -35.420  1.00  0.00     0.038 C
HETATM    3  C3  UNL     1      11.820   1.235 -35.887  1.00  0.00     0.029 C
HETATM    4  S1  UNL     1      13.985   1.838 -34.379  1.00  0.00    -0.137 SA
HETATM    5  C4  UNL     1      15.499   2.686 -34.913  1.00  0.00     0.176 C
HETATM    6  S2  UNL     1      16.919   1.585 -34.904  1.00  0.00    -0.135 SA
HETATM    7  C5  UNL     1      16.822   2.141 -36.628  1.00  0.00     0.155 C
HETATM    8  C10 UNL     1      15.558   2.888 -36.393  1.00  0.00     0.322 C
HETATM    9  N2  UNL     1      14.374   2.390 -37.034  1.00  0.00    -0.024 N
ATOM     10  H21 UNL     1      14.236   1.390 -36.887  1.00  0.00     0.281 HD
ATOM     11  H22 UNL     1      14.454   2.368 -38.051  1.00  0.00     0.281 HD
HETATM   12  C11 UNL     1      13.241   3.189 -36.573  1.00  0.00     0.282 C
ENDROOT
BRANCH  12  13
HETATM   13  C12 UNL     1      12.283   3.481 -37.652  1.00  0.00     0.168 C
HETATM   14  N3  UNL     1      11.482   4.482 -37.560  1.00  0.00    -0.249 N
ATOM     15  H3  UNL     1      11.514   5.076 -36.732  1.00  0.00     0.196 HD
BRANCH  13  16
HETATM   16  O1  UNL     1      12.208   2.695 -38.793  1.00  0.00    -0.346 OA
ATOM     17  H1  UNL     1      11.661   1.919 -38.829  1.00  0.00     0.219 HD
ENDBRANCH  13  16
BRANCH  14  18
HETATM   18  O2  UNL     1      10.587   4.765 -38.555  1.00  0.00    -0.288 OA
ATOM     19  H2  UNL     1      10.097   5.579 -38.559  1.00  0.00     0.244 HD
ENDBRANCH  14  18
ENDBRANCH  12  13
BRANCH   8  20
HETATM   20  N1  UNL     1      15.752   4.318 -36.683  1.00  0.00    -0.041 N
ATOM     21  H13 UNL     1      14.876   4.841 -36.647  1.00  0.00     0.277 HD
ATOM     22  H12 UNL     1      16.241   4.802 -35.930  1.00  0.00     0.277 HD
ATOM     23  H11 UNL     1      16.226   4.420 -37.580  1.00  0.00     0.277 HD
ENDBRANCH   8  20
BRANCH   7  24
HETATM   24  C6  UNL     1      16.674   0.920 -37.508  1.00  0.00     0.001 A
HETATM   25  C7  UNL     1      17.390   0.609 -38.629  1.00  0.00     0.016 A
HETATM   26  C8  UNL     1      17.074  -0.552 -39.257  1.00  0.00     0.008 A
HETATM   27  C9  UNL     1      16.072  -1.300 -38.713  1.00  0.00     0.050 A
HETATM   28  S3  UNL     1      15.595  -0.388 -37.356  1.00  0.00    -0.105 SA
ENDBRANCH   7  24
TORSDOF 5
ENDMDL