MODEL 4
REMARK VINA RESULT: -7.232294483      3.251      7.205
REMARK  2 active torsions:
REMARK  status: ('A' for Active; 'I' for Inactive)
REMARK       I    between atoms: C2_2  and  N1_4
REMARK    1  A    between atoms: N1_4  and  C3_6
REMARK    2  A    between atoms: C6_10  and  C7_11
ROOT
HETATM    1  C7  UNL     1      17.019  -2.448 -39.071  1.00  0.00     0.122 A
HETATM    2  N2  UNL     1      16.902  -3.416 -38.131  1.00  0.00    -0.331 N
ATOM      3  H2  UNL     1      16.998  -3.279 -37.125  1.00  0.00     0.168 HD
HETATM    4  C8  UNL     1      16.642  -4.581 -38.733  1.00  0.00     0.153 A
HETATM    5  C9  UNL     1      16.454  -5.827 -38.064  1.00  0.00     0.121 C
HETATM    6  N3  UNL     1      16.316  -6.835 -37.509  1.00  0.00    -0.190 NA
HETATM    7  C10 UNL     1      16.594  -4.342 -40.087  1.00  0.00     0.153 A
HETATM    8  C11 UNL     1      16.337  -5.320 -41.140  1.00  0.00     0.121 C
HETATM    9  N4  UNL     1      16.142  -6.096 -41.975  1.00  0.00    -0.190 NA
HETATM   10  N5  UNL     1      16.829  -3.033 -40.246  1.00  0.00    -0.331 N
ATOM     11  H5  UNL     1      16.858  -2.553 -41.145  1.00  0.00     0.168 HD
ENDROOT
BRANCH   1  12
HETATM   12  C6  UNL     1      17.259  -0.989 -38.777  1.00  0.00     0.070 A
HETATM   13  C3  UNL     1      18.481  -0.452 -38.783  1.00  0.00     0.093 A
HETATM   14  S1  UNL     1      18.214   1.098 -38.018  1.00  0.00    -0.071 SA
HETATM   15  C4  UNL     1      16.534   0.974 -37.743  1.00  0.00     0.037 A
HETATM   16  C5  UNL     1      16.223  -0.251 -38.239  1.00  0.00     0.067 A
HETATM   17  C13 UNL     1      15.565   1.953 -37.106  1.00  0.00     0.227 A
HETATM   18  N6  UNL     1      14.821  -0.627 -38.146  1.00  0.00    -0.321 N
HETATM   19  C12 UNL     1      13.881   0.260 -37.570  1.00  0.00     0.217 A
ATOM     20  H6  UNL     1      14.514  -1.535 -38.497  1.00  0.00     0.169 HD
HETATM   21  N7  UNL     1      12.644  -0.087 -37.494  1.00  0.00    -0.365 N
HETATM   22  O2  UNL     1      14.276   1.468 -37.098  1.00  0.00    -0.317 OA
ATOM     23  H72 UNL     1      12.347  -0.996 -37.849  1.00  0.00     0.159 HD
ATOM     24  H71 UNL     1      11.966   0.553 -37.079  1.00  0.00     0.159 HD
BRANCH  13  25
HETATM   25  N1  UNL     1      19.784  -0.815 -39.225  1.00  0.00    -0.321 N
HETATM   26  C2  UNL     1      20.231  -1.552 -40.312  1.00  0.00     0.218 C
HETATM   27  C1  UNL     1      21.735  -1.766 -40.420  1.00  0.00     0.117 C
HETATM   28  O1  UNL     1      19.596  -2.081 -41.236  1.00  0.00    -0.274 OA
ATOM     29  H1  UNL     1      20.533  -0.466 -38.626  1.00  0.00     0.169 HD
ENDBRANCH  13  25
ENDBRANCH   1  12
TORSDOF 2
ENDMDL