MODEL 5
REMARK VINA RESULT: -5.693243946      1.513      1.677
REMARK  4 active torsions:
REMARK  status: ('A' for Active; 'I' for Inactive)
REMARK    1  A    between atoms: C1_2  and  O2_4
REMARK    2  A    between atoms: O2_4  and  C2_5
REMARK    3  A    between atoms: C2_5  and  C3_6
REMARK    4  A    between atoms: C4_8  and  O3_9
ROOT
HETATM    1  C3  UNL     1      13.422   1.327 -37.218  1.00  0.00     0.020 A
HETATM    2  S1  UNL     1      13.223   0.247 -38.552  1.00  0.00    -0.065 SA
HETATM    3  C4  UNL     1      14.668  -0.616 -38.399  1.00  0.00     0.135 A
HETATM    4  C5  UNL     1      15.289  -0.060 -37.314  1.00  0.00     0.078 A
HETATM    5  C6  UNL     1      14.627   0.966 -36.699  1.00  0.00     0.006 A
HETATM    6  C7  UNL     1      15.226   1.673 -35.505  1.00  0.00     0.041 C
HETATM    7  C8  UNL     1      16.662   2.110 -35.776  1.00  0.00     0.053 C
HETATM    8  C9  UNL     1      16.762   3.641 -35.866  1.00  0.00     0.234 C
HETATM    9  N2  UNL     1      16.552   4.172 -34.560  1.00  0.00    -0.075 N
ATOM     10  H21 UNL     1      16.417   5.183 -34.576  1.00  0.00     0.277 HD
ATOM     11  H22 UNL     1      17.401   4.142 -33.995  1.00  0.00     0.277 HD
HETATM   12  C10 UNL     1      15.467   3.499 -33.928  1.00  0.00     0.234 C
HETATM   13  C11 UNL     1      14.531   2.876 -35.039  1.00  0.00     0.053 C
HETATM   14  S2  UNL     1      15.255   0.463 -34.144  1.00  0.00    -0.152 SA
HETATM   15  C12 UNL     1      16.120  -1.042 -34.533  1.00  0.00     0.094 C
HETATM   16  C13 UNL     1      17.108  -0.966 -35.643  1.00  0.00     0.130 C
HETATM   17  N3  UNL     1      16.562  -0.672 -36.939  1.00  0.00    -0.386 N
ATOM     18  H3  UNL     1      17.159  -0.933 -37.724  1.00  0.00     0.159 HD
ENDROOT
BRANCH   1  19
HETATM   19  C2  UNL     1      12.421   2.378 -36.812  1.00  0.00     0.227 C
BRANCH  19  20
HETATM   20  O2  UNL     1      11.300   1.628 -36.234  1.00  0.00    -0.301 OA
BRANCH  20  21
HETATM   21  C1  UNL     1      10.674   2.083 -35.110  1.00  0.00     0.372 C
HETATM   22  N1  UNL     1       9.785   1.246 -34.382  1.00  0.00    -0.032 NA
HETATM   23  O1  UNL     1      10.925   3.281 -34.752  1.00  0.00    -0.242 OA
ENDBRANCH  20  21
ENDBRANCH  19  20
ENDBRANCH   1  19
BRANCH   3  24
HETATM   24  O3  UNL     1      15.121  -1.683 -39.227  1.00  0.00    -0.352 OA
ATOM     25  H3  UNL     1      14.826  -2.586 -39.208  1.00  0.00     0.218 HD
ENDBRANCH   3  24
TORSDOF 4
ENDMDL