MODEL 3
REMARK VINA RESULT: -7.170249474      1.670      3.521
REMARK  3 active torsions:
REMARK  status: ('A' for Active; 'I' for Inactive)
REMARK    1  A    between atoms: C5_12  and  C6_13
REMARK    2  A    between atoms: C6_13  and  C7_14
REMARK    3  A    between atoms: C9_20  and  N5_21
ROOT
HETATM    1  N1  UNL     1      17.113   3.444 -37.855  1.00  0.00    -0.196 NA
HETATM    2  C1  UNL     1      16.835   3.008 -36.818  1.00  0.00     0.075 C
HETATM    3  C2  UNL     1      16.492   2.428 -35.498  1.00  0.00     0.202 C
HETATM    4  C3  UNL     1      15.650   3.326 -34.713  1.00  0.00     0.140 C
HETATM    5  N2  UNL     1      16.354   4.135 -34.004  1.00  0.00    -0.382 N
ATOM      6  H21 UNL     1      15.766   4.763 -33.455  1.00  0.00     0.158 HD
ATOM      7  H22 UNL     1      17.346   3.956 -34.161  1.00  0.00     0.158 HD
HETATM    8  O1  UNL     1      14.280   3.573 -34.496  1.00  0.00    -0.277 OA
HETATM    9  C4  UNL     1      13.196   3.337 -35.364  1.00  0.00     0.182 A
HETATM   10  N3  UNL     1      12.068   4.040 -35.180  1.00  0.00    -0.324 N
ATOM     11  H3  UNL     1      11.909   4.744 -34.460  1.00  0.00     0.169 HD
HETATM   12  C5  UNL     1      11.181   3.650 -36.116  1.00  0.00     0.093 A
HETATM   13  N4  UNL     1      11.709   2.705 -36.909  1.00  0.00    -0.339 N
ATOM     14  H4  UNL     1      11.257   2.236 -37.695  1.00  0.00     0.167 HD
HETATM   15  C8  UNL     1      12.963   2.504 -36.447  1.00  0.00     0.136 A
HETATM   16  C9  UNL     1      13.792   1.514 -37.125  1.00  0.00     0.168 C
HETATM   17  O4  UNL     1      15.080   1.008 -36.867  1.00  0.00    -0.321 OA
HETATM   18  C10 UNL     1      15.901   1.057 -35.712  1.00  0.00     0.093 C
HETATM   19  C11 UNL     1      15.182   0.578 -34.484  1.00  0.00     0.040 C
HETATM   20  C12 UNL     1      15.879  -0.588 -33.824  1.00  0.00     0.003 C
HETATM   21  C13 UNL     1      16.126  -1.734 -34.760  1.00  0.00     0.000 C
HETATM   22  C14 UNL     1      16.628  -1.306 -36.106  1.00  0.00     0.003 C
HETATM   23  C15 UNL     1      17.082   0.132 -36.009  1.00  0.00     0.040 C
ENDROOT
BRANCH  16  24
HETATM   24  N5  UNL     1      13.239   0.996 -38.168  1.00  0.00    -0.378 N
ATOM     25  H52 UNL     1      13.097  -0.011 -38.092  1.00  0.00     0.158 HD
ATOM     26  H51 UNL     1      13.032   1.671 -38.905  1.00  0.00     0.158 HD
ENDBRANCH  16  24
BRANCH  12  27
HETATM   27  C6  UNL     1       9.819   4.198 -36.238  1.00  0.00     0.189 C
BRANCH  27  28
HETATM   28  C7  UNL     1       9.573   4.808 -37.567  1.00  0.00     0.179 C
HETATM   29  O2  UNL     1      10.505   5.450 -38.109  1.00  0.00    -0.648 OA
HETATM   30  O3  UNL     1       8.368   4.703 -38.236  1.00  0.00    -0.648 OA
ENDBRANCH  27  28
ENDBRANCH  12  27
TORSDOF 3
ENDMDL