MODEL 5
REMARK VINA RESULT: -6.679397828      2.007      2.512
REMARK  4 active torsions:
REMARK  status: ('A' for Active; 'I' for Inactive)
REMARK    1  A    between atoms: N1_1  and  C1_5
REMARK    2  A    between atoms: C3_9  and  N3_10
REMARK    3  A    between atoms: N3_10  and  O1_12
REMARK    4  A    between atoms: C4_14  and  N4_15
ROOT
HETATM    1  C1  UNL     1      19.243  -0.480 -39.616  1.00  0.00     0.387 C
HETATM    2  N2  UNL     1      17.902  -1.026 -39.475  1.00  0.00    -0.343 N
ATOM      3  H2  UNL     1      17.544  -1.875 -39.915  1.00  0.00     0.163 HD
HETATM    4  C2  UNL     1      17.178  -0.154 -38.605  1.00  0.00     0.091 A
HETATM    5  C3  UNL     1      15.836  -0.076 -38.322  1.00  0.00     0.110 A
HETATM    6  C4  UNL     1      15.304   0.852 -37.435  1.00  0.00     0.070 A
HETATM    7  C9  UNL     1      16.193   1.700 -36.846  1.00  0.00     0.007 A
HETATM    8  C10 UNL     1      17.556   1.652 -37.106  1.00  0.00     0.106 A
HETATM    9  C11 UNL     1      18.030   0.720 -37.988  1.00  0.00     0.094 A
HETATM   10  N5  UNL     1      19.329   0.401 -38.473  1.00  0.00    -0.343 N
ATOM     11  H5  UNL     1      20.201   0.746 -38.070  1.00  0.00     0.163 HD
HETATM   12  O2  UNL     1      18.652   2.369 -36.665  1.00  0.00    -0.348 OA
HETATM   13  C12 UNL     1      19.009   3.155 -35.581  1.00  0.00     0.176 C
HETATM   14  C13 UNL     1      18.366   4.522 -35.591  1.00  0.00     0.027 C
HETATM   15  C14 UNL     1      16.914   4.453 -36.034  1.00  0.00     0.002 C
HETATM   16  C15 UNL     1      16.230   3.486 -35.117  1.00  0.00     0.005 C
HETATM   17  C16 UNL     1      15.382   2.559 -35.976  1.00  0.00     0.044 C
ENDROOT
BRANCH   6  18
HETATM   18  N4  UNL     1      13.932   0.898 -37.177  1.00  0.00    -0.378 N
HETATM   19  C5  UNL     1      13.250   0.167 -36.098  1.00  0.00     0.123 C
HETATM   20  C6  UNL     1      12.278   1.218 -35.538  1.00  0.00     0.021 C
HETATM   21  C7  UNL     1      12.059   2.209 -36.631  1.00  0.00     0.021 C
HETATM   22  C8  UNL     1      12.835   1.627 -37.810  1.00  0.00     0.123 C
ENDBRANCH   6  18
BRANCH   5  23
HETATM   23  N3  UNL     1      14.914  -0.970 -38.946  1.00  0.00    -0.265 N
ATOM     24  H3  UNL     1      13.934  -0.716 -39.067  1.00  0.00     0.194 HD
BRANCH  23  25
HETATM   25  O1  UNL     1      15.344  -2.067 -39.334  1.00  0.00    -0.289 OA
ATOM     26  H1  UNL     1      14.743  -2.802 -39.337  1.00  0.00     0.244 HD
ENDBRANCH  23  25
ENDBRANCH   5  23
BRANCH   1  27
HETATM   27  N1  UNL     1      20.259  -1.491 -39.639  1.00  0.00    -0.041 N
ATOM     28  H13 UNL     1      19.848  -2.419 -39.738  1.00  0.00     0.279 HD
ATOM     29  H12 UNL     1      20.793  -1.453 -40.508  1.00  0.00     0.279 HD
ATOM     30  H11 UNL     1      20.878  -1.451 -38.829  1.00  0.00     0.279 HD
ENDBRANCH   1  27
TORSDOF 4
ENDMDL