MODEL 3
REMARK VINA RESULT: -7.586096929      1.573      2.006
REMARK  6 active torsions:
REMARK  status: ('A' for Active; 'I' for Inactive)
REMARK    1  A    between atoms: C2_2  and  C3_3
REMARK    2  A    between atoms: C3_3  and  O2_5
REMARK    3  A    between atoms: O2_5  and  C4_6
REMARK    4  A    between atoms: C5_8  and  O4_9
REMARK    5  A    between atoms: C12_17  and  O5_18
REMARK    6  A    between atoms: C16_23  and  O6_24
ROOT
HETATM    1  C4  UNL     1      12.614   0.647 -36.619  1.00  0.00     0.204 A
HETATM    2  O3  UNL     1      12.659   0.133 -37.794  1.00  0.00    -0.262 OA
HETATM    3  C5  UNL     1      13.862  -0.246 -38.078  1.00  0.00     0.213 A
HETATM    4  C6  UNL     1      14.719   0.034 -37.000  1.00  0.00     0.100 A
HETATM    5  C7  UNL     1      13.886   0.603 -36.086  1.00  0.00     0.032 A
HETATM    6  C8  UNL     1      14.219   1.113 -34.702  1.00  0.00     0.046 C
HETATM    7  C9  UNL     1      15.197   2.171 -34.857  1.00  0.00     0.005 C
HETATM    8  C10 UNL     1      15.203   3.482 -34.152  1.00  0.00     0.003 C
HETATM    9  C11 UNL     1      16.616   4.020 -34.453  1.00  0.00     0.032 C
HETATM   10  C12 UNL     1      17.142   3.882 -35.819  1.00  0.00     0.118 C
HETATM   11  C13 UNL     1      18.005   2.711 -36.152  1.00  0.00     0.040 C
HETATM   12  C14 UNL     1      17.536   1.815 -37.298  1.00  0.00     0.033 C
HETATM   13  C15 UNL     1      18.487   1.843 -38.479  1.00  0.00     0.014 C
HETATM   14  C16 UNL     1      17.346   0.414 -36.870  1.00  0.00     0.221 C
HETATM   15  N1  UNL     1      16.096  -0.262 -36.996  1.00  0.00    -0.359 N
ATOM     16  H1  UNL     1      16.244  -1.263 -37.122  1.00  0.00     0.162 HD
ENDROOT
BRANCH   1  17
HETATM   17  O2  UNL     1      11.431   1.144 -36.053  1.00  0.00    -0.254 OA
BRANCH  17  18
HETATM   18  C3  UNL     1      11.090   2.482 -36.137  1.00  0.00     0.265 C
HETATM   19  O1  UNL     1      11.143   3.062 -37.247  1.00  0.00    -0.265 OA
BRANCH  18  20
HETATM   20  C2  UNL     1      10.673   3.181 -34.901  1.00  0.00     0.107 C
HETATM   21  C1  UNL     1      11.586   4.298 -34.522  1.00  0.00     0.015 C
ENDBRANCH  18  20
ENDBRANCH  17  18
ENDBRANCH   1  17
BRANCH   3  22
HETATM   22  O4  UNL     1      14.139  -0.850 -39.338  1.00  0.00    -0.339 OA
ATOM     23  H4  UNL     1      15.006  -0.774 -39.722  1.00  0.00     0.220 HD
ENDBRANCH   3  22
BRANCH  14  24
HETATM   24  O6  UNL     1      18.407  -0.375 -37.415  1.00  0.00    -0.377 OA
ATOM     25  H6  UNL     1      19.057  -0.516 -36.736  1.00  0.00     0.212 HD
ENDBRANCH  14  24
BRANCH  10  26
HETATM   26  O5  UNL     1      16.311   4.288 -36.864  1.00  0.00    -0.396 OA
ATOM     27  H5  UNL     1      16.458   5.155 -37.222  1.00  0.00     0.210 HD
ENDBRANCH  10  26
TORSDOF 6
ENDMDL