MODEL 4
REMARK VINA RESULT: -7.551191829      2.304      6.227
REMARK  3 active torsions:
REMARK  status: ('A' for Active; 'I' for Inactive)
REMARK    1  A    between atoms: C3_5  and  C4_6
REMARK    2  A    between atoms: C6_10  and  N3_11
REMARK    3  A    between atoms: N6_20  and  C9_21
ROOT
HETATM    1  C4  UNL     1      15.102   0.140 -37.804  1.00  0.00     0.141 A
HETATM    2  N2  UNL     1      15.107  -1.038 -38.485  1.00  0.00    -0.334 N
ATOM      3  H2  UNL     1      14.270  -1.549 -38.766  1.00  0.00     0.168 HD
HETATM    4  C5  UNL     1      16.340  -1.427 -38.732  1.00  0.00     0.122 A
HETATM    5  C6  UNL     1      16.875  -2.538 -39.382  1.00  0.00     0.131 A
HETATM    6  N4  UNL     1      18.206  -2.679 -39.487  1.00  0.00    -0.337 N
ATOM      7  H4  UNL     1      18.606  -3.489 -39.960  1.00  0.00     0.168 HD
HETATM    8  C7  UNL     1      19.009  -1.723 -38.949  1.00  0.00     0.183 A
HETATM    9  N5  UNL     1      18.479  -0.637 -38.314  1.00  0.00    -0.336 N
ATOM     10  H5  UNL     1      19.107   0.064 -37.921  1.00  0.00     0.168 HD
HETATM   11  C8  UNL     1      17.165  -0.467 -38.192  1.00  0.00     0.141 A
HETATM   12  N6  UNL     1      16.375   0.495 -37.623  1.00  0.00    -0.310 N
ENDROOT
BRANCH   1  13
HETATM   13  C3  UNL     1      13.895   0.823 -37.386  1.00  0.00     0.120 A
HETATM   14  N1  UNL     1      13.717   1.567 -36.303  1.00  0.00    -0.340 N
HETATM   15  C2  UNL     1      12.451   2.030 -36.267  1.00  0.00     0.079 A
ATOM     16  H1  UNL     1      14.432   1.761 -35.602  1.00  0.00     0.167 HD
HETATM   17  C1  UNL     1      11.941   2.891 -35.180  1.00  0.00     0.089 C
HETATM   18  N8  UNL     1      11.835   1.556 -37.357  1.00  0.00    -0.333 N
HETATM   19  C15 UNL     1      12.683   0.804 -38.083  1.00  0.00     0.148 A
ATOM     20  H8  UNL     1      10.863   1.740 -37.603  1.00  0.00     0.168 HD
HETATM   21  N7  UNL     1      12.433   0.122 -39.304  1.00  0.00    -0.080 NA
ENDBRANCH   1  13
BRANCH  12  22
HETATM   22  C9  UNL     1      16.940   1.628 -36.980  1.00  0.00     0.093 C
HETATM   23  C10 UNL     1      17.969   2.340 -37.842  1.00  0.00     0.026 C
HETATM   24  C11 UNL     1      19.244   2.575 -37.067  1.00  0.00     0.002 C
HETATM   25  C12 UNL     1      18.869   3.332 -35.800  1.00  0.00     0.000 C
HETATM   26  C13 UNL     1      17.921   2.532 -34.943  1.00  0.00     0.002 C
HETATM   27  C14 UNL     1      17.629   1.244 -35.658  1.00  0.00     0.026 C
ENDBRANCH  12  22
BRANCH   5  28
HETATM   28  N3  UNL     1      16.047  -3.391 -39.860  1.00  0.00    -0.383 N
ATOM     29  H32 UNL     1      16.308  -4.354 -40.076  1.00  0.00     0.157 HD
ATOM     30  H31 UNL     1      15.092  -3.071 -40.023  1.00  0.00     0.157 HD
ENDBRANCH   5  28
TORSDOF 3
ENDMDL