MODEL 4
REMARK VINA RESULT: -6.692922586      1.846      2.517
REMARK  4 active torsions:
REMARK  status: ('A' for Active; 'I' for Inactive)
REMARK    1  A    between atoms: C5_7  and  S1_8
REMARK    2  A    between atoms: S1_8  and  C6_9
REMARK    3  A    between atoms: C7_12  and  N3_13
REMARK    4  A    between atoms: C8_18  and  N5_19
ROOT
HETATM    1  C6  UNL     1      11.383   3.617 -37.079  1.00  0.00     0.115 A
HETATM    2  N2  UNL     1      10.513   3.986 -38.086  1.00  0.00    -0.184 N
ATOM      3  H2  UNL     1      10.581   3.485 -38.972  1.00  0.00     0.185 HD
HETATM    4  C7  UNL     1       9.605   4.932 -37.995  1.00  0.00     0.678 A
HETATM    5  N4  UNL     1       9.488   5.609 -36.848  1.00  0.00    -0.176 N
ATOM      6  H4  UNL     1       8.783   6.343 -36.776  1.00  0.00     0.186 HD
HETATM    7  C8  UNL     1      10.271   5.354 -35.785  1.00  0.00     0.138 A
HETATM    8  C9  UNL     1      11.230   4.336 -35.923  1.00  0.00     0.122 A
HETATM    9  C10 UNL     1      12.034   4.107 -34.765  1.00  0.00     0.106 C
HETATM   10  N6  UNL     1      12.661   3.949 -33.827  1.00  0.00    -0.191 NA
ENDROOT
BRANCH   1  11
HETATM   11  S1  UNL     1      12.478   2.356 -37.442  1.00  0.00    -0.068 SA
BRANCH  11  12
HETATM   12  C5  UNL     1      14.123   2.342 -36.775  1.00  0.00     0.043 A
HETATM   13  C4  UNL     1      14.477   1.667 -35.644  1.00  0.00     0.084 A
HETATM   14  N1  UNL     1      13.648   0.864 -34.873  1.00  0.00    -0.361 N
HETATM   15  C12 UNL     1      15.763   1.777 -35.211  1.00  0.00     0.102 A
HETATM   16  C3  UNL     1      14.115   0.251 -33.782  1.00  0.00     0.113 A
ATOM     17  H1  UNL     1      12.672   0.740 -35.144  1.00  0.00     0.165 HD
HETATM   18  C2  UNL     1      15.411   0.356 -33.338  1.00  0.00     0.021 A
HETATM   19  C1  UNL     1      15.908  -0.326 -32.132  1.00  0.00     0.069 C
HETATM   20  N7  UNL     1      16.213   1.133 -34.084  1.00  0.00    -0.351 N
ATOM     21  H7  UNL     1      17.187   1.249 -33.804  1.00  0.00     0.166 HD
HETATM   22  S2  UNL     1      16.474   2.808 -36.364  1.00  0.00    -0.081 SA
HETATM   23  C11 UNL     1      15.147   3.083 -37.366  1.00  0.00     0.073 A
ENDBRANCH  11  12
ENDBRANCH   1  11
BRANCH   7  24
HETATM   24  N5  UNL     1      10.134   6.023 -34.695  1.00  0.00    -0.384 N
ATOM     25  H52 UNL     1      10.700   5.837 -33.867  1.00  0.00     0.157 HD
ATOM     26  H51 UNL     1       9.443   6.770 -34.629  1.00  0.00     0.157 HD
ENDBRANCH   7  24
BRANCH   4  27
HETATM   27  N3  UNL     1       8.802   5.247 -38.981  1.00  0.00    -0.234 N
ATOM     28  H32 UNL     1       8.995   4.854 -39.902  1.00  0.00     0.174 HD
ATOM     29  H31 UNL     1       7.998   5.865 -38.867  1.00  0.00     0.174 HD
ENDBRANCH   4  27
TORSDOF 4
ENDMDL