MODEL 1
REMARK VINA RESULT: -7.658662895      0.000      0.000
REMARK  6 active torsions:
REMARK  status: ('A' for Active; 'I' for Inactive)
REMARK    1  A    between atoms: N1_1  and  C1_5
REMARK    2  A    between atoms: C1_5  and  N2_6
REMARK    3  A    between atoms: C1_5  and  C2_10
REMARK    4  A    between atoms: C5_13  and  N3_14
REMARK    5  A    between atoms: C6_15  and  O1_16
REMARK    6  A    between atoms: C9_20  and  O2_21
ROOT
HETATM    1  N3  UNL     1      12.924   2.001 -36.421  1.00  0.00    -0.302 N
HETATM    2  C6  UNL     1      13.101   0.674 -36.678  1.00  0.00     0.164 A
HETATM    3  C7  UNL     1      14.429   0.386 -36.677  1.00  0.00     0.093 A
HETATM    4  C8  UNL     1      15.099   1.555 -36.415  1.00  0.00     0.052 A
HETATM    5  C9  UNL     1      14.139   2.547 -36.259  1.00  0.00     0.155 A
HETATM    6  C10 UNL     1      16.565   1.401 -36.398  1.00  0.00     0.109 C
HETATM    7  C11 UNL     1      17.172   2.384 -35.418  1.00  0.00     0.045 C
HETATM    8  C12 UNL     1      17.753   3.514 -36.209  1.00  0.00     0.004 C
HETATM    9  C13 UNL     1      17.565   3.196 -37.671  1.00  0.00     0.004 C
HETATM   10  C14 UNL     1      17.174   1.738 -37.745  1.00  0.00     0.045 C
HETATM   11  O3  UNL     1      16.925   0.144 -35.964  1.00  0.00    -0.298 OA
HETATM   12  S1  UNL     1      15.741  -0.806 -36.841  1.00  0.00     0.035 SA
ENDROOT
BRANCH   1  13
HETATM   13  C5  UNL     1      11.698   2.712 -36.334  1.00  0.00     0.094 C
HETATM   14  C4  UNL     1      11.637   3.760 -35.259  1.00  0.00     0.026 C
HETATM   15  C3  UNL     1      10.482   4.655 -35.728  1.00  0.00     0.010 C
HETATM   16  C2  UNL     1      10.182   4.305 -37.141  1.00  0.00     0.045 C
HETATM   17  C15 UNL     1      11.425   3.531 -37.575  1.00  0.00     0.034 C
BRANCH  16  18
HETATM   18  C1  UNL     1      10.113   5.543 -38.023  1.00  0.00     0.382 C
BRANCH  18  19
HETATM   19  N1  UNL     1       9.032   5.382 -38.959  1.00  0.00    -0.050 N
ATOM     20  H13 UNL     1       8.775   6.250 -39.429  1.00  0.00     0.276 HD
ATOM     21  H12 UNL     1       9.297   4.858 -39.793  1.00  0.00     0.276 HD
ATOM     22  H11 UNL     1       8.259   4.958 -38.447  1.00  0.00     0.276 HD
ENDBRANCH  18  19
BRANCH  18  23
HETATM   23  N2  UNL     1       9.797   6.717 -37.208  1.00  0.00    -0.050 N
ATOM     24  H23 UNL     1      10.329   7.546 -37.473  1.00  0.00     0.276 HD
ATOM     25  H22 UNL     1       8.868   7.095 -37.391  1.00  0.00     0.276 HD
ATOM     26  H21 UNL     1       9.935   6.446 -36.234  1.00  0.00     0.276 HD
ENDBRANCH  18  23
ENDBRANCH  16  18
ENDBRANCH   1  13
BRANCH   2  27
HETATM   27  O1  UNL     1      12.131  -0.294 -36.914  1.00  0.00    -0.345 OA
ATOM     28  H1  UNL     1      12.238  -1.147 -37.316  1.00  0.00     0.219 HD
ENDBRANCH   2  27
BRANCH   5  29
HETATM   29  O2  UNL     1      14.435   3.898 -35.978  1.00  0.00    -0.345 OA
ATOM     30  H2  UNL     1      14.616   4.280 -35.127  1.00  0.00     0.219 HD
ENDBRANCH   5  29
TORSDOF 6
ENDMDL