MODEL 5
REMARK VINA RESULT: -8.541004460      1.376      1.695
REMARK  7 active torsions:
REMARK  status: ('A' for Active; 'I' for Inactive)
REMARK    1  A    between atoms: C2_2  and  C4_4
REMARK    2  A    between atoms: C10_10  and  O1_11
REMARK    3  A    between atoms: O1_11  and  C11_12
REMARK    4  A    between atoms: C11_12  and  C12_13
REMARK    5  A    between atoms: C20_26  and  C21_27
REMARK    6  A    between atoms: C22_28  and  C23_29
REMARK    7  A    between atoms: C23_29  and  O3_30
ROOT
HETATM    1  C12 UNL     1      14.718  10.354  -0.259  1.00  0.00    -0.019 A
HETATM    2  C13 UNL     1      13.486  10.681  -0.777  1.00  0.00     0.013 A
HETATM    3  C14 UNL     1      13.304  10.665  -2.143  1.00  0.00     0.041 A
HETATM    4  C15 UNL     1      14.368  10.319  -2.935  1.00  0.00     0.113 A
HETATM    5  C16 UNL     1      14.279  10.273  -4.377  1.00  0.00     0.117 C
HETATM    6  N1  UNL     1      14.220  10.251  -5.531  1.00  0.00    -0.190 NA
HETATM    7  N2  UNL     1      15.563  10.003  -2.406  1.00  0.00    -0.357 N
ATOM      8  H2  UNL     1      16.332   9.751  -3.027  1.00  0.00     0.166 HD
HETATM    9  C17 UNL     1      15.765  10.012  -1.085  1.00  0.00     0.098 A
ENDROOT
BRANCH   1  10
HETATM   10  C11 UNL     1      14.970  10.354   1.198  1.00  0.00     0.208 C
BRANCH  10  11
HETATM   11  O1  UNL     1      16.255   9.974   1.529  1.00  0.00    -0.377 OA
BRANCH  11  12
HETATM   12  C10 UNL     1      16.457  10.303   2.868  1.00  0.00     0.184 C
HETATM   13  C9  UNL     1      17.979  10.321   3.093  1.00  0.00     0.257 C
HETATM   14  C8  UNL     1      18.012  10.464   4.612  1.00  0.00     0.079 C
HETATM   15  N3  UNL     1      18.633   9.070   2.909  1.00  0.00     0.102 N
HETATM   16  C7  UNL     1      17.698   9.046   4.905  1.00  0.00     0.098 C
HETATM   17  C6  UNL     1      17.269   8.835   6.229  1.00  0.00     0.041 C
HETATM   18  O2  UNL     1      16.749   8.408   4.077  1.00  0.00    -0.369 OA
HETATM   19  C20 UNL     1      18.938   8.494   4.253  1.00  0.00     0.280 C
HETATM   20  C5  UNL     1      15.868   9.459   6.337  1.00  0.00     0.010 C
HETATM   21  C4  UNL     1      15.216   9.822   5.059  1.00  0.00     0.021 C
HETATM   22  C18 UNL     1      15.780   9.327   3.801  1.00  0.00     0.158 C
HETATM   23  C19 UNL     1      19.872   9.289   2.206  1.00  0.00     0.311 C
BRANCH  21  24
HETATM   24  C2  UNL     1      13.758   9.333   5.151  1.00  0.00    -0.016 C
HETATM   25  C1  UNL     1      13.614   8.383   6.319  1.00  0.00     0.010 C
HETATM   26  C3  UNL     1      13.291   8.673   3.913  1.00  0.00     0.010 C
ENDBRANCH  21  24
BRANCH  19  27
HETATM   27  C21 UNL     1      18.933   7.033   4.189  1.00  0.00     0.010 C
HETATM   28  C22 UNL     1      19.976   6.297   4.491  1.00  0.00    -0.003 C
BRANCH  28  29
HETATM   29  C23 UNL     1      21.289   6.805   4.930  1.00  0.00     0.191 C
BRANCH  29  30
HETATM   30  O3  UNL     1      22.248   5.771   4.906  1.00  0.00    -0.397 OA
ATOM     31  H3  UNL     1      22.632   5.695   4.040  1.00  0.00     0.209 HD
ENDBRANCH  29  30
ENDBRANCH  28  29
ENDBRANCH  19  27
ENDBRANCH  11  12
ENDBRANCH  10  11
ENDBRANCH   1  10
TORSDOF 7
ENDMDL