MODEL 3
REMARK VINA RESULT: -7.318280944      2.454      5.782
REMARK  6 active torsions:
REMARK  status: ('A' for Active; 'I' for Inactive)
REMARK    1  A    between atoms: C2_2  and  O1_3
REMARK    2  A    between atoms: C2_2  and  C3_5
REMARK    3  A    between atoms: C11_14  and  C12_15
REMARK    4  A    between atoms: C16_23  and  N3_24
REMARK    5  A    between atoms: N3_24  and  C17_26
REMARK    6  A    between atoms: C17_26  and  C18_27
ROOT
HETATM    1  C3  UNL     1      17.153  10.361   2.016  1.00  0.00     0.117 C
HETATM    2  C4  UNL     1      18.054  10.795   3.204  1.00  0.00     0.023 C
HETATM    3  C5  UNL     1      17.901  12.277   3.432  1.00  0.00     0.090 C
HETATM    4  C6  UNL     1      16.452  12.751   3.554  1.00  0.00     0.151 C
HETATM    5  O2  UNL     1      16.160  13.869   3.207  1.00  0.00    -0.293 OA
HETATM    6  C7  UNL     1      15.373  11.874   4.095  1.00  0.00     0.075 C
HETATM    7  C8  UNL     1      15.252  10.575   3.705  1.00  0.00     0.019 C
HETATM    8  C9  UNL     1      14.080  10.082   4.523  1.00  0.00     0.080 A
HETATM    9  C10 UNL     1      13.553   8.782   4.690  1.00  0.00     0.059 A
HETATM   10  C11 UNL     1      14.805   9.157   5.484  1.00  0.00     0.117 A
HETATM   11  O3  UNL     1      15.928   8.586   5.254  1.00  0.00    -0.341 OA
HETATM   12  C16 UNL     1      17.025   8.692   4.513  1.00  0.00     0.148 C
HETATM   13  C21 UNL     1      17.750  10.025   4.460  1.00  0.00     0.069 C
HETATM   14  C22 UNL     1      16.375   8.379   3.079  1.00  0.00     0.184 C
HETATM   15  N4  UNL     1      16.131   9.818   2.873  1.00  0.00    -0.371 N
ENDROOT
BRANCH  10  16
HETATM   16  C12 UNL     1      14.582   9.493   6.932  1.00  0.00     0.063 A
HETATM   17  C13 UNL     1      13.818  10.496   7.460  1.00  0.00     0.117 A
HETATM   18  N1  UNL     1      13.940  10.411   8.784  1.00  0.00    -0.360 N
HETATM   19  C14 UNL     1      14.751   9.393   9.131  1.00  0.00     0.182 A
ATOM     20  H1  UNL     1      13.480  11.034   9.447  1.00  0.00     0.166 HD
HETATM   21  N2  UNL     1      15.140   8.835   7.975  1.00  0.00    -0.347 N
HETATM   22  C15 UNL     1      16.031   7.699   7.941  1.00  0.00     0.157 C
ENDBRANCH  10  16
BRANCH  12  23
HETATM   23  N3  UNL     1      17.951   7.627   4.687  1.00  0.00    -0.390 N
ATOM     24  H3  UNL     1      17.739   6.670   4.406  1.00  0.00     0.156 HD
BRANCH  23  25
HETATM   25  C17 UNL     1      19.198   7.990   5.283  1.00  0.00     0.121 C
BRANCH  25  26
HETATM   26  C18 UNL     1      20.310   7.433   4.428  1.00  0.00     0.003 A
HETATM   27  C19 UNL     1      20.644   8.118   3.147  1.00  0.00     0.007 A
HETATM   28  C20 UNL     1      21.623   8.159   4.275  1.00  0.00     0.007 A
ENDBRANCH  25  26
ENDBRANCH  23  25
ENDBRANCH  12  23
BRANCH   1  29
HETATM   29  C2  UNL     1      16.858  11.271   0.960  1.00  0.00     0.137 C
HETATM   30  C1  UNL     1      15.779  10.573   0.062  1.00  0.00     0.041 C
BRANCH  29  31
HETATM   31  O1  UNL     1      17.958  11.278   0.061  1.00  0.00    -0.394 OA
ATOM     32  H1  UNL     1      18.298  12.150   0.226  1.00  0.00     0.210 HD
ENDBRANCH  29  31
ENDBRANCH   1  29
TORSDOF 6
ENDMDL