MODEL 1
REMARK VINA RESULT: -9.082957121      0.000      0.000
REMARK  7 active torsions:
REMARK  status: ('A' for Active; 'I' for Inactive)
REMARK    1  A    between atoms: N1_2  and  C2_3
REMARK    2  A    between atoms: N1_2  and  C17_27
REMARK    3  A    between atoms: C9_13  and  N4_14
REMARK    4  A    between atoms: N4_14  and  C10_16
REMARK    5  A    between atoms: C10_16  and  C11_17
REMARK    6  A    between atoms: C11_17  and  C12_18
REMARK    7  A    between atoms: C12_18  and  N5_19
ROOT
HETATM    1  C2  UNL     1      15.216   9.983   4.164  1.00  0.00     0.106 A
HETATM    2  C3  UNL     1      15.944  11.153   4.211  1.00  0.00     0.079 A
HETATM    3  C4  UNL     1      16.686  11.577   3.108  1.00  0.00     0.051 A
HETATM    4  N2  UNL     1      17.474  12.640   2.851  1.00  0.00    -0.363 N
ATOM      5  H2  UNL     1      17.671  13.392   3.511  1.00  0.00     0.165 HD
HETATM    6  C5  UNL     1      17.967  12.568   1.592  1.00  0.00     0.112 A
HETATM    7  C6  UNL     1      17.460  11.408   1.045  1.00  0.00     0.076 A
HETATM    8  C7  UNL     1      17.756  10.975  -0.293  1.00  0.00     0.102 C
HETATM    9  N3  UNL     1      17.991  10.609  -1.383  1.00  0.00    -0.191 NA
HETATM   10  C8  UNL     1      16.655  10.766   1.968  1.00  0.00     0.057 A
HETATM   11  C9  UNL     1      15.920   9.599   1.944  1.00  0.00     0.116 A
HETATM   12  N6  UNL     1      15.228   9.250   3.042  1.00  0.00    -0.328 N
ATOM     13  H6  UNL     1      14.686   8.386   3.020  1.00  0.00     0.169 HD
ENDROOT
BRANCH  11  14
HETATM   14  N4  UNL     1      15.942   8.905   0.857  1.00  0.00    -0.375 N
ATOM     15  H4  UNL     1      16.799   8.404   0.623  1.00  0.00     0.161 HD
BRANCH  14  16
HETATM   16  C10 UNL     1      14.828   8.797  -0.043  1.00  0.00     0.123 C
BRANCH  16  17
HETATM   17  C11 UNL     1      15.286   8.089  -1.302  1.00  0.00     0.050 C
BRANCH  17  18
HETATM   18  C12 UNL     1      14.452   8.480  -2.502  1.00  0.00     0.274 C
BRANCH  18  19
HETATM   19  N5  UNL     1      14.425   9.917  -2.690  1.00  0.00     0.092 N
HETATM   20  C13 UNL     1      13.089  10.293  -3.115  1.00  0.00     0.298 C
HETATM   21  C14 UNL     1      12.830   9.859  -4.548  1.00  0.00     0.198 C
HETATM   22  O1  UNL     1      13.769  10.349  -5.433  1.00  0.00    -0.388 OA
HETATM   23  C15 UNL     1      15.018   9.885  -5.080  1.00  0.00     0.198 C
HETATM   24  C16 UNL     1      15.361  10.357  -3.690  1.00  0.00     0.298 C
ENDBRANCH  18  19
ENDBRANCH  17  18
ENDBRANCH  16  17
ENDBRANCH  14  16
ENDBRANCH  11  14
BRANCH   1  25
HETATM   25  N1  UNL     1      14.485   9.612   5.323  1.00  0.00    -0.367 N
HETATM   26  C1  UNL     1      13.284   8.830   5.114  1.00  0.00     0.151 C
BRANCH  25  27
HETATM   27  C17 UNL     1      14.964  10.025   6.624  1.00  0.00     0.085 C
HETATM   28  C18 UNL     1      15.924   9.044   7.224  1.00  0.00     0.025 C
HETATM   29  C19 UNL     1      15.382   8.103   8.226  1.00  0.00     0.002 C
HETATM   30  C20 UNL     1      14.186   8.550   8.982  1.00  0.00     0.000 C
HETATM   31  C21 UNL     1      13.179   9.317   8.192  1.00  0.00     0.002 C
HETATM   32  C22 UNL     1      13.855  10.468   7.529  1.00  0.00     0.025 C
ENDBRANCH  25  27
ENDBRANCH   1  25
TORSDOF 7
ENDMDL