MODEL 3
REMARK VINA RESULT: -9.550624478      1.722      2.447
REMARK  6 active torsions:
REMARK  status: ('A' for Active; 'I' for Inactive)
REMARK    1  A    between atoms: C2_2  and  N1_3
REMARK    2  A    between atoms: N1_3  and  C3_5
REMARK    3  A    between atoms: N2_8  and  C6_9
REMARK    4  A    between atoms: C6_9  and  C7_10
REMARK    5  A    between atoms: C7_10  and  N3_11
REMARK    6  A    between atoms: C10_17  and  C11_18
ROOT
HETATM    1  N3  UNL     1      16.025  10.764   2.044  1.00  0.00    -0.282 N
HETATM    2  C8  UNL     1      16.876  10.995   3.038  1.00  0.00     0.328 A
HETATM    3  O1  UNL     1      18.029  11.517   3.043  1.00  0.00    -0.246 OA
HETATM    4  N4  UNL     1      16.328  10.563   4.215  1.00  0.00    -0.303 N
ATOM      5  H4  UNL     1      16.752  10.609   5.141  1.00  0.00     0.171 HD
HETATM    6  C9  UNL     1      15.125  10.068   3.906  1.00  0.00     0.104 A
HETATM    7  C10 UNL     1      14.129   9.500   4.712  1.00  0.00     0.050 A
HETATM    8  N5  UNL     1      13.020   9.109   4.059  1.00  0.00    -0.353 N
ATOM      9  H5  UNL     1      12.277   8.692   4.620  1.00  0.00     0.166 HD
HETATM   10  C20 UNL     1      12.798   9.213   2.746  1.00  0.00     0.182 A
HETATM   11  N6  UNL     1      13.754   9.756   1.976  1.00  0.00    -0.336 N
ATOM     12  H6  UNL     1      13.619   9.851   0.969  1.00  0.00     0.168 HD
HETATM   13  C21 UNL     1      14.890  10.172   2.556  1.00  0.00     0.141 A
ENDROOT
BRANCH   1  14
HETATM   14  C7  UNL     1      16.176  11.046   0.629  1.00  0.00     0.166 C
BRANCH  14  15
HETATM   15  C6  UNL     1      17.091  10.066  -0.011  1.00  0.00     0.292 C
BRANCH  15  16
HETATM   16  N2  UNL     1      16.617   9.431  -1.209  1.00  0.00     0.090 N
HETATM   17  C5  UNL     1      16.311  10.415  -2.245  1.00  0.00     0.274 C
HETATM   18  C4  UNL     1      15.701   9.705  -3.419  1.00  0.00     0.055 C
HETATM   19  C3  UNL     1      14.304   9.312  -3.072  1.00  0.00     0.079 C
HETATM   20  C23 UNL     1      14.182   9.219  -1.557  1.00  0.00     0.055 C
HETATM   21  C22 UNL     1      15.437   8.678  -0.929  1.00  0.00     0.274 C
BRANCH  19  22
HETATM   22  N1  UNL     1      13.287  10.235  -3.499  1.00  0.00    -0.417 N
ATOM     23  H1  UNL     1      12.999  11.032  -2.932  1.00  0.00     0.153 HD
BRANCH  22  24
HETATM   24  C2  UNL     1      12.707   9.952  -4.782  1.00  0.00     0.110 C
HETATM   25  C1  UNL     1      11.250   9.544  -4.685  1.00  0.00     0.026 C
ENDBRANCH  22  24
ENDBRANCH  19  22
ENDBRANCH  15  16
ENDBRANCH  14  15
ENDBRANCH   1  14
BRANCH   7  26
HETATM   26  C11 UNL     1      14.245   9.312   6.154  1.00  0.00     0.009 C
HETATM   27  C12 UNL     1      15.610   8.665   6.431  1.00  0.00     0.021 C
HETATM   28  C13 UNL     1      15.307   8.011   7.779  1.00  0.00    -0.013 C
HETATM   29  C14 UNL     1      15.082   9.084   8.794  1.00  0.00     0.009 C
HETATM   30  C18 UNL     1      14.019   7.272   7.401  1.00  0.00     0.010 C
HETATM   31  C15 UNL     1      14.022  10.053   8.351  1.00  0.00    -0.013 C
HETATM   32  C16 UNL     1      12.775   9.207   8.088  1.00  0.00     0.010 C
HETATM   33  C19 UNL     1      14.285  10.588   6.953  1.00  0.00     0.021 C
HETATM   34  C17 UNL     1      13.231   8.461   6.821  1.00  0.00     0.001 C
ENDBRANCH   7  26
TORSDOF 6
ENDMDL