MODEL 3
REMARK VINA RESULT: -8.255499846      2.420      9.040
REMARK  8 active torsions:
REMARK  status: ('A' for Active; 'I' for Inactive)
REMARK    1  A    between atoms: C2_2  and  N1_3
REMARK    2  A    between atoms: C2_2  and  C7_13
REMARK       I    between atoms: N1_3  and  C3_5
REMARK    3  A    between atoms: C3_5  and  C4_7
REMARK    4  A    between atoms: C7_13  and  O3_15
REMARK    5  A    between atoms: O3_15  and  C8_16
REMARK    6  A    between atoms: C8_16  and  C9_17
REMARK    7  A    between atoms: C9_17  and  N3_19
REMARK    8  A    between atoms: N3_19  and  C10_21
ROOT
HETATM    1  O3  UNL     1      16.182  11.870   2.612  1.00  0.00    -0.313 OA
ENDROOT
BRANCH   1   2
HETATM    2  C7  UNL     1      17.405  12.241   2.071  1.00  0.00     0.281 C
HETATM    3  O2  UNL     1      17.906  13.345   2.404  1.00  0.00    -0.263 OA
BRANCH   2   4
HETATM    4  C2  UNL     1      18.046  11.297   1.121  1.00  0.00     0.180 C
HETATM    5  C1  UNL     1      18.653  10.148   1.894  1.00  0.00     0.043 C
BRANCH   4   6
HETATM    6  N1  UNL     1      17.065  10.880   0.176  1.00  0.00    -0.342 N
HETATM    7  C3  UNL     1      17.406  10.358  -1.096  1.00  0.00     0.269 C
HETATM    8  O1  UNL     1      18.616  10.262  -1.391  1.00  0.00    -0.266 OA
ATOM      9  H1  UNL     1      16.079  10.962   0.425  1.00  0.00     0.163 HD
BRANCH   7  10
HETATM   10  C4  UNL     1      16.350   9.934  -2.053  1.00  0.00     0.107 A
HETATM   11  C5  UNL     1      15.265   9.211  -1.612  1.00  0.00     0.086 A
HETATM   12  S1  UNL     1      14.383   8.988  -3.058  1.00  0.00    -0.094 SA
HETATM   13  C6  UNL     1      15.427   9.814  -4.122  1.00  0.00     0.138 A
HETATM   14  N2  UNL     1      16.393  10.216  -3.320  1.00  0.00    -0.355 N
ATOM     15  H2  UNL     1      17.176  10.751  -3.695  1.00  0.00     0.166 HD
ENDBRANCH   7  10
ENDBRANCH   4   6
ENDBRANCH   2   4
ENDBRANCH   1   2
BRANCH   1  16
HETATM   16  C8  UNL     1      16.084  11.517   3.978  1.00  0.00     0.247 C
BRANCH  16  17
HETATM   17  C9  UNL     1      15.079  10.420   4.062  1.00  0.00     0.098 C
HETATM   18  S2  UNL     1      15.189   9.205   2.968  1.00  0.00    -0.063 SA
BRANCH  17  19
HETATM   19  N3  UNL     1      14.123  10.494   5.083  1.00  0.00    -0.373 N
ATOM     20  H3  UNL     1      13.277  11.034   4.897  1.00  0.00     0.161 HD
BRANCH  19  21
HETATM   21  C10 UNL     1      14.240   9.860   6.390  1.00  0.00     0.032 C
HETATM   22  C11 UNL     1      13.818  10.789   7.394  1.00  0.00     0.035 C
HETATM   23  C12 UNL     1      13.715  10.595   8.825  1.00  0.00    -0.012 C
HETATM   24  C13 UNL     1      14.906  10.123   9.594  1.00  0.00     0.009 C
HETATM   25  C15 UNL     1      12.985   9.450   9.400  1.00  0.00     0.009 C
HETATM   26  C14 UNL     1      14.305   8.769   9.529  1.00  0.00    -0.013 C
HETATM   27  C16 UNL     1      14.732   7.829   8.535  1.00  0.00     0.009 C
HETATM   28  C17 UNL     1      14.789   8.008   7.104  1.00  0.00    -0.009 C
HETATM   29  C18 UNL     1      13.620   8.493   6.353  1.00  0.00     0.035 C
HETATM   30  C19 UNL     1      15.545   9.151   6.530  1.00  0.00     0.035 C
ENDBRANCH  19  21
ENDBRANCH  17  19
ENDBRANCH  16  17
ENDBRANCH   1  16
TORSDOF 8
ENDMDL