MODEL 2
REMARK VINA RESULT: -7.667948398      3.189      7.674
REMARK  9 active torsions:
REMARK  status: ('A' for Active; 'I' for Inactive)
REMARK    1  A    between atoms: C2_2  and  C3_3
REMARK    2  A    between atoms: C3_3  and  N2_6
REMARK    3  A    between atoms: N2_6  and  C5_7
REMARK    4  A    between atoms: N2_6  and  C12_19
REMARK    5  A    between atoms: C5_7  and  C6_8
REMARK    6  A    between atoms: C12_19  and  N5_21
REMARK    7  A    between atoms: N5_21  and  C13_23
REMARK    8  A    between atoms: C13_23  and  C14_24
REMARK    9  A    between atoms: C14_24  and  N6_25
ROOT
HETATM    1  C3  UNL     1      16.815  11.060   1.908  1.00  0.00     0.198 C
HETATM    2  C4  UNL     1      16.567  12.097   2.839  1.00  0.00     0.085 C
HETATM    3  N1  UNL     1      16.360  12.974   3.573  1.00  0.00    -0.195 NA
ENDROOT
BRANCH   1   4
HETATM    4  C2  UNL     1      18.316  10.676   1.941  1.00  0.00     0.036 C
HETATM    5  C1  UNL     1      19.155  11.775   1.335  1.00  0.00     0.008 C
ENDBRANCH   1   4
BRANCH   1   6
HETATM    6  N2  UNL     1      15.994   9.905   1.845  1.00  0.00    -0.316 N
BRANCH   6   7
HETATM    7  C5  UNL     1      15.925   9.059   2.982  1.00  0.00     0.110 C
BRANCH   7   8
HETATM    8  C6  UNL     1      15.190   9.240   4.177  1.00  0.00     0.024 A
HETATM    9  C7  UNL     1      15.975   9.421   5.346  1.00  0.00     0.021 A
HETATM   10  C8  UNL     1      17.428   9.344   5.218  1.00  0.00     0.069 C
HETATM   11  N3  UNL     1      15.435   9.642   6.548  1.00  0.00    -0.336 N
HETATM   12  C9  UNL     1      14.111   9.702   6.701  1.00  0.00     0.176 A
ATOM     13  H3  UNL     1      16.042   9.766   7.358  1.00  0.00     0.168 HD
HETATM   14  S1  UNL     1      13.472   9.976   8.186  1.00  0.00    -0.041 SA
HETATM   15  N4  UNL     1      13.355   9.539   5.640  1.00  0.00    -0.336 N
HETATM   16  C10 UNL     1      13.849   9.309   4.373  1.00  0.00     0.021 A
ATOM     17  H4  UNL     1      12.343   9.587   5.759  1.00  0.00     0.168 HD
HETATM   18  C11 UNL     1      12.836   9.176   3.290  1.00  0.00     0.069 C
ENDBRANCH   7   8
ENDBRANCH   6   7
BRANCH   6  19
HETATM   19  C12 UNL     1      15.116   9.618   0.791  1.00  0.00     0.175 C
HETATM   20  S2  UNL     1      14.743   8.017   0.446  1.00  0.00    -0.041 SA
BRANCH  19  21
HETATM   21  N5  UNL     1      14.478  10.548  -0.002  1.00  0.00    -0.365 N
ATOM     22  H5  UNL     1      14.874  11.487  -0.062  1.00  0.00     0.161 HD
BRANCH  21  23
HETATM   23  C13 UNL     1      13.276  10.259  -0.756  1.00  0.00     0.152 C
BRANCH  23  24
HETATM   24  C14 UNL     1      13.334  10.761  -2.162  1.00  0.00     0.292 C
BRANCH  24  25
HETATM   25  N6  UNL     1      13.449   9.650  -3.079  1.00  0.00     0.094 N
HETATM   26  C15 UNL     1      13.165  10.101  -4.409  1.00  0.00     0.298 C
HETATM   27  C16 UNL     1      14.432  10.537  -5.111  1.00  0.00     0.198 C
HETATM   28  O1  UNL     1      15.458  10.848  -4.259  1.00  0.00    -0.388 OA
HETATM   29  C17 UNL     1      15.817   9.877  -3.360  1.00  0.00     0.198 C
HETATM   30  C18 UNL     1      14.687   8.955  -3.046  1.00  0.00     0.298 C
ENDBRANCH  24  25
ENDBRANCH  23  24
ENDBRANCH  21  23
ENDBRANCH  19  21
ENDBRANCH   6  19
ENDBRANCH   1   6
TORSDOF 9
ENDMDL