MODEL 2
REMARK VINA RESULT: -9.346926372      1.797      7.308
REMARK  6 active torsions:
REMARK  status: ('A' for Active; 'I' for Inactive)
REMARK    1  A    between atoms: N3_10  and  C6_11
REMARK    2  A    between atoms: C6_11  and  C7_12
REMARK    3  A    between atoms: C6_11  and  C8_15
REMARK       I    between atoms: C8_15  and  N4_17
REMARK    4  A    between atoms: N4_17  and  C9_19
REMARK    5  A    between atoms: C9_19  and  C11_22
REMARK    6  A    between atoms: C11_22  and  C12_23
ROOT
HETATM    1  C9  UNL     1      17.058   9.202   5.560  1.00  0.00     0.192 C
HETATM    2  C10 UNL     1      17.962   8.233   4.895  1.00  0.00     0.084 C
HETATM    3  N5  UNL     1      18.678   7.484   4.344  1.00  0.00    -0.195 NA
ENDROOT
BRANCH   1   4
HETATM    4  N4  UNL     1      16.460   9.959   4.441  1.00  0.00    -0.342 N
HETATM    5  C8  UNL     1      17.205  10.983   3.809  1.00  0.00     0.254 C
HETATM    6  O3  UNL     1      18.364  11.229   4.216  1.00  0.00    -0.271 OA
ATOM      7  H4  UNL     1      15.515   9.743   4.125  1.00  0.00     0.163 HD
BRANCH   5   8
HETATM    8  C6  UNL     1      16.643  11.776   2.673  1.00  0.00     0.301 C
BRANCH   8   9
HETATM    9  N3  UNL     1      17.227  11.331   1.407  1.00  0.00    -0.256 N
HETATM   10  N2  UNL     1      18.478  11.471   1.059  1.00  0.00    -0.239 N
HETATM   11  N1  UNL     1      18.645  10.959  -0.131  1.00  0.00    -0.288 N
ATOM     12  H2  UNL     1      19.206  11.908   1.625  1.00  0.00     0.208 HD
HETATM   13  C5  UNL     1      17.483  10.470  -0.584  1.00  0.00     0.051 A
ATOM     14  H1  UNL     1      19.529  10.936  -0.640  1.00  0.00     0.188 HD
HETATM   15  C4  UNL     1      17.084   9.783  -1.864  1.00  0.00     0.061 C
HETATM   16  C20 UNL     1      16.572  10.714   0.415  1.00  0.00     0.056 A
HETATM   17  C3  UNL     1      15.681  10.275  -2.163  1.00  0.00     0.010 C
HETATM   18  C2  UNL     1      14.715   9.944  -1.075  1.00  0.00    -0.012 C
HETATM   19  C1  UNL     1      13.418  10.701  -1.390  1.00  0.00     0.010 C
HETATM   20  C21 UNL     1      15.130  10.313   0.301  1.00  0.00     0.065 C
ENDBRANCH   8   9
BRANCH   8  21
HETATM   21  C7  UNL     1      16.869  13.205   2.892  1.00  0.00     0.208 C
HETATM   22  O1  UNL     1      16.044  13.865   3.577  1.00  0.00    -0.646 OA
HETATM   23  O2  UNL     1      17.963  13.900   2.382  1.00  0.00    -0.646 OA
ENDBRANCH   8  21
ENDBRANCH   5   8
ENDBRANCH   1   4
BRANCH   1  24
HETATM   24  C11 UNL     1      15.989   8.533   6.356  1.00  0.00     0.044 C
BRANCH  24  25
HETATM   25  C12 UNL     1      15.541   9.209   7.597  1.00  0.00    -0.011 C
HETATM   26  C13 UNL     1      15.082   8.357   8.718  1.00  0.00     0.010 C
HETATM   27  C14 UNL     1      14.151   9.264   9.497  1.00  0.00    -0.010 C
HETATM   28  C15 UNL     1      14.853  10.406  10.159  1.00  0.00     0.005 C
HETATM   29  C18 UNL     1      13.362   9.934   8.413  1.00  0.00    -0.010 C
HETATM   30  C16 UNL     1      13.708  11.415  10.309  1.00  0.00     0.001 C
HETATM   31  C17 UNL     1      12.988  11.273   8.993  1.00  0.00     0.005 C
HETATM   32  C19 UNL     1      14.296  10.048   7.256  1.00  0.00     0.010 C
ENDBRANCH  24  25
ENDBRANCH   1  24
TORSDOF 6
ENDMDL