MODEL 3
REMARK VINA RESULT: -7.737516899      1.468      1.773
REMARK  8 active torsions:
REMARK  status: ('A' for Active; 'I' for Inactive)
REMARK    1  A    between atoms: C2_2  and  C3_3
REMARK    2  A    between atoms: C3_3  and  C4_4
REMARK    3  A    between atoms: C4_4  and  O1_5
REMARK    4  A    between atoms: O1_5  and  C5_6
REMARK    5  A    between atoms: C11_13  and  C12_14
REMARK    6  A    between atoms: C12_14  and  O3_15
REMARK    7  A    between atoms: C15_19  and  O5_21
REMARK    8  A    between atoms: C22_28  and  O6_29
ROOT
HETATM    1  C5  UNL     1      22.114   8.614   2.458  1.00  0.00     0.128 C
HETATM    2  C6  UNL     1      22.409   8.818   3.918  1.00  0.00     0.059 C
HETATM    3  C7  UNL     1      21.527   9.810   4.559  1.00  0.00    -0.018 C
HETATM    4  C8  UNL     1      20.243   9.784   4.272  1.00  0.00    -0.038 C
HETATM    5  C9  UNL     1      18.857  10.260   4.379  1.00  0.00     0.098 A
HETATM    6  C10 UNL     1      18.076  10.686   3.204  1.00  0.00     0.185 A
HETATM    7  O2  UNL     1      18.540  11.553   2.251  1.00  0.00    -0.343 OA
HETATM    8  C11 UNL     1      17.429  11.655   1.366  1.00  0.00     0.181 C
HETATM    9  C14 UNL     1      16.290  11.475   2.202  1.00  0.00     0.190 C
HETATM   10  O4  UNL     1      16.827  11.128   3.468  1.00  0.00    -0.342 OA
HETATM   11  C15 UNL     1      15.186  10.548   1.957  1.00  0.00     0.086 C
HETATM   12  C16 UNL     1      14.153  10.829   3.075  1.00  0.00     0.049 C
HETATM   13  C17 UNL     1      15.470   9.083   2.060  1.00  0.00     0.018 C
HETATM   14  C18 UNL     1      14.135   8.399   1.698  1.00  0.00     0.013 C
HETATM   15  C19 UNL     1      15.916   8.615   3.401  1.00  0.00     0.008 C
HETATM   16  C20 UNL     1      17.344   8.296   3.547  1.00  0.00     0.020 C
HETATM   17  C21 UNL     1      18.389   9.283   3.249  1.00  0.00     0.065 A
HETATM   18  C22 UNL     1      19.771   8.753   3.330  1.00  0.00     0.098 C
HETATM   19  C23 UNL     1      20.649   8.786   2.121  1.00  0.00     0.076 C
ENDROOT
BRANCH   1  20
HETATM   20  O1  UNL     1      22.517   7.390   1.993  1.00  0.00    -0.385 OA
BRANCH  20  21
HETATM   21  C4  UNL     1      23.076   6.541   2.894  1.00  0.00     0.168 C
BRANCH  21  22
HETATM   22  C3  UNL     1      22.665   5.095   2.755  1.00  0.00     0.026 C
BRANCH  22  23
HETATM   23  C2  UNL     1      22.161   4.656   4.126  1.00  0.00    -0.002 C
HETATM   24  C1  UNL     1      21.138   3.562   4.015  1.00  0.00     0.005 C
ENDBRANCH  22  23
ENDBRANCH  21  22
ENDBRANCH  20  21
ENDBRANCH   1  20
BRANCH  18  25
HETATM   25  O6  UNL     1      19.885   7.482   3.940  1.00  0.00    -0.384 OA
ATOM     26  H6  UNL     1      19.194   6.918   3.615  1.00  0.00     0.211 HD
ENDBRANCH  18  25
BRANCH   8  27
HETATM   27  C12 UNL     1      17.753  10.801   0.210  1.00  0.00     0.201 C
BRANCH  27  28
HETATM   28  O3  UNL     1      16.902  10.843  -0.865  1.00  0.00    -0.393 OA
HETATM   29  C13 UNL     1      17.129   9.731  -1.661  1.00  0.00     0.201 C
ENDBRANCH  27  28
ENDBRANCH   8  27
BRANCH  11  30
HETATM   30  O5  UNL     1      14.448  10.779   0.797  1.00  0.00    -0.387 OA
ATOM     31  H5  UNL     1      13.503  10.761   0.898  1.00  0.00     0.210 HD
ENDBRANCH  11  30
TORSDOF 8
ENDMDL