MODEL 5
REMARK VINA RESULT: -8.160695860      3.074      6.522
REMARK  7 active torsions:
REMARK  status: ('A' for Active; 'I' for Inactive)
REMARK    1  A    between atoms: N1_4  and  C4_5
REMARK    2  A    between atoms: C9_10  and  N2_11
REMARK    3  A    between atoms: N2_11  and  C10_13
REMARK    4  A    between atoms: C13_16  and  C14_17
REMARK    5  A    between atoms: C14_17  and  C15_18
REMARK    6  A    between atoms: C15_18  and  N3_19
REMARK    7  A    between atoms: N3_19  and  C16_22
ROOT
HETATM    1  C10 UNL     1      15.000   9.177   1.128  1.00  0.00     0.237 C
HETATM    2  C11 UNL     1      14.299  10.380   0.577  1.00  0.00     0.055 C
HETATM    3  C12 UNL     1      13.571  10.045  -0.714  1.00  0.00     0.011 C
HETATM    4  C13 UNL     1      14.462   9.246  -1.634  1.00  0.00     0.011 C
HETATM    5  C21 UNL     1      15.032   8.096  -0.841  1.00  0.00     0.175 C
HETATM    6  O2  UNL     1      14.480   8.049   0.453  1.00  0.00    -0.366 OA
ENDROOT
BRANCH   1   7
HETATM    7  N2  UNL     1      14.756   9.020   2.550  1.00  0.00    -0.199 N
ATOM      8  H2  UNL     1      13.794   9.030   2.889  1.00  0.00     0.180 HD
BRANCH   7   9
HETATM    9  C9  UNL     1      15.706   8.870   3.393  1.00  0.00     0.685 A
HETATM   10  N1  UNL     1      15.484   9.158   4.688  1.00  0.00    -0.188 N
HETATM   11  C3  UNL     1      16.480   9.002   5.584  1.00  0.00     0.121 A
HETATM   12  C2  UNL     1      17.739   8.547   5.197  1.00  0.00     0.023 A
HETATM   13  C1  UNL     1      18.842   8.373   6.179  1.00  0.00     0.056 C
HETATM   14  C22 UNL     1      17.948   8.256   3.864  1.00  0.00     0.266 A
HETATM   15  N4  UNL     1      16.918   8.429   3.009  1.00  0.00    -0.155 N
HETATM   16  O3  UNL     1      19.069   7.843   3.474  1.00  0.00    -0.267 OA
ATOM     17  H4  UNL     1      17.066   8.216   2.022  1.00  0.00     0.187 HD
BRANCH  10  18
HETATM   18  C4  UNL     1      14.207   9.639   5.192  1.00  0.00     0.107 C
HETATM   19  C5  UNL     1      14.348  10.592   6.332  1.00  0.00     0.026 C
HETATM   20  C6  UNL     1      13.710   9.976   7.545  1.00  0.00     0.002 C
HETATM   21  C7  UNL     1      13.199   8.630   7.156  1.00  0.00     0.002 C
HETATM   22  C8  UNL     1      13.359   8.474   5.681  1.00  0.00     0.026 C
ENDBRANCH  10  18
ENDBRANCH   7   9
ENDBRANCH   1   7
BRANCH   4  23
HETATM   23  C14 UNL     1      15.515  10.090  -2.264  1.00  0.00     0.034 C
BRANCH  23  24
HETATM   24  C15 UNL     1      16.906   9.603  -2.045  1.00  0.00     0.233 C
BRANCH  24  25
HETATM   25  N3  UNL     1      17.809  10.643  -1.598  1.00  0.00    -0.071 N
ATOM     26  H32 UNL     1      18.705  10.599  -2.083  1.00  0.00     0.277 HD
ATOM     27  H31 UNL     1      17.507  11.565  -1.913  1.00  0.00     0.277 HD
BRANCH  25  28
HETATM   28  C16 UNL     1      17.979  10.599  -0.158  1.00  0.00     0.190 C
HETATM   29  C17 UNL     1      17.446  11.862   0.455  1.00  0.00     0.059 C
HETATM   30  C18 UNL     1      18.024  12.170   1.798  1.00  0.00     0.169 C
HETATM   31  O1  UNL     1      19.396  12.141   1.842  1.00  0.00    -0.391 OA
HETATM   32  C19 UNL     1      19.989  11.807   0.645  1.00  0.00     0.169 C
HETATM   33  C20 UNL     1      19.469  10.500   0.105  1.00  0.00     0.059 C
ENDBRANCH  25  28
ENDBRANCH  24  25
ENDBRANCH  23  24
ENDBRANCH   4  23
TORSDOF 7
ENDMDL