MODEL 4
REMARK VINA RESULT: -6.776645187      2.297      5.886
REMARK  7 active torsions:
REMARK  status: ('A' for Active; 'I' for Inactive)
REMARK    1  A    between atoms: C2_2  and  C4_4
REMARK    2  A    between atoms: C4_4  and  C5_5
REMARK    3  A    between atoms: C10_11  and  C11_12
REMARK    4  A    between atoms: C11_12  and  C12_13
REMARK    5  A    between atoms: C15_18  and  N1_19
REMARK    6  A    between atoms: C19_28  and  C20_29
REMARK    7  A    between atoms: C20_29  and  C21_30
ROOT
HETATM    1  C12 UNL     1      18.361   9.971   4.298  1.00  0.00     0.071 C
HETATM    2  C13 UNL     1      17.647  11.043   3.572  1.00  0.00     0.202 C
HETATM    3  O2  UNL     1      17.519  12.102   4.287  1.00  0.00    -0.289 OA
HETATM    4  C14 UNL     1      17.048  11.227   2.258  1.00  0.00     0.235 C
HETATM    5  O3  UNL     1      15.928  11.788   2.357  1.00  0.00    -0.286 OA
HETATM    6  C15 UNL     1      17.390  10.942   0.873  1.00  0.00     0.359 C
HETATM    7  C16 UNL     1      18.668  10.303   0.617  1.00  0.00     0.298 C
HETATM    8  O4  UNL     1      18.738   9.950  -0.613  1.00  0.00    -0.262 OA
HETATM    9  O5  UNL     1      19.807   9.967   1.275  1.00  0.00    -0.314 OA
HETATM   10  C17 UNL     1      20.091   9.464   2.594  1.00  0.00     0.132 C
HETATM   11  C18 UNL     1      20.745  10.673   3.291  1.00  0.00     0.040 C
HETATM   12  C19 UNL     1      18.895   8.947   3.286  1.00  0.00     0.027 C
ENDROOT
BRANCH   1  13
HETATM   13  C11 UNL     1      17.499   9.354   5.327  1.00  0.00     0.019 C
BRANCH  13  14
HETATM   14  C10 UNL     1      16.074   9.778   5.382  1.00  0.00     0.013 C
HETATM   15  C5  UNL     1      15.126   8.850   4.610  1.00  0.00     0.061 C
HETATM   16  C6  UNL     1      14.447   8.452   5.875  1.00  0.00     0.139 C
HETATM   17  O1  UNL     1      13.609   7.664   6.208  1.00  0.00    -0.297 OA
HETATM   18  C7  UNL     1      15.276   9.485   6.595  1.00  0.00     0.018 C
HETATM   19  C8  UNL     1      14.391  10.642   7.073  1.00  0.00     0.023 C
HETATM   20  C9  UNL     1      15.947   8.853   7.762  1.00  0.00     0.023 C
BRANCH  15  21
HETATM   21  C4  UNL     1      14.159   9.520   3.694  1.00  0.00     0.016 C
BRANCH  21  22
HETATM   22  C2  UNL     1      13.254   8.548   2.971  1.00  0.00    -0.022 C
HETATM   23  C1  UNL     1      12.126   9.201   2.251  1.00  0.00     0.009 C
HETATM   24  C3  UNL     1      14.132   7.853   1.922  1.00  0.00     0.009 C
ENDBRANCH  21  22
ENDBRANCH  15  21
ENDBRANCH  13  14
ENDBRANCH   1  13
BRANCH  12  25
HETATM   25  C20 UNL     1      18.861   7.586   3.839  1.00  0.00     0.012 C
BRANCH  25  26
HETATM   26  C21 UNL     1      20.061   6.878   4.287  1.00  0.00    -0.022 C
HETATM   27  C22 UNL     1      19.623   5.383   4.501  1.00  0.00     0.009 C
HETATM   28  C23 UNL     1      20.629   7.238   5.636  1.00  0.00     0.009 C
ENDBRANCH  25  26
ENDBRANCH  12  25
BRANCH   6  29
HETATM   29  N1  UNL     1      16.326  10.080   0.322  1.00  0.00    -0.059 N
ATOM     30  H13 UNL     1      15.518  10.001   0.940  1.00  0.00     0.275 HD
ATOM     31  H12 UNL     1      15.846  10.501  -0.473  1.00  0.00     0.275 HD
ATOM     32  H11 UNL     1      16.746   9.178   0.099  1.00  0.00     0.275 HD
ENDBRANCH   6  29
TORSDOF 7
ENDMDL