MODEL 1
REMARK VINA RESULT: -5.809542710      0.000      0.000
REMARK  4 active torsions:
REMARK  status: ('A' for Active; 'I' for Inactive)
REMARK    1  A    between atoms: C5_7  and  N2_8
REMARK    2  A    between atoms: N2_8  and  C6_10
REMARK    3  A    between atoms: C12_17  and  N4_18
REMARK    4  A    between atoms: N4_18  and  C13_20
ROOT
HETATM    1  N1  UNL     1      24.997  41.754  20.052  1.00  0.00    -0.191 NA
HETATM    2  C1  UNL     1      24.474  41.965  21.082  1.00  0.00     0.102 C
HETATM    3  C2  UNL     1      23.804  42.199  22.379  1.00  0.00     0.078 A
HETATM    4  C3  UNL     1      23.085  43.314  22.595  1.00  0.00     0.033 A
HETATM    5  C4  UNL     1      22.476  43.434  23.826  1.00  0.00     0.053 A
HETATM    6  S1  UNL     1      22.933  41.998  24.618  1.00  0.00    -0.083 SA
HETATM    7  C5  UNL     1      23.873  41.282  23.396  1.00  0.00     0.091 A
ENDROOT
BRANCH   7   8
HETATM    8  N2  UNL     1      24.598  40.053  23.430  1.00  0.00    -0.376 N
ATOM      9  H2  UNL     1      25.596  40.027  23.217  1.00  0.00     0.160 HD
BRANCH   8  10
HETATM   10  C6  UNL     1      23.871  38.830  23.779  1.00  0.00     0.115 C
HETATM   11  C7  UNL     1      24.828  37.671  23.909  1.00  0.00     0.300 C
HETATM   12  N3  UNL     1      24.710  36.718  22.815  1.00  0.00     0.113 N
HETATM   13  C8  UNL     1      24.943  37.471  21.616  1.00  0.00     0.275 C
HETATM   14  C12 UNL     1      23.397  36.111  22.786  1.00  0.00     0.318 C
HETATM   15  C9  UNL     1      23.834  38.488  21.353  1.00  0.00     0.037 C
HETATM   16  C10 UNL     1      22.979  38.529  22.596  1.00  0.00     0.015 C
HETATM   17  C11 UNL     1      22.335  37.149  22.842  1.00  0.00     0.064 C
BRANCH  14  18
HETATM   18  N4  UNL     1      23.284  35.201  21.751  1.00  0.00    -0.389 N
ATOM     19  H4  UNL     1      24.022  34.500  21.689  1.00  0.00     0.155 HD
BRANCH  18  20
HETATM   20  C13 UNL     1      22.293  35.125  20.789  1.00  0.00     0.078 C
HETATM   21  C14 UNL     1      21.341  33.987  20.923  1.00  0.00     0.024 C
HETATM   22  C15 UNL     1      20.201  34.087  19.902  1.00  0.00     0.002 C
HETATM   23  C16 UNL     1      20.809  33.914  18.550  1.00  0.00     0.000 C
HETATM   24  C17 UNL     1      22.335  33.996  18.567  1.00  0.00     0.002 C
HETATM   25  C18 UNL     1      22.759  35.212  19.355  1.00  0.00     0.024 C
ENDBRANCH  18  20
ENDBRANCH  14  18
ENDBRANCH   8  10
ENDBRANCH   7   8
TORSDOF 4
ENDMDL