MODEL 2
REMARK VINA RESULT: -5.361822911      0.786      1.319
REMARK  5 active torsions:
REMARK  status: ('A' for Active; 'I' for Inactive)
REMARK    1  A    between atoms: C2_2  and  N1_3
REMARK    2  A    between atoms: N1_3  and  C3_5
REMARK    3  A    between atoms: C3_5  and  N2_7
REMARK    4  A    between atoms: N2_7  and  C4_9
REMARK    5  A    between atoms: C7_12  and  N3_13
ROOT
HETATM    1  C4  UNL     1      24.889  36.983  19.469  1.00  0.00     0.053 A
HETATM    2  C5  UNL     1      24.500  36.620  18.212  1.00  0.00     0.033 A
HETATM    3  C6  UNL     1      23.456  35.705  17.959  1.00  0.00     0.033 A
HETATM    4  C7  UNL     1      22.787  35.144  19.011  1.00  0.00     0.049 A
HETATM    5  C12 UNL     1      23.161  35.494  20.321  1.00  0.00     0.058 A
HETATM    6  S2  UNL     1      22.723  35.149  21.916  1.00  0.00    -0.049 SA
HETATM    7  S3  UNL     1      24.182  36.427  22.260  1.00  0.00    -0.049 SA
HETATM    8  C13 UNL     1      24.166  36.374  20.555  1.00  0.00     0.058 A
ENDROOT
BRANCH   1   9
HETATM    9  N2  UNL     1      25.941  37.855  19.714  1.00  0.00    -0.332 N
ATOM     10  H2  UNL     1      26.839  37.401  19.883  1.00  0.00     0.168 HD
BRANCH   9  11
HETATM   11  C3  UNL     1      25.975  39.232  19.766  1.00  0.00     0.172 C
HETATM   12  S1  UNL     1      24.782  40.176  20.314  1.00  0.00    -0.041 SA
BRANCH  11  13
HETATM   13  N1  UNL     1      27.187  39.909  19.325  1.00  0.00    -0.367 N
ATOM     14  H1  UNL     1      27.234  40.926  19.269  1.00  0.00     0.161 HD
BRANCH  13  15
HETATM   15  C2  UNL     1      28.313  39.089  18.971  1.00  0.00     0.117 C
HETATM   16  C1  UNL     1      29.333  39.958  18.262  1.00  0.00     0.026 C
ENDBRANCH  13  15
ENDBRANCH  11  13
ENDBRANCH   9  11
ENDBRANCH   1   9
BRANCH   4  17
HETATM   17  N3  UNL     1      21.751  34.238  18.740  1.00  0.00    -0.376 N
HETATM   18  C8  UNL     1      20.375  34.600  18.499  1.00  0.00     0.149 C
HETATM   19  C9  UNL     1      19.397  33.681  19.196  1.00  0.00     0.187 C
HETATM   20  O1  UNL     1      19.969  32.534  19.687  1.00  0.00    -0.388 OA
HETATM   21  C10 UNL     1      20.810  31.962  18.710  1.00  0.00     0.187 C
HETATM   22  C11 UNL     1      22.064  32.802  18.692  1.00  0.00     0.149 C
ENDBRANCH   4  17
TORSDOF 5
ENDMDL