MODEL 2
REMARK VINA RESULT: -7.356349919      4.483      7.477
REMARK  4 active torsions:
REMARK  status: ('A' for Active; 'I' for Inactive)
REMARK    1  A    between atoms: C1_4  and  N2_5
REMARK    2  A    between atoms: C1_4  and  C14_24
REMARK    3  A    between atoms: N2_5  and  C2_7
REMARK    4  A    between atoms: N4_16  and  C9_17
ROOT
HETATM    1  C2  UNL     1      24.374  40.278  21.431  1.00  0.00     0.119 C
HETATM    2  C3  UNL     1      24.058  41.501  20.651  1.00  0.00     0.030 C
HETATM    3  C4  UNL     1      25.035  41.865  19.588  1.00  0.00     0.008 C
HETATM    4  C5  UNL     1      26.430  41.365  19.895  1.00  0.00     0.060 C
HETATM    5  C6  UNL     1      26.307  39.873  19.899  1.00  0.00     0.046 A
HETATM    6  C7  UNL     1      25.256  39.365  20.676  1.00  0.00     0.006 A
HETATM    7  C8  UNL     1      25.337  38.009  20.517  1.00  0.00     0.119 A
HETATM    8  N3  UNL     1      26.387  37.726  19.689  1.00  0.00    -0.303 N
ATOM      9  H3  UNL     1      26.679  36.793  19.399  1.00  0.00     0.186 HD
HETATM   10  N4  UNL     1      26.970  38.878  19.318  1.00  0.00    -0.244 N
ENDROOT
BRANCH   1  11
HETATM   11  N2  UNL     1      23.192  39.576  21.893  1.00  0.00    -0.367 N
ATOM     12  H2  UNL     1      22.549  39.171  21.212  1.00  0.00     0.161 HD
BRANCH  11  13
HETATM   13  C1  UNL     1      22.913  39.441  23.302  1.00  0.00     0.105 C
HETATM   14  N1  UNL     1      21.790  39.855  23.766  1.00  0.00    -0.385 N
ATOM     15  H12 UNL     1      21.068  40.283  23.186  1.00  0.00     0.157 HD
ATOM     16  H11 UNL     1      21.592  39.760  24.762  1.00  0.00     0.157 HD
BRANCH  13  17
HETATM   17  C14 UNL     1      23.936  38.833  24.125  1.00  0.00     0.010 A
HETATM   18  C15 UNL     1      24.501  39.515  25.173  1.00  0.00     0.032 A
HETATM   19  C16 UNL     1      25.479  38.901  25.939  1.00  0.00     0.088 A
HETATM   20  N6  UNL     1      25.865  37.652  25.654  1.00  0.00    -0.375 N
HETATM   21  C17 UNL     1      25.345  36.942  24.643  1.00  0.00     0.088 A
ATOM     22  H6  UNL     1      26.586  37.221  26.233  1.00  0.00     0.164 HD
HETATM   23  C18 UNL     1      24.373  37.557  23.885  1.00  0.00     0.032 A
ENDBRANCH  13  17
ENDBRANCH  11  13
ENDBRANCH   1  11
BRANCH  10  24
HETATM   24  C9  UNL     1      28.104  39.026  18.453  1.00  0.00     0.127 A
HETATM   25  C10 UNL     1      28.892  40.158  18.479  1.00  0.00     0.050 A
HETATM   26  C11 UNL     1      29.990  40.293  17.637  1.00  0.00     0.005 A
HETATM   27  C12 UNL     1      30.324  39.289  16.746  1.00  0.00     0.017 A
HETATM   28  C13 UNL     1      29.514  38.171  16.750  1.00  0.00     0.090 A
HETATM   29  N5  UNL     1      28.455  38.066  17.576  1.00  0.00    -0.351 N
ATOM     30  H5  UNL     1      27.890  37.217  17.535  1.00  0.00     0.166 HD
ENDBRANCH  10  24
TORSDOF 4
ENDMDL