MODEL 5
REMARK VINA RESULT: -6.014242885      3.451      5.114
REMARK  4 active torsions:
REMARK  status: ('A' for Active; 'I' for Inactive)
REMARK    1  A    between atoms: C2_2  and  C3_3
REMARK    2  A    between atoms: N2_13  and  C9_14
REMARK    3  A    between atoms: C9_14  and  C10_18
REMARK    4  A    between atoms: C10_18  and  N4_19
ROOT
HETATM    1  C3  UNL     1      24.874  38.035  25.436  1.00  0.00     0.011 C
HETATM    2  C4  UNL     1      25.194  39.494  25.210  1.00  0.00     0.038 C
HETATM    3  C5  UNL     1      23.906  40.152  25.648  1.00  0.00     0.143 C
HETATM    4  C6  UNL     1      23.808  40.029  27.134  1.00  0.00     0.063 C
HETATM    5  N1  UNL     1      24.012  41.034  27.891  1.00  0.00    -0.395 N
ATOM      6  H11 UNL     1      23.946  40.951  28.906  1.00  0.00     0.156 HD
ATOM      7  H12 UNL     1      24.244  41.928  27.459  1.00  0.00     0.156 HD
HETATM    8  S1  UNL     1      23.400  38.459  27.896  1.00  0.00    -0.113 SA
HETATM    9  C7  UNL     1      22.812  37.360  26.574  1.00  0.00     0.106 C
HETATM   10  C8  UNL     1      23.383  37.914  25.267  1.00  0.00     0.100 C
HETATM   11  N2  UNL     1      22.906  39.276  25.073  1.00  0.00    -0.353 N
ENDROOT
BRANCH  11  12
HETATM   12  C9  UNL     1      21.708  39.635  24.447  1.00  0.00     0.092 C
HETATM   13  N3  UNL     1      20.671  39.908  25.173  1.00  0.00    -0.388 N
ATOM     14  H32 UNL     1      20.747  39.857  26.189  1.00  0.00     0.157 HD
ATOM     15  H31 UNL     1      19.797  40.170  24.717  1.00  0.00     0.157 HD
BRANCH  12  16
HETATM   16  C10 UNL     1      21.597  39.710  22.966  1.00  0.00     0.204 C
BRANCH  16  17
HETATM   17  N4  UNL     1      22.463  40.779  22.460  1.00  0.00    -0.349 N
HETATM   18  C11 UNL     1      22.300  42.059  22.829  1.00  0.00     0.093 A
HETATM   19  C12 UNL     1      23.239  42.838  22.210  1.00  0.00     0.038 A
HETATM   20  C13 UNL     1      23.980  41.932  21.440  1.00  0.00     0.033 A
HETATM   21  S2  UNL     1      25.280  41.754  20.351  1.00  0.00    -0.100 SA
HETATM   22  C16 UNL     1      23.514  40.657  21.584  1.00  0.00     0.052 A
HETATM   23  C14 UNL     1      25.203  40.070  20.103  1.00  0.00     0.053 A
HETATM   24  C15 UNL     1      24.152  39.691  20.886  1.00  0.00     0.038 A
ENDBRANCH  16  17
ENDBRANCH  12  16
ENDBRANCH  11  12
BRANCH   1  25
HETATM   25  C2  UNL     1      25.631  37.144  24.474  1.00  0.00     0.002 C
HETATM   26  C1  UNL     1      24.721  36.768  23.339  1.00  0.00     0.005 C
ENDBRANCH   1  25
TORSDOF 4
ENDMDL