MODEL 2
REMARK VINA RESULT: -6.440410663      0.388      1.503
REMARK  6 active torsions:
REMARK  status: ('A' for Active; 'I' for Inactive)
REMARK    1  A    between atoms: N3_7  and  C3_8
REMARK    2  A    between atoms: C13_18  and  C14_19
REMARK    3  A    between atoms: C14_19  and  N4_20
REMARK    4  A    between atoms: N4_20  and  C15_23
REMARK    5  A    between atoms: C15_23  and  O1_24
REMARK    6  A    between atoms: C15_23  and  C16_26
ROOT
HETATM    1  C1  UNL     1      25.735  38.585  19.979  1.00  0.00     0.072 C
HETATM    2  C2  UNL     1      24.989  37.389  19.472  1.00  0.00     0.049 A
HETATM    3  N1  UNL     1      25.087  36.805  18.287  1.00  0.00    -0.289 N
ATOM      4  H1  UNL     1      25.660  37.124  17.506  1.00  0.00     0.188 HD
HETATM    5  N2  UNL     1      24.331  35.764  18.294  1.00  0.00    -0.239 N
ATOM      6  H2  UNL     1      24.218  35.134  17.500  1.00  0.00     0.208 HD
HETATM    7  N3  UNL     1      23.707  35.606  19.482  1.00  0.00    -0.269 N
HETATM    8  C13 UNL     1      24.056  36.599  20.269  1.00  0.00     0.080 A
ENDROOT
BRANCH   8   9
HETATM    9  C14 UNL     1      23.846  37.109  21.582  1.00  0.00     0.296 C
BRANCH   9  10
HETATM   10  N4  UNL     1      24.477  36.329  22.725  1.00  0.00    -0.043 N
ATOM     11  H42 UNL     1      23.825  35.745  23.250  1.00  0.00     0.280 HD
ATOM     12  H41 UNL     1      25.088  35.566  22.432  1.00  0.00     0.280 HD
BRANCH  10  13
HETATM   13  C15 UNL     1      25.127  37.352  23.504  1.00  0.00     0.326 C
BRANCH  13  14
HETATM   14  O1  UNL     1      24.116  38.456  23.178  1.00  0.00    -0.369 OA
ATOM     15  H1  UNL     1      23.592  37.931  22.586  1.00  0.00     0.212 HD
ENDBRANCH  13  14
BRANCH  13  16
HETATM   16  C16 UNL     1      25.178  37.503  24.941  1.00  0.00     0.000 C
HETATM   17  C17 UNL     1      26.381  36.941  25.638  1.00  0.00     0.019 C
HETATM   18  C18 UNL     1      25.104  38.991  25.351  1.00  0.00     0.019 C
HETATM   19  C19 UNL     1      23.919  36.866  25.513  1.00  0.00     0.019 C
ENDBRANCH  13  16
ENDBRANCH  10  13
ENDBRANCH   9  10
ENDBRANCH   8   9
BRANCH   7  20
HETATM   20  C3  UNL     1      23.066  34.363  19.869  1.00  0.00     0.056 C
HETATM   21  C4  UNL     1      23.592  33.356  20.712  1.00  0.00     0.038 C
HETATM   22  C5  UNL     1      22.601  32.204  20.881  1.00  0.00    -0.011 C
HETATM   23  C6  UNL     1      21.336  32.621  21.554  1.00  0.00     0.009 C
HETATM   24  C10 UNL     1      22.291  31.620  19.546  1.00  0.00     0.009 C
HETATM   25  C7  UNL     1      20.778  33.794  20.718  1.00  0.00    -0.011 C
HETATM   26  C8  UNL     1      20.321  33.200  19.409  1.00  0.00     0.009 C
HETATM   27  C12 UNL     1      21.794  34.859  20.600  1.00  0.00     0.038 C
HETATM   28  C9  UNL     1      21.591  32.690  18.740  1.00  0.00    -0.011 C
HETATM   29  C11 UNL     1      22.466  33.859  18.530  1.00  0.00     0.038 C
ENDBRANCH   7  20
TORSDOF 6
ENDMDL