MODEL 3
REMARK VINA RESULT: -6.633283237      1.859      4.797
REMARK  3 active torsions:
REMARK  status: ('A' for Active; 'I' for Inactive)
REMARK    1  A    between atoms: C2_5  and  C3_6
REMARK    2  A    between atoms: C2_5  and  C9_12
REMARK    3  A    between atoms: C15_18  and  C16_19
ROOT
HETATM    1  N1  UNL     1      19.783  35.788  24.774  1.00  0.00    -0.063 NA
HETATM    2  C1  UNL     1      20.685  36.822  24.336  1.00  0.00     0.190 A
HETATM    3  N2  UNL     1      21.880  36.507  24.124  1.00  0.00    -0.345 N
ATOM      4  H2  UNL     1      22.121  35.529  24.281  1.00  0.00     0.163 HD
HETATM    5  C2  UNL     1      22.972  37.375  23.678  1.00  0.00     0.103 A
HETATM    6  C15 UNL     1      22.536  38.779  23.464  1.00  0.00     0.145 A
HETATM    7  C20 UNL     1      21.075  39.018  23.757  1.00  0.00     0.109 A
HETATM    8  N3  UNL     1      20.645  40.353  23.562  1.00  0.00    -0.087 NA
HETATM    9  N4  UNL     1      20.254  38.146  24.144  1.00  0.00    -0.322 N
ATOM     10  H4  UNL     1      19.282  38.399  24.317  1.00  0.00     0.169 HD
ENDROOT
BRANCH   5  11
HETATM   11  C3  UNL     1      24.038  37.183  24.677  1.00  0.00    -0.024 A
HETATM   12  C4  UNL     1      23.739  36.988  26.002  1.00  0.00     0.010 A
HETATM   13  C5  UNL     1      24.744  36.802  26.927  1.00  0.00     0.001 A
HETATM   14  C6  UNL     1      26.072  36.805  26.564  1.00  0.00     0.000 A
HETATM   15  C7  UNL     1      26.381  37.000  25.242  1.00  0.00     0.001 A
HETATM   16  C8  UNL     1      25.351  37.187  24.313  1.00  0.00     0.010 A
ENDBRANCH   5  11
BRANCH   5  17
HETATM   17  C9  UNL     1      23.424  36.724  22.389  1.00  0.00    -0.024 A
HETATM   18  C10 UNL     1      24.029  37.453  21.407  1.00  0.00     0.010 A
HETATM   19  C11 UNL     1      24.429  36.806  20.235  1.00  0.00     0.001 A
HETATM   20  C12 UNL     1      24.221  35.459  20.065  1.00  0.00     0.000 A
HETATM   21  C13 UNL     1      23.613  34.702  21.041  1.00  0.00     0.001 A
HETATM   22  C14 UNL     1      23.223  35.352  22.190  1.00  0.00     0.010 A
ENDBRANCH   5  17
BRANCH   6  23
HETATM   23  C16 UNL     1      23.356  39.815  24.120  1.00  0.00     0.066 A
HETATM   24  C17 UNL     1      24.369  40.548  23.561  1.00  0.00     0.035 A
HETATM   25  C18 UNL     1      24.855  41.395  24.537  1.00  0.00     0.027 A
HETATM   26  C19 UNL     1      24.101  41.129  25.657  1.00  0.00     0.142 A
HETATM   27  O1  UNL     1      23.252  40.208  25.354  1.00  0.00    -0.326 OA
ENDBRANCH   6  23
TORSDOF 3
ENDMDL