MODEL 4
REMARK VINA RESULT: -6.092382864      2.592      5.284
REMARK  7 active torsions:
REMARK  status: ('A' for Active; 'I' for Inactive)
REMARK    1  A    between atoms: N1_1  and  C1_5
REMARK    2  A    between atoms: C1_5  and  C2_6
REMARK    3  A    between atoms: N2_10  and  C6_11
REMARK    4  A    between atoms: C6_11  and  O1_12
REMARK    5  A    between atoms: C6_11  and  C7_14
REMARK    6  A    between atoms: C8_15  and  O2_16
REMARK    7  A    between atoms: N3_23  and  C13_24
ROOT
HETATM    1  C7  UNL     1      24.386  38.007  21.474  1.00  0.00     0.121 A
HETATM    2  C8  UNL     1      24.323  39.375  21.038  1.00  0.00     0.110 A
HETATM    3  C9  UNL     1      24.138  40.209  22.124  1.00  0.00     0.034 A
HETATM    4  C10 UNL     1      23.996  41.542  22.377  1.00  0.00     0.024 A
HETATM    5  C11 UNL     1      23.818  41.919  23.673  1.00  0.00     0.053 A
HETATM    6  S1  UNL     1      23.852  40.433  24.510  1.00  0.00    -0.083 SA
HETATM    7  C12 UNL     1      24.090  39.374  23.192  1.00  0.00     0.090 A
HETATM    8  N3  UNL     1      24.244  38.060  22.774  1.00  0.00    -0.330 N
ENDROOT
BRANCH   1   9
HETATM    9  C6  UNL     1      24.660  36.949  20.547  1.00  0.00     0.169 C
BRANCH   9  10
HETATM   10  N2  UNL     1      23.958  35.769  20.329  1.00  0.00    -0.354 N
HETATM   11  C2  UNL     1      22.879  35.533  19.393  1.00  0.00     0.111 C
HETATM   12  C3  UNL     1      22.255  34.242  19.741  1.00  0.00     0.028 C
HETATM   13  C4  UNL     1      22.631  34.043  21.194  1.00  0.00     0.022 C
HETATM   14  C5  UNL     1      24.076  34.554  21.111  1.00  0.00     0.125 C
BRANCH  11  15
HETATM   15  C1  UNL     1      23.277  35.673  17.961  1.00  0.00     0.254 C
BRANCH  15  16
HETATM   16  N1  UNL     1      22.520  34.881  17.051  1.00  0.00    -0.077 N
ATOM     17  H13 UNL     1      21.524  34.963  17.254  1.00  0.00     0.274 HD
ATOM     18  H12 UNL     1      22.546  35.294  16.118  1.00  0.00     0.274 HD
ATOM     19  H11 UNL     1      22.792  33.898  17.009  1.00  0.00     0.274 HD
ENDBRANCH  15  16
ENDBRANCH  11  15
ENDBRANCH   9  10
BRANCH   9  20
HETATM   20  O1  UNL     1      25.699  37.094  19.779  1.00  0.00    -0.344 OA
ATOM     21  H1  UNL     1      25.494  37.120  18.852  1.00  0.00     0.219 HD
ENDBRANCH   9  20
ENDBRANCH   1   9
BRANCH   2  22
HETATM   22  O2  UNL     1      24.444  39.722  19.687  1.00  0.00    -0.357 OA
ATOM     23  H2  UNL     1      23.685  39.788  19.119  1.00  0.00     0.217 HD
ENDBRANCH   2  22
BRANCH   8  24
HETATM   24  C13 UNL     1      24.324  37.037  23.794  1.00  0.00     0.091 C
HETATM   25  C14 UNL     1      25.679  37.251  24.530  1.00  0.00     0.026 C
HETATM   26  C15 UNL     1      25.373  37.130  25.991  1.00  0.00     0.002 C
HETATM   27  C16 UNL     1      23.950  36.620  26.091  1.00  0.00     0.002 C
HETATM   28  C17 UNL     1      23.299  37.221  24.889  1.00  0.00     0.026 C
ENDBRANCH   8  24
TORSDOF 7
ENDMDL