MODEL 5
REMARK VINA RESULT: -6.725210048      1.837      3.203
REMARK  5 active torsions:
REMARK  status: ('A' for Active; 'I' for Inactive)
REMARK    1  A    between atoms: O1_1  and  N1_3
REMARK    2  A    between atoms: C1_5  and  O2_6
REMARK    3  A    between atoms: C1_5  and  C2_8
REMARK    4  A    between atoms: C5_11  and  N2_12
REMARK    5  A    between atoms: C6_14  and  N3_15
ROOT
HETATM    1  N2  UNL     1      25.295  37.095  23.703  1.00  0.00    -0.352 N
ATOM      2  H2  UNL     1      26.078  36.545  24.059  1.00  0.00     0.166 HD
HETATM    3  C6  UNL     1      24.766  37.941  24.490  1.00  0.00     0.179 C
ENDROOT
BRANCH   1   4
HETATM    4  C5  UNL     1      24.880  36.857  22.363  1.00  0.00     0.032 A
HETATM    5  C4  UNL     1      25.213  37.684  21.323  1.00  0.00     0.030 A
HETATM    6  C3  UNL     1      24.793  37.420  20.039  1.00  0.00     0.018 A
HETATM    7  C2  UNL     1      24.025  36.324  19.738  1.00  0.00     0.017 A
HETATM    8  C18 UNL     1      23.682  35.475  20.796  1.00  0.00     0.018 A
HETATM    9  C17 UNL     1      24.110  35.760  22.053  1.00  0.00     0.030 A
BRANCH   7  10
HETATM   10  C1  UNL     1      23.570  36.020  18.407  1.00  0.00     0.170 C
HETATM   11  N1  UNL     1      24.251  35.829  17.377  1.00  0.00    -0.247 N
ATOM     12  H1  UNL     1      23.672  35.631  16.562  1.00  0.00     0.196 HD
BRANCH  11  13
HETATM   13  O1  UNL     1      25.542  35.823  17.090  1.00  0.00    -0.288 OA
ATOM     14  H1  UNL     1      26.062  35.976  16.309  1.00  0.00     0.244 HD
ENDBRANCH  11  13
BRANCH  10  15
HETATM   15  O2  UNL     1      22.160  35.919  18.217  1.00  0.00    -0.344 OA
ATOM     16  H2  UNL     1      21.660  36.654  18.553  1.00  0.00     0.219 HD
ENDBRANCH  10  15
ENDBRANCH   7  10
ENDBRANCH   1   4
BRANCH   3  17
HETATM   17  N3  UNL     1      23.668  38.788  24.156  1.00  0.00    -0.372 N
HETATM   18  C7  UNL     1      22.483  38.211  23.591  1.00  0.00     0.124 C
HETATM   19  C8  UNL     1      21.822  39.075  22.553  1.00  0.00     0.029 C
HETATM   20  C9  UNL     1      22.176  40.526  22.664  1.00  0.00     0.024 C
HETATM   21  C10 UNL     1      22.572  40.945  24.044  1.00  0.00     0.035 C
HETATM   22  C16 UNL     1      23.281  40.890  21.730  1.00  0.00    -0.023 A
HETATM   23  C11 UNL     1      23.834  40.204  24.416  1.00  0.00     0.090 C
HETATM   24  C12 UNL     1      24.965  40.709  23.587  1.00  0.00     0.066 C
HETATM   25  C13 UNL     1      24.568  40.968  22.179  1.00  0.00    -0.025 A
HETATM   26  C14 UNL     1      25.366  41.318  21.112  1.00  0.00     0.149 A
HETATM   27  O3  UNL     1      24.584  41.443  20.070  1.00  0.00    -0.334 OA
HETATM   28  C15 UNL     1      23.338  41.200  20.380  1.00  0.00     0.149 A
ENDBRANCH   3  17
TORSDOF 5
ENDMDL