MODEL 3
REMARK VINA RESULT: -6.532144469      4.231      6.812
REMARK  5 active torsions:
REMARK  status: ('A' for Active; 'I' for Inactive)
REMARK    1  A    between atoms: C2_2  and  C3_3
REMARK    2  A    between atoms: C6_6  and  N1_7
REMARK    3  A    between atoms: N1_7  and  C7_9
REMARK    4  A    between atoms: C7_9  and  N2_11
REMARK    5  A    between atoms: C11_15  and  N3_16
ROOT
HETATM    1  N2  UNL     1      23.875  35.878  20.993  1.00  0.00    -0.356 N
HETATM    2  C8  UNL     1      23.313  35.991  22.351  1.00  0.00     0.125 C
HETATM    3  C9  UNL     1      21.960  35.264  22.382  1.00  0.00     0.022 C
HETATM    4  C10 UNL     1      22.112  33.874  21.848  1.00  0.00     0.029 C
HETATM    5  C11 UNL     1      22.627  33.952  20.424  1.00  0.00     0.111 C
HETATM    6  C14 UNL     1      24.039  34.533  20.530  1.00  0.00     0.151 C
ENDROOT
BRANCH   1   7
HETATM    7  C7  UNL     1      24.209  37.037  20.247  1.00  0.00     0.175 C
HETATM    8  S1  UNL     1      24.490  36.750  18.643  1.00  0.00    -0.041 SA
BRANCH   7   9
HETATM    9  N1  UNL     1      24.284  38.281  20.842  1.00  0.00    -0.314 N
ATOM     10  H1  UNL     1      23.847  38.359  21.761  1.00  0.00     0.170 HD
BRANCH   9  11
HETATM   11  C6  UNL     1      24.887  39.464  20.347  1.00  0.00     0.150 A
HETATM   12  C5  UNL     1      24.350  40.698  20.191  1.00  0.00     0.059 A
HETATM   13  C4  UNL     1      25.357  41.522  19.665  1.00  0.00     0.041 A
HETATM   14  C3  UNL     1      26.465  40.723  19.530  1.00  0.00     0.077 A
HETATM   15  O1  UNL     1      26.145  39.550  19.935  1.00  0.00    -0.294 OA
BRANCH  14  16
HETATM   16  C2  UNL     1      27.773  41.159  19.012  1.00  0.00     0.027 C
HETATM   17  C1  UNL     1      28.767  40.312  19.045  1.00  0.00     0.014 C
ENDBRANCH  14  16
ENDBRANCH   9  11
ENDBRANCH   7   9
ENDBRANCH   1   7
BRANCH   5  18
HETATM   18  N3  UNL     1      22.608  32.689  19.748  1.00  0.00    -0.311 N
HETATM   19  C12 UNL     1      23.169  31.517  20.079  1.00  0.00     0.202 A
HETATM   20  N4  UNL     1      22.870  30.615  19.126  1.00  0.00    -0.294 N
HETATM   21  N5  UNL     1      22.129  31.186  18.191  1.00  0.00    -0.275 N
ATOM     22  H4  UNL     1      23.169  29.640  19.125  1.00  0.00     0.187 HD
HETATM   23  C13 UNL     1      21.971  32.460  18.579  1.00  0.00     0.194 A
ATOM     24  H5  UNL     1      21.754  30.748  17.350  1.00  0.00     0.189 HD
HETATM   25  S2  UNL     1      21.113  33.580  17.730  1.00  0.00    -0.039 SA
ENDBRANCH   5  18
TORSDOF 5
ENDMDL