MODEL 1
REMARK VINA RESULT: -6.564768354      0.000      0.000
REMARK  3 active torsions:
REMARK  status: ('A' for Active; 'I' for Inactive)
REMARK    1  A    between atoms: C6_7  and  N1_8
REMARK       I    between atoms: N1_8  and  C7_10
REMARK       I    between atoms: C7_10  and  N2_12
REMARK    2  A    between atoms: N2_12  and  C8_14
REMARK    3  A    between atoms: C13_22  and  C15_24
ROOT
HETATM    1  C8  UNL     1      22.120  45.259  25.131  1.00  0.00     0.248 C
HETATM    2  C9  UNL     1      21.898  46.040  23.923  1.00  0.00     0.078 C
HETATM    3  N3  UNL     1      21.736  46.653  22.952  1.00  0.00    -0.196 NA
ENDROOT
BRANCH   1   4
HETATM    4  N2  UNL     1      23.360  44.531  25.016  1.00  0.00    -0.331 N
HETATM    5  C7  UNL     1      23.423  43.143  24.745  1.00  0.00     0.321 C
HETATM    6  N1  UNL     1      24.635  42.462  24.637  1.00  0.00    -0.302 N
HETATM    7  O1  UNL     1      22.316  42.545  24.603  1.00  0.00    -0.247 OA
ATOM      8  H1  UNL     1      25.514  42.964  24.755  1.00  0.00     0.171 HD
ATOM      9  H2  UNL     1      24.235  45.042  25.135  1.00  0.00     0.165 HD
BRANCH   6  10
HETATM   10  C6  UNL     1      24.644  41.048  24.360  1.00  0.00     0.100 A
HETATM   11  S1  UNL     1      24.847  39.753  25.447  1.00  0.00    -0.072 SA
HETATM   12  C5  UNL     1      24.735  38.453  24.355  1.00  0.00     0.021 A
HETATM   13  C4  UNL     1      24.537  39.087  23.143  1.00  0.00     0.012 A
HETATM   14  C12 UNL     1      24.797  36.954  24.499  1.00  0.00     0.216 C
HETATM   15  C3  UNL     1      24.418  38.088  22.003  1.00  0.00    -0.015 C
HETATM   16  C10 UNL     1      24.491  40.426  23.150  1.00  0.00     0.090 A
HETATM   17  C2  UNL     1      24.961  38.369  20.862  1.00  0.00    -0.020 C
HETATM   18  C13 UNL     1      23.699  36.887  22.416  1.00  0.00     0.085 C
HETATM   19  C1  UNL     1      25.018  37.632  19.600  1.00  0.00     0.036 C
HETATM   20  O2  UNL     1      24.492  36.282  23.391  1.00  0.00    -0.371 OA
HETATM   21  C14 UNL     1      23.473  35.834  21.363  1.00  0.00     0.051 C
HETATM   22  C11 UNL     1      24.260  41.256  21.950  1.00  0.00     0.103 C
HETATM   23  N4  UNL     1      24.052  41.924  21.002  1.00  0.00    -0.191 NA
BRANCH  18  24
HETATM   24  C15 UNL     1      22.309  37.163  22.982  1.00  0.00     0.038 C
HETATM   25  C16 UNL     1      21.555  35.913  23.277  1.00  0.00     0.008 C
ENDBRANCH  18  24
ENDBRANCH   6  10
ENDBRANCH   1   4
TORSDOF 3
ENDMDL