MODEL 5
REMARK VINA RESULT: -7.139642812      1.196      1.496
REMARK  6 active torsions:
REMARK  status: ('A' for Active; 'I' for Inactive)
REMARK    1  A    between atoms: C3_5  and  S1_6
REMARK    2  A    between atoms: S1_6  and  C4_7
REMARK    3  A    between atoms: C4_7  and  C5_8
REMARK       I    between atoms: C5_8  and  N2_10
REMARK    4  A    between atoms: N2_10  and  C6_12
REMARK    5  A    between atoms: C11_21  and  C12_22
REMARK       I    between atoms: C12_22  and  N5_24
REMARK    6  A    between atoms: N5_24  and  C13_26
ROOT
HETATM    1  C1  UNL     1      -7.725  49.310  38.932  1.00  0.00     0.071 C
HETATM    2  C2  UNL     1      -7.785  47.821  38.959  1.00  0.00     0.041 A
HETATM    3  N1  UNL     1      -8.649  47.221  39.850  1.00  0.00    -0.337 N
ATOM      4  H1  UNL     1      -9.252  47.794  40.441  1.00  0.00     0.168 HD
HETATM    5  C3  UNL     1      -8.698  45.881  39.939  1.00  0.00     0.159 A
HETATM    6  N3  UNL     1      -7.904  45.149  39.159  1.00  0.00    -0.279 N
ATOM      7  H3  UNL     1      -7.938  44.132  39.225  1.00  0.00     0.189 HD
HETATM    8  N4  UNL     1      -7.088  45.705  38.319  1.00  0.00    -0.292 N
ATOM      9  H4  UNL     1      -6.499  45.104  37.743  1.00  0.00     0.187 HD
HETATM   10  C11 UNL     1      -6.979  47.078  38.164  1.00  0.00     0.138 A
ENDROOT
BRANCH   5  11
HETATM   11  S1  UNL     1      -9.830  45.093  41.093  1.00  0.00    -0.083 SA
BRANCH  11  12
HETATM   12  C4  UNL     1      -8.942  44.716  42.606  1.00  0.00     0.185 C
BRANCH  12  13
HETATM   13  C5  UNL     1      -8.293  43.401  42.639  1.00  0.00     0.227 C
HETATM   14  O1  UNL     1      -8.643  42.568  43.507  1.00  0.00    -0.273 OA
HETATM   15  N2  UNL     1      -7.272  43.024  41.723  1.00  0.00    -0.356 N
ATOM     16  H2  UNL     1      -6.960  43.676  41.003  1.00  0.00     0.162 HD
BRANCH  15  17
HETATM   17  C6  UNL     1      -6.684  41.721  41.821  1.00  0.00     0.084 C
HETATM   18  C7  UNL     1      -5.485  41.724  42.774  1.00  0.00     0.025 C
HETATM   19  C8  UNL     1      -4.817  40.417  42.437  1.00  0.00     0.002 C
HETATM   20  C9  UNL     1      -4.912  40.373  40.929  1.00  0.00     0.002 C
HETATM   21  C10 UNL     1      -6.003  41.338  40.514  1.00  0.00     0.025 C
ENDBRANCH  15  17
ENDBRANCH  12  13
ENDBRANCH  11  12
ENDBRANCH   5  11
BRANCH  10  22
HETATM   22  C12 UNL     1      -6.080  47.558  37.165  1.00  0.00     0.271 C
HETATM   23  O2  UNL     1      -4.814  47.476  37.418  1.00  0.00    -0.266 OA
HETATM   24  N5  UNL     1      -6.390  48.102  35.931  1.00  0.00    -0.351 N
ATOM     25  H5  UNL     1      -7.369  48.182  35.657  1.00  0.00     0.163 HD
BRANCH  24  26
HETATM   26  C13 UNL     1      -5.336  48.575  34.995  1.00  0.00     0.084 C
HETATM   27  C14 UNL     1      -5.608  47.939  33.678  1.00  0.00     0.025 C
HETATM   28  C15 UNL     1      -6.480  48.718  32.757  1.00  0.00     0.002 C
HETATM   29  C16 UNL     1      -5.990  50.147  32.623  1.00  0.00     0.000 C
HETATM   30  C17 UNL     1      -5.979  50.798  33.979  1.00  0.00     0.002 C
HETATM   31  C18 UNL     1      -5.192  50.044  35.007  1.00  0.00     0.025 C
ENDBRANCH  24  26
ENDBRANCH  10  22
TORSDOF 6
ENDMDL