MODEL 1
REMARK VINA RESULT: -7.303418098      0.000      0.000
REMARK  6 active torsions:
REMARK  status: ('A' for Active; 'I' for Inactive)
REMARK       I    between atoms: C1_4  and  N2_5
REMARK       I    between atoms: C1_4  and  N4_24
REMARK       I    between atoms: N2_5  and  C2_7
REMARK    1  A    between atoms: C2_7  and  C3_9
REMARK    2  A    between atoms: C6_12  and  S1_13
REMARK    3  A    between atoms: S1_13  and  C7_14
REMARK    4  A    between atoms: C7_14  and  C8_15
REMARK    5  A    between atoms: C8_15  and  C9_16
REMARK    6  A    between atoms: C9_16  and  N3_17
ROOT
HETATM    1  C3  UNL     1      -7.643  45.251  39.526  1.00  0.00     0.074 A
HETATM    2  C4  UNL     1      -8.876  44.810  39.916  1.00  0.00     0.026 A
HETATM    3  C5  UNL     1      -8.928  43.913  40.909  1.00  0.00     0.027 A
HETATM    4  C6  UNL     1      -7.743  43.510  41.454  1.00  0.00     0.042 A
HETATM    5  S2  UNL     1      -6.589  44.392  40.567  1.00  0.00    -0.078 SA
ENDROOT
BRANCH   1   6
HETATM    6  C2  UNL     1      -7.292  46.230  38.469  1.00  0.00     0.276 C
HETATM    7  N2  UNL     1      -5.941  46.419  38.166  1.00  0.00    -0.155 N
HETATM    8  C1  UNL     1      -5.514  47.321  37.181  1.00  0.00     0.676 C
ATOM      9  H2  UNL     1      -5.242  45.882  38.680  1.00  0.00     0.187 HD
HETATM   10  N1  UNL     1      -4.214  47.406  36.996  1.00  0.00    -0.234 N
HETATM   11  N4  UNL     1      -6.356  48.119  36.397  1.00  0.00    -0.218 N
ATOM     12  H12 UNL     1      -3.601  46.824  37.567  1.00  0.00     0.174 HD
ATOM     13  H11 UNL     1      -3.904  48.062  36.279  1.00  0.00     0.174 HD
HETATM   14  C14 UNL     1      -6.903  47.807  35.111  1.00  0.00     0.141 C
HETATM   15  C17 UNL     1      -6.793  49.474  36.754  1.00  0.00     0.141 C
HETATM   16  C15 UNL     1      -7.393  49.095  34.534  1.00  0.00     0.022 C
HETATM   17  C16 UNL     1      -6.769  50.169  35.379  1.00  0.00     0.022 C
HETATM   18  O1  UNL     1      -8.220  46.835  37.906  1.00  0.00    -0.266 OA
ENDBRANCH   1   6
BRANCH   4  19
HETATM   19  S1  UNL     1      -7.487  42.332  42.775  1.00  0.00    -0.123 SA
BRANCH  19  20
HETATM   20  C7  UNL     1      -5.714  42.078  43.054  1.00  0.00     0.082 C
BRANCH  20  21
HETATM   21  C8  UNL     1      -5.301  40.800  42.401  1.00  0.00     0.041 C
BRANCH  21  22
HETATM   22  C9  UNL     1      -5.736  40.714  40.956  1.00  0.00     0.273 C
BRANCH  22  23
HETATM   23  N3  UNL     1      -4.698  40.235  40.092  1.00  0.00     0.092 N
HETATM   24  C10 UNL     1      -4.288  41.328  39.229  1.00  0.00     0.298 C
HETATM   25  C11 UNL     1      -3.278  40.856  38.200  1.00  0.00     0.198 C
HETATM   26  O2  UNL     1      -2.470  39.841  38.706  1.00  0.00    -0.388 OA
HETATM   27  C12 UNL     1      -2.308  40.074  40.065  1.00  0.00     0.198 C
HETATM   28  C13 UNL     1      -3.575  39.681  40.796  1.00  0.00     0.298 C
ENDBRANCH  22  23
ENDBRANCH  21  22
ENDBRANCH  20  21
ENDBRANCH  19  20
ENDBRANCH   4  19
TORSDOF 6
ENDMDL