MODEL 1
REMARK VINA RESULT: -7.728718089      0.000      0.000
REMARK  8 active torsions:
REMARK  status: ('A' for Active; 'I' for Inactive)
REMARK    1  A    between atoms: C2_2  and  O2_4
REMARK    2  A    between atoms: O2_4  and  C3_5
REMARK    3  A    between atoms: C3_5  and  C4_6
REMARK    4  A    between atoms: C4_6  and  O3_7
REMARK    5  A    between atoms: C4_6  and  C5_9
REMARK    6  A    between atoms: C5_9  and  O4_10
REMARK    7  A    between atoms: C5_9  and  C6_12
REMARK    8  A    between atoms: C8_14  and  C9_15
ROOT
HETATM    1  C6  UNL     1      -6.130  41.898  42.786  1.00  0.00    -0.053 C
HETATM    2  C7  UNL     1      -5.450  42.847  43.681  1.00  0.00     0.046 C
HETATM    3  C8  UNL     1      -7.310  42.222  42.286  1.00  0.00     0.007 C
ENDROOT
BRANCH   3   4
HETATM    4  C9  UNL     1      -7.971  43.483  42.581  1.00  0.00     0.033 C
HETATM    5  C10 UNL     1      -8.421  44.240  41.580  1.00  0.00     0.054 C
HETATM    6  O5  UNL     1      -9.061  45.446  41.719  1.00  0.00    -0.318 OA
HETATM    7  C19 UNL     1      -8.325  43.936  40.151  1.00  0.00     0.048 C
HETATM    8  C11 UNL     1      -9.598  45.880  40.482  1.00  0.00     0.171 C
HETATM    9  C12 UNL     1      -8.658  46.962  39.933  1.00  0.00     0.080 C
HETATM   10  O6  UNL     1     -10.812  46.431  40.676  1.00  0.00    -0.344 OA
HETATM   11  C18 UNL     1      -9.532  44.689  39.587  1.00  0.00     0.058 C
HETATM   12  C13 UNL     1     -11.897  45.621  40.802  1.00  0.00     0.057 C
HETATM   13  C14 UNL     1     -12.573  45.980  42.136  1.00  0.00     0.045 C
HETATM   14  C15 UNL     1     -12.964  45.916  39.739  1.00  0.00     0.045 C
HETATM   15  C16 UNL     1     -11.629  44.153  40.848  1.00  0.00     0.038 C
HETATM   16  C17 UNL     1     -10.710  43.762  39.721  1.00  0.00     0.014 C
HETATM   17  C20 UNL     1      -7.044  44.350  39.510  1.00  0.00     0.017 C
ENDBRANCH   3   4
BRANCH   1  18
HETATM   18  C5  UNL     1      -5.550  40.583  42.415  1.00  0.00     0.177 C
BRANCH  18  19
HETATM   19  C4  UNL     1      -4.553  40.758  41.323  1.00  0.00     0.175 C
BRANCH  19  20
HETATM   20  C3  UNL     1      -5.144  40.461  39.960  1.00  0.00     0.213 C
BRANCH  20  21
HETATM   21  O2  UNL     1      -4.611  41.364  38.980  1.00  0.00    -0.319 OA
BRANCH  21  22
HETATM   22  C2  UNL     1      -3.385  41.182  38.401  1.00  0.00     0.254 C
HETATM   23  C1  UNL     1      -2.723  42.174  37.510  1.00  0.00     0.126 C
HETATM   24  O1  UNL     1      -2.770  40.112  38.632  1.00  0.00    -0.266 OA
ENDBRANCH  21  22
ENDBRANCH  20  21
ENDBRANCH  19  20
BRANCH  19  25
HETATM   25  O3  UNL     1      -3.484  39.889  41.492  1.00  0.00    -0.391 OA
ATOM     26  H3  UNL     1      -3.568  39.521  42.364  1.00  0.00     0.210 HD
ENDBRANCH  19  25
ENDBRANCH  18  19
BRANCH  18  27
HETATM   27  O4  UNL     1      -5.013  40.008  43.558  1.00  0.00    -0.389 OA
ATOM     28  H4  UNL     1      -5.318  40.416  44.360  1.00  0.00     0.210 HD
ENDBRANCH  18  27
ENDBRANCH   1  18
TORSDOF 8
ENDMDL