MODEL 3
REMARK VINA RESULT: -6.818573640      0.932      1.169
REMARK  7 active torsions:
REMARK  status: ('A' for Active; 'I' for Inactive)
REMARK    1  A    between atoms: C7_7  and  N1_8
REMARK    2  A    between atoms: N1_8  and  C8_10
REMARK    3  A    between atoms: C8_10  and  C9_12
REMARK    4  A    between atoms: C9_12  and  C10_13
REMARK       I    between atoms: C10_13  and  N2_15
REMARK    5  A    between atoms: N2_15  and  N3_17
REMARK    6  A    between atoms: C11_19  and  C12_20
REMARK    7  A    between atoms: C15_23  and  N4_24
ROOT
HETATM    1  C10 UNL     1      -7.194  46.947  38.844  1.00  0.00     0.242 C
HETATM    2  O1  UNL     1      -6.016  47.107  39.231  1.00  0.00    -0.271 OA
HETATM    3  N2  UNL     1      -7.738  45.636  38.825  1.00  0.00    -0.270 N
ATOM      4  H2  UNL     1      -8.696  45.474  38.514  1.00  0.00     0.190 HD
ENDROOT
BRANCH   1   5
HETATM    5  C9  UNL     1      -8.070  48.046  38.399  1.00  0.00     0.173 C
BRANCH   5   6
HETATM    6  C8  UNL     1      -7.379  49.210  37.848  1.00  0.00     0.082 C
HETATM    7  S1  UNL     1      -7.600  50.686  38.466  1.00  0.00    -0.065 SA
BRANCH   6   8
HETATM    8  N1  UNL     1      -6.494  49.031  36.757  1.00  0.00    -0.379 N
ATOM      9  H1  UNL     1      -5.519  49.315  36.850  1.00  0.00     0.160 HD
BRANCH   8  10
HETATM   10  C7  UNL     1      -6.953  48.449  35.507  1.00  0.00     0.085 C
HETATM   11  C2  UNL     1      -7.624  49.519  34.667  1.00  0.00     0.004 C
HETATM   12  C1  UNL     1      -6.803  50.748  34.482  1.00  0.00     0.012 C
HETATM   13  C3  UNL     1      -8.048  48.969  33.348  1.00  0.00     0.006 C
HETATM   14  C4  UNL     1      -6.964  48.237  32.624  1.00  0.00     0.001 C
HETATM   15  C5  UNL     1      -5.665  48.212  33.361  1.00  0.00     0.002 C
HETATM   16  C6  UNL     1      -5.816  47.779  34.813  1.00  0.00     0.025 C
ENDBRANCH   8  10
ENDBRANCH   6   8
ENDBRANCH   5   6
ENDBRANCH   1   5
BRANCH   3  17
HETATM   17  N3  UNL     1      -6.934  44.574  39.239  1.00  0.00    -0.308 N
HETATM   18  C11 UNL     1      -7.447  43.659  39.981  1.00  0.00     0.126 C
ATOM     19  H3  UNL     1      -5.955  44.525  38.958  1.00  0.00     0.186 HD
BRANCH  18  20
HETATM   20  C12 UNL     1      -6.547  42.558  40.391  1.00  0.00     0.024 A
HETATM   21  C13 UNL     1      -6.444  41.932  41.602  1.00  0.00     0.023 A
HETATM   22  C14 UNL     1      -5.542  40.954  41.720  1.00  0.00     0.045 A
HETATM   23  C15 UNL     1      -4.790  40.653  40.619  1.00  0.00     0.144 A
HETATM   24  S2  UNL     1      -5.367  41.748  39.450  1.00  0.00    -0.065 SA
BRANCH  23  25
HETATM   25  N4  UNL     1      -3.761  39.656  40.476  1.00  0.00    -0.108 N
HETATM   26  O2  UNL     1      -3.100  39.286  41.467  1.00  0.00    -0.531 OA
HETATM   27  O3  UNL     1      -3.478  39.092  39.275  1.00  0.00    -0.531 OA
ENDBRANCH  23  25
ENDBRANCH  18  20
ENDBRANCH   3  17
TORSDOF 7
ENDMDL