MODEL 3
REMARK VINA RESULT: -7.126489683      1.902      4.701
REMARK  8 active torsions:
REMARK  status: ('A' for Active; 'I' for Inactive)
REMARK    1  A    between atoms: O1_1  and  C1_3
REMARK    2  A    between atoms: C4_6  and  O2_7
REMARK    3  A    between atoms: N1_9  and  C5_10
REMARK    4  A    between atoms: C5_10  and  C6_11
REMARK    5  A    between atoms: C6_11  and  C7_12
REMARK    6  A    between atoms: C7_12  and  N2_13
REMARK    7  A    between atoms: C13_19  and  C14_20
REMARK    8  A    between atoms: C14_20  and  C15_21
ROOT
HETATM    1  C1  UNL     1      -7.062  43.990  40.104  1.00  0.00     0.151 A
HETATM    2  C2  UNL     1      -7.067  43.177  41.237  1.00  0.00     0.007 A
HETATM    3  C3  UNL     1      -8.255  43.421  41.859  1.00  0.00     0.011 A
HETATM    4  C4  UNL     1      -8.910  44.341  41.111  1.00  0.00     0.151 A
HETATM    5  N1  UNL     1      -8.171  44.703  40.009  1.00  0.00    -0.308 N
HETATM    6  C13 UNL     1      -8.525  42.667  43.125  1.00  0.00     0.048 C
HETATM    7  C19 UNL     1      -7.282  42.739  43.934  1.00  0.00    -0.021 C
HETATM    8  C20 UNL     1      -6.118  42.514  43.317  1.00  0.00    -0.025 C
HETATM    9  C21 UNL     1      -6.132  42.199  41.841  1.00  0.00     0.070 C
ENDROOT
BRANCH   5  10
HETATM   10  C5  UNL     1      -8.552  45.664  39.014  1.00  0.00     0.135 C
BRANCH  10  11
HETATM   11  C6  UNL     1      -8.081  47.054  39.230  1.00  0.00     0.050 C
BRANCH  11  12
HETATM   12  C7  UNL     1      -6.748  47.423  38.706  1.00  0.00     0.274 C
BRANCH  12  13
HETATM   13  N2  UNL     1      -6.705  48.567  37.851  1.00  0.00     0.088 N
HETATM   14  C8  UNL     1      -7.448  48.338  36.629  1.00  0.00     0.272 C
HETATM   15  C9  UNL     1      -6.849  47.169  35.919  1.00  0.00     0.030 C
HETATM   16  C10 UNL     1      -5.379  47.240  35.698  1.00  0.00     0.003 C
HETATM   17  C11 UNL     1      -4.601  47.912  36.773  1.00  0.00     0.030 C
HETATM   18  C12 UNL     1      -5.380  48.976  37.506  1.00  0.00     0.272 C
ENDBRANCH  12  13
ENDBRANCH  11  12
ENDBRANCH  10  11
ENDBRANCH   5  10
BRANCH   1  19
HETATM   19  O1  UNL     1      -5.955  43.962  39.241  1.00  0.00    -0.345 OA
ATOM     20  H1  UNL     1      -5.747  44.731  38.724  1.00  0.00     0.219 HD
ENDBRANCH   1  19
BRANCH   4  21
HETATM   21  O2  UNL     1     -10.159  44.857  41.402  1.00  0.00    -0.345 OA
ATOM     22  H2  UNL     1     -10.970  44.589  40.987  1.00  0.00     0.219 HD
ENDBRANCH   4  21
BRANCH   6  23
HETATM   23  C14 UNL     1      -9.715  43.225  43.838  1.00  0.00     0.047 C
BRANCH  23  24
HETATM   24  C15 UNL     1      -9.303  43.986  45.052  1.00  0.00     0.146 C
HETATM   25  C16 UNL     1      -9.476  45.479  44.846  1.00  0.00     0.199 C
HETATM   26  O3  UNL     1     -10.802  45.861  44.870  1.00  0.00    -0.387 OA
HETATM   27  C17 UNL     1     -11.451  45.479  46.042  1.00  0.00     0.193 C
HETATM   28  C18 UNL     1     -10.605  44.544  46.873  1.00  0.00     0.194 C
HETATM   29  O4  UNL     1     -10.033  43.526  46.138  1.00  0.00    -0.382 OA
ENDBRANCH  23  24
ENDBRANCH   6  23
TORSDOF 8
ENDMDL