MODEL 3
REMARK VINA RESULT: -6.345977159      1.589      1.800
REMARK  9 active torsions:
REMARK  status: ('A' for Active; 'I' for Inactive)
REMARK    1  A    between atoms: C2_2  and  C3_3
REMARK    2  A    between atoms: C3_3  and  N1_4
REMARK       I    between atoms: N1_4  and  C4_6
REMARK    3  A    between atoms: C4_6  and  C5_8
REMARK    4  A    between atoms: C5_8  and  N2_9
REMARK    5  A    between atoms: N2_9  and  C6_11
REMARK    6  A    between atoms: C6_11  and  O2_12
REMARK    7  A    between atoms: C6_11  and  C7_14
REMARK    8  A    between atoms: C7_14  and  S1_15
REMARK    9  A    between atoms: S1_15  and  C8_16
ROOT
HETATM    1  N2  UNL     1      -7.203  42.766  40.309  1.00  0.00    -0.356 N
ATOM      2  H2  UNL     1      -7.785  42.147  39.745  1.00  0.00     0.162 HD
ENDROOT
BRANCH   1   3
HETATM    3  C5  UNL     1      -6.745  42.346  41.651  1.00  0.00     0.113 C
HETATM    4  C11 UNL     1      -6.072  43.507  42.317  1.00  0.00     0.041 C
HETATM    5  C12 UNL     1      -6.522  43.749  43.738  1.00  0.00     0.003 C
HETATM    6  C13 UNL     1      -8.010  43.885  43.855  1.00  0.00     0.000 C
HETATM    7  C14 UNL     1      -8.747  43.012  42.869  1.00  0.00     0.003 C
HETATM    8  C15 UNL     1      -7.863  41.844  42.492  1.00  0.00     0.041 C
BRANCH   3   9
HETATM    9  C4  UNL     1      -5.795  41.222  41.399  1.00  0.00     0.246 C
HETATM   10  N1  UNL     1      -5.110  41.008  40.185  1.00  0.00    -0.359 N
ATOM     11  H1  UNL     1      -5.250  41.658  39.411  1.00  0.00     0.162 HD
HETATM   12  O1  UNL     1      -5.548  40.361  42.320  1.00  0.00    -0.271 OA
BRANCH  10  13
HETATM   13  C3  UNL     1      -4.209  39.881  40.013  1.00  0.00     0.122 C
BRANCH  13  14
HETATM   14  C2  UNL     1      -2.936  40.239  39.338  1.00  0.00     0.015 C
HETATM   15  C1  UNL     1      -3.180  41.254  38.246  1.00  0.00     0.006 C
ENDBRANCH  13  14
ENDBRANCH  10  13
ENDBRANCH   3   9
ENDBRANCH   1   3
BRANCH   1  16
HETATM   16  C6  UNL     1      -6.824  44.033  39.817  1.00  0.00     0.122 C
BRANCH  16  17
HETATM   17  O2  UNL     1      -5.738  44.116  39.103  1.00  0.00    -0.349 OA
ATOM     18  H2  UNL     1      -5.014  44.628  39.445  1.00  0.00     0.219 HD
ENDBRANCH  16  17
BRANCH  16  19
HETATM   19  C7  UNL     1      -7.576  45.277  40.052  1.00  0.00     0.165 C
BRANCH  19  20
HETATM   20  S1  UNL     1      -8.219  46.099  38.604  1.00  0.00    -0.097 SA
BRANCH  20  21
HETATM   21  C8  UNL     1      -6.918  47.053  37.803  1.00  0.00     0.109 A
HETATM   22  N3  UNL     1      -5.974  46.564  37.159  1.00  0.00    -0.358 N
HETATM   23  C9  UNL     1      -5.003  47.334  36.568  1.00  0.00     0.073 A
ATOM     24  H3  UNL     1      -5.919  45.550  37.066  1.00  0.00     0.166 HD
HETATM   25  C10 UNL     1      -5.151  48.808  36.858  1.00  0.00     0.127 A
HETATM   26  S2  UNL     1      -6.707  48.801  37.779  1.00  0.00    -0.085 SA
HETATM   27  S3  UNL     1      -6.452  49.478  39.347  1.00  0.00    -0.017 SA
ENDBRANCH  20  21
ENDBRANCH  19  20
ENDBRANCH  16  19
ENDBRANCH   1  16
TORSDOF 9
ENDMDL