MODEL 3
REMARK VINA RESULT: -6.831092435      1.283      1.518
REMARK  6 active torsions:
REMARK  status: ('A' for Active; 'I' for Inactive)
REMARK       I    between atoms: C1_2  and  N1_3
REMARK    1  A    between atoms: C1_2  and  C7_12
REMARK    2  A    between atoms: N1_3  and  N2_4
REMARK    3  A    between atoms: C2_6  and  C3_7
REMARK    4  A    between atoms: C10_15  and  S2_16
REMARK    5  A    between atoms: S2_16  and  N3_19
REMARK    6  A    between atoms: N3_19  and  C11_21
ROOT
HETATM    1  C7  UNL     1      -8.322  45.681  39.301  1.00  0.00     0.161 A
HETATM    2  C8  UNL     1      -9.120  46.740  39.674  1.00  0.00     0.048 A
HETATM    3  C9  UNL     1      -8.645  47.799  38.929  1.00  0.00     0.054 A
HETATM    4  C10 UNL     1      -7.585  47.350  38.138  1.00  0.00     0.190 A
HETATM    5  O4  UNL     1      -7.449  46.070  38.413  1.00  0.00    -0.290 OA
ENDROOT
BRANCH   1   6
HETATM    6  C1  UNL     1      -8.473  44.293  39.863  1.00  0.00     0.369 C
HETATM    7  O1  UNL     1      -9.664  44.018  40.218  1.00  0.00    -0.247 OA
HETATM    8  N1  UNL     1      -7.409  43.476  39.952  1.00  0.00    -0.280 NA
BRANCH   8   9
HETATM    9  N2  UNL     1      -6.353  42.665  40.039  1.00  0.00    -0.242 N
HETATM   10  C2  UNL     1      -5.937  41.792  39.215  1.00  0.00     0.140 C
ATOM     11  H2  UNL     1      -5.799  42.760  40.891  1.00  0.00     0.201 HD
BRANCH  10  12
HETATM   12  C3  UNL     1      -4.746  41.016  39.530  1.00  0.00     0.022 A
HETATM   13  C4  UNL     1      -4.550  40.209  40.627  1.00  0.00     0.021 A
HETATM   14  C5  UNL     1      -3.371  39.581  40.725  1.00  0.00     0.008 A
HETATM   15  C6  UNL     1      -2.455  39.788  39.732  1.00  0.00     0.050 A
HETATM   16  S1  UNL     1      -3.269  40.858  38.685  1.00  0.00    -0.101 SA
ENDBRANCH  10  12
ENDBRANCH   8   9
ENDBRANCH   1   6
BRANCH   4  17
HETATM   17  S2  UNL     1      -6.700  48.355  37.046  1.00  0.00     0.281 S
HETATM   18  O2  UNL     1      -5.245  48.001  37.126  1.00  0.00    -0.199 OA
HETATM   19  O3  UNL     1      -6.802  49.787  37.499  1.00  0.00    -0.199 OA
BRANCH  17  20
HETATM   20  N3  UNL     1      -7.173  48.185  35.398  1.00  0.00    -0.309 N
ATOM     21  H3  UNL     1      -7.473  47.295  35.002  1.00  0.00     0.172 HD
BRANCH  20  22
HETATM   22  C11 UNL     1      -7.111  49.385  34.632  1.00  0.00     0.093 C
HETATM   23  C12 UNL     1      -8.062  49.279  33.467  1.00  0.00     0.026 C
HETATM   24  C13 UNL     1      -7.401  48.207  32.628  1.00  0.00     0.002 C
HETATM   25  C14 UNL     1      -5.914  48.388  32.876  1.00  0.00     0.002 C
HETATM   26  C15 UNL     1      -5.772  49.488  33.872  1.00  0.00     0.026 C
ENDBRANCH  20  22
ENDBRANCH  17  20
ENDBRANCH   4  17
TORSDOF 6
ENDMDL