MODEL 1
REMARK VINA RESULT: -8.009511887      0.000      0.000
REMARK  6 active torsions:
REMARK  status: ('A' for Active; 'I' for Inactive)
REMARK    1  A    between atoms: N2_8  and  S1_9
REMARK    2  A    between atoms: S1_9  and  C7_12
REMARK    3  A    between atoms: C12_17  and  N3_18
REMARK    4  A    between atoms: N3_18  and  N4_20
REMARK    5  A    between atoms: N4_20  and  C13_22
REMARK    6  A    between atoms: C13_22  and  C14_23
ROOT
HETATM    1  N1  UNL     1      -8.004  49.413  39.353  1.00  0.00    -0.197 NA
HETATM    2  C1  UNL     1      -7.815  48.491  38.668  1.00  0.00     0.065 C
HETATM    3  C2  UNL     1      -7.599  47.356  37.795  1.00  0.00     0.107 C
HETATM    4  C3  UNL     1      -6.285  47.334  37.087  1.00  0.00     0.020 C
HETATM    5  C4  UNL     1      -5.097  46.911  37.858  1.00  0.00     0.002 C
HETATM    6  C5  UNL     1      -5.274  46.795  39.343  1.00  0.00     0.015 C
HETATM    7  C6  UNL     1      -6.051  45.586  39.701  1.00  0.00     0.107 C
HETATM    8  N2  UNL     1      -7.504  45.831  39.754  1.00  0.00    -0.205 NA
HETATM    9  C18 UNL     1      -7.966  46.043  38.390  1.00  0.00     0.126 C
ENDROOT
BRANCH   8  10
HETATM   10  S1  UNL     1      -8.180  44.352  40.307  1.00  0.00     0.246 S
HETATM   11  O1  UNL     1      -9.481  44.125  39.543  1.00  0.00    -0.206 OA
HETATM   12  O2  UNL     1      -7.305  43.190  39.871  1.00  0.00    -0.206 OA
BRANCH  10  13
HETATM   13  C7  UNL     1      -8.564  44.270  41.984  1.00  0.00     0.102 A
HETATM   14  C8  UNL     1      -9.289  45.312  42.589  1.00  0.00     0.027 A
HETATM   15  C9  UNL     1      -9.562  45.374  43.924  1.00  0.00     0.002 A
HETATM   16  C10 UNL     1      -9.126  44.382  44.764  1.00  0.00     0.002 A
HETATM   17  C11 UNL     1      -8.416  43.346  44.212  1.00  0.00     0.032 A
HETATM   18  C12 UNL     1      -8.141  43.289  42.844  1.00  0.00     0.070 A
BRANCH  18  19
HETATM   19  N3  UNL     1      -7.471  42.117  42.330  1.00  0.00    -0.303 N
ATOM     20  H3  UNL     1      -7.981  41.332  41.928  1.00  0.00     0.186 HD
BRANCH  19  21
HETATM   21  N4  UNL     1      -6.097  42.132  42.420  1.00  0.00    -0.330 N
ATOM     22  H4  UNL     1      -5.554  42.968  42.204  1.00  0.00     0.180 HD
BRANCH  21  23
HETATM   23  C13 UNL     1      -5.475  40.923  42.829  1.00  0.00     0.204 C
BRANCH  23  24
HETATM   24  C14 UNL     1      -4.635  40.397  41.730  1.00  0.00     0.071 A
HETATM   25  C15 UNL     1      -4.908  40.538  40.381  1.00  0.00     0.036 A
HETATM   26  C16 UNL     1      -3.891  39.913  39.678  1.00  0.00     0.027 A
HETATM   27  C17 UNL     1      -3.048  39.421  40.653  1.00  0.00     0.142 A
HETATM   28  O3  UNL     1      -3.528  39.731  41.854  1.00  0.00    -0.325 OA
ENDBRANCH  23  24
ENDBRANCH  21  23
ENDBRANCH  19  21
ENDBRANCH  18  19
ENDBRANCH  10  13
ENDBRANCH   8  10
TORSDOF 6
ENDMDL