MODEL 4
REMARK VINA RESULT: -3.164849065      1.472      2.104
REMARK  1 active torsions:
REMARK  status: ('A' for Active; 'I' for Inactive)
REMARK    1  A    between atoms: O1_1  and  C1_3
ROOT
HETATM    1  C1  UNL     1       8.732  -4.208  -1.419  1.00  0.00     0.119 C
HETATM    2  C2  UNL     1       8.399  -5.513  -2.110  1.00  0.00     0.033 C
HETATM    3  C3  UNL     1       8.556  -6.477  -0.927  1.00  0.00     0.018 C
HETATM    4  C4  UNL     1       9.972  -6.047  -0.521  1.00  0.00     0.061 C
HETATM    5  S1  UNL     1      10.533  -6.878   0.960  1.00  0.00    -0.092 SA
HETATM    6  C5  UNL     1       9.724  -4.567  -0.315  1.00  0.00     0.047 C
ENDROOT
BRANCH   1   7
HETATM    7  O1  UNL     1       9.344  -3.313  -2.292  1.00  0.00    -0.396 OA
ATOM      8  H1  UNL     1      10.211  -3.609  -2.542  1.00  0.00     0.210 HD
ENDBRANCH   1   7
TORSDOF 1
ENDMDL