MODEL 3
REMARK VINA RESULT: -4.227045212      1.877      3.531
REMARK  1 active torsions:
REMARK  status: ('A' for Active; 'I' for Inactive)
REMARK    1  A    between atoms: N2_8  and  O1_9
ROOT
HETATM    1  N1  UNL     1       7.518  -6.257   0.659  1.00  0.00    -0.195 NA
HETATM    2  C1  UNL     1       8.275  -5.442   0.295  1.00  0.00     0.087 C
HETATM    3  C2  UNL     1       9.225  -4.428  -0.184  1.00  0.00     0.219 C
HETATM    4  C3  UNL     1      10.595  -4.859   0.223  1.00  0.00     0.043 C
HETATM    5  C4  UNL     1      11.696  -4.181  -0.526  1.00  0.00     0.008 C
HETATM    6  C5  UNL     1      11.436  -3.956  -1.967  1.00  0.00     0.047 C
HETATM    7  C6  UNL     1      10.029  -3.656  -2.333  1.00  0.00     0.091 C
HETATM    8  N2  UNL     1       9.021  -4.218  -1.552  1.00  0.00    -0.258 N
ENDROOT
BRANCH   8   9
HETATM    9  O1  UNL     1       8.042  -4.861  -2.144  1.00  0.00    -0.287 OA
ATOM     10  H1  UNL     1       8.179  -5.177  -3.030  1.00  0.00     0.244 HD
ENDBRANCH   8   9
TORSDOF 1
ENDMDL