MODEL 2
REMARK VINA RESULT: -4.084189386      1.186      2.297
REMARK  0 active torsions:
REMARK  status: ('A' for Active; 'I' for Inactive)
ROOT
HETATM    1  C1  UNL     1       8.266  -5.591  -0.061  1.00  0.00     0.029 C
HETATM    2  C2  UNL     1       9.586  -6.159   0.397  1.00  0.00     0.233 C
HETATM    3  N1  UNL     1      10.655  -5.154   0.328  1.00  0.00    -0.069 N
ATOM      4  H11 UNL     1      11.535  -5.479   0.730  1.00  0.00     0.277 HD
ATOM      5  H12 UNL     1      10.505  -4.367   0.960  1.00  0.00     0.277 HD
HETATM    6  C3  UNL     1      10.776  -4.762  -1.022  1.00  0.00     0.217 C
HETATM    7  C4  UNL     1      11.840  -3.791  -1.351  1.00  0.00     0.062 C
HETATM    8  C5  UNL     1      11.298  -3.223  -2.671  1.00  0.00     0.235 C
HETATM    9  N2  UNL     1       9.873  -3.402  -2.635  1.00  0.00    -0.069 N
ATOM     10  H21 UNL     1       9.531  -3.940  -3.431  1.00  0.00     0.277 HD
ATOM     11  H22 UNL     1       9.369  -2.535  -2.820  1.00  0.00     0.277 HD
HETATM   12  C6  UNL     1       9.505  -3.983  -1.396  1.00  0.00     0.216 C
HETATM   13  C7  UNL     1       8.425  -5.028  -1.480  1.00  0.00     0.037 C
ENDROOT
TORSDOF 0
ENDMDL