MODEL 5
REMARK VINA RESULT: -3.557312609      2.901      3.973
REMARK  1 active torsions:
REMARK  status: ('A' for Active; 'I' for Inactive)
REMARK    1  A    between atoms: O1_1  and  C1_3
ROOT
HETATM    1  C1  UNL     1       8.284  -6.759   0.767  1.00  0.00     0.118 C
HETATM    2  C2  UNL     1       7.629  -7.667  -0.242  1.00  0.00     0.032 C
HETATM    3  C3  UNL     1       8.405  -7.740  -1.539  1.00  0.00     0.002 C
HETATM    4  C4  UNL     1       7.854  -6.688  -2.454  1.00  0.00     0.000 C
HETATM    5  C5  UNL     1       8.420  -5.332  -2.254  1.00  0.00     0.000 C
HETATM    6  C6  UNL     1       9.075  -5.118  -0.921  1.00  0.00     0.002 C
HETATM    7  C7  UNL     1       8.169  -5.344   0.247  1.00  0.00     0.032 C
ENDROOT
BRANCH   1   8
HETATM    8  O1  UNL     1       7.550  -6.848   1.946  1.00  0.00    -0.396 OA
ATOM      9  H1  UNL     1       8.093  -7.294   2.585  1.00  0.00     0.210 HD
ENDBRANCH   1   8
TORSDOF 1
ENDMDL