MODEL 5
REMARK VINA RESULT: -4.070139416      2.454      3.119
REMARK  2 active torsions:
REMARK  status: ('A' for Active; 'I' for Inactive)
REMARK    1  A    between atoms: C1_4  and  O1_5
REMARK    2  A    between atoms: C1_4  and  C2_7
ROOT
HETATM    1  C2  UNL     1       8.752  -5.598   0.181  1.00  0.00     0.064 C
HETATM    2  C3  UNL     1       7.709  -6.540   0.805  1.00  0.00     0.017 C
HETATM    3  C4  UNL     1       7.954  -7.753  -0.041  1.00  0.00    -0.013 C
HETATM    4  C5  UNL     1       8.121  -7.223  -1.467  1.00  0.00     0.010 C
HETATM    5  C6  UNL     1       9.309  -6.504  -0.858  1.00  0.00    -0.002 C
HETATM    6  C7  UNL     1       9.490  -7.809  -0.067  1.00  0.00     0.010 C
ENDROOT
BRANCH   1   7
HETATM    7  C1  UNL     1       8.197  -4.348  -0.311  1.00  0.00     0.113 C
HETATM    8  N1  UNL     1       8.594  -3.871  -1.441  1.00  0.00    -0.383 N
ATOM      9  H12 UNL     1       8.204  -2.994  -1.786  1.00  0.00     0.157 HD
ATOM     10  H11 UNL     1       9.297  -4.427  -1.927  1.00  0.00     0.157 HD
BRANCH   7  11
HETATM   11  O1  UNL     1       7.239  -3.591   0.352  1.00  0.00    -0.349 OA
ATOM     12  H1  UNL     1       7.080  -3.835   1.256  1.00  0.00     0.219 HD
ENDBRANCH   7  11
ENDBRANCH   1   7
TORSDOF 2
ENDMDL