MODEL 5
REMARK VINA RESULT: -3.976519205      2.244      3.845
REMARK  1 active torsions:
REMARK  status: ('A' for Active; 'I' for Inactive)
REMARK    1  A    between atoms: C2_3  and  O1_4
ROOT
HETATM    1  N1  UNL     1      11.546  -4.341   0.407  1.00  0.00    -0.194 NA
HETATM    2  C1  UNL     1      10.458  -4.631   0.095  1.00  0.00     0.097 C
HETATM    3  C2  UNL     1       9.094  -5.020  -0.297  1.00  0.00     0.146 C
HETATM    4  C3  UNL     1       9.037  -4.903  -1.779  1.00  0.00     0.053 C
HETATM    5  C4  UNL     1       8.010  -5.736  -2.448  1.00  0.00     0.004 C
HETATM    6  C5  UNL     1       8.056  -7.162  -1.973  1.00  0.00     0.000 C
HETATM    7  C6  UNL     1       7.969  -7.285  -0.487  1.00  0.00     0.004 C
HETATM    8  C7  UNL     1       8.721  -6.301   0.305  1.00  0.00     0.053 C
ENDROOT
BRANCH   3   9
HETATM    9  O1  UNL     1       8.276  -3.982   0.221  1.00  0.00    -0.376 OA
ATOM     10  H1  UNL     1       8.528  -3.923   1.135  1.00  0.00     0.211 HD
ENDBRANCH   3   9
TORSDOF 1
ENDMDL