MODEL 1
REMARK VINA RESULT: -3.310275611      0.000      0.000
REMARK  0 active torsions:
REMARK  status: ('A' for Active; 'I' for Inactive)
ROOT
HETATM    1  S1  UNL     1      10.587  -4.407  -1.277  1.00  0.00    -0.091 SA
HETATM    2  C1  UNL     1       8.767  -4.344  -1.328  1.00  0.00     0.076 C
HETATM    3  C2  UNL     1       8.327  -5.598  -2.085  1.00  0.00     0.019 C
HETATM    4  C3  UNL     1       8.754  -6.759  -1.177  1.00  0.00     0.020 C
HETATM    5  C4  UNL     1       7.821  -6.657   0.022  1.00  0.00     0.113 C
HETATM    6  N1  UNL     1       8.178  -5.501   0.764  1.00  0.00    -0.420 N
ATOM      7  H1  UNL     1       8.383  -5.549   1.762  1.00  0.00     0.153 HD
HETATM    8  C5  UNL     1       8.234  -4.281   0.053  1.00  0.00     0.129 C
ENDROOT
TORSDOF 0
ENDMDL