MODEL 5
REMARK VINA RESULT: -3.828140883      2.860      3.603
REMARK  0 active torsions:
REMARK  status: ('A' for Active; 'I' for Inactive)
ROOT
HETATM    1  C1  UNL     1       7.520  -7.705  -0.507  1.00  0.00     0.013 C
HETATM    2  C2  UNL     1       7.850  -6.850   0.760  1.00  0.00     0.081 C
HETATM    3  C3  UNL     1       8.049  -5.551   0.265  1.00  0.00    -0.162 C
HETATM    4  C4  UNL     1       8.346  -4.190   0.092  1.00  0.00     0.218 C
HETATM    5  N1  UNL     1       8.259  -3.968  -1.400  1.00  0.00    -0.331 N
ATOM      6  H1  UNL     1       7.917  -3.091  -1.791  1.00  0.00     0.180 HD
HETATM    7  N2  UNL     1       8.648  -4.968  -2.171  1.00  0.00    -0.340 N
ATOM      8  H2  UNL     1       9.600  -4.918  -2.534  1.00  0.00     0.179 HD
HETATM    9  C5  UNL     1       7.873  -6.122  -2.556  1.00  0.00     0.139 C
HETATM   10  C6  UNL     1       8.211  -7.342  -1.741  1.00  0.00     0.022 C
ENDROOT
TORSDOF 0
ENDMDL