MODEL 5
REMARK VINA RESULT: -3.182248993      2.319      2.842
REMARK  1 active torsions:
REMARK  status: ('A' for Active; 'I' for Inactive)
REMARK    1  A    between atoms: O1_1  and  C1_3
ROOT
HETATM    1  C1  UNL     1       9.174  -4.715  -1.616  1.00  0.00     0.116 C
HETATM    2  S1  UNL     1      10.165  -3.465  -2.434  1.00  0.00    -0.056 SA
HETATM    3  C2  UNL     1       8.480  -4.045  -0.422  1.00  0.00     0.050 C
HETATM    4  C3  UNL     1       7.945  -5.300   0.277  1.00  0.00     0.004 C
HETATM    5  C4  UNL     1       9.247  -6.111   0.359  1.00  0.00     0.004 C
HETATM    6  C5  UNL     1       9.965  -5.785  -0.947  1.00  0.00     0.050 C
ENDROOT
BRANCH   1   7
HETATM    7  O1  UNL     1       8.214  -5.203  -2.498  1.00  0.00    -0.379 OA
ATOM      8  H1  UNL     1       7.420  -5.416  -2.021  1.00  0.00     0.211 HD
ENDBRANCH   1   7
TORSDOF 1
ENDMDL