MODEL 1
REMARK VINA RESULT: -2.896341785      0.000      0.000
REMARK  1 active torsions:
REMARK  status: ('A' for Active; 'I' for Inactive)
REMARK    1  A    between atoms: C1_2  and  C2_4
ROOT
HETATM    1  C2  UNL     1       8.658  -4.855  -0.975  1.00  0.00     0.037 A
HETATM    2  C3  UNL     1       7.916  -4.052   0.087  1.00  0.00     0.011 A
HETATM    3  C4  UNL     1       8.243  -5.505   0.275  1.00  0.00     0.011 A
ENDROOT
BRANCH   1   4
HETATM    4  C1  UNL     1      10.043  -4.385  -1.197  1.00  0.00     0.060 C
HETATM    5  S1  UNL     1      10.343  -3.666  -2.395  1.00  0.00    -0.076 SA
HETATM    6  S2  UNL     1      11.385  -4.661  -0.049  1.00  0.00    -0.044 SA
ENDBRANCH   1   4
TORSDOF 1
ENDMDL