MODEL 5
REMARK VINA RESULT: -4.112073470      4.287      7.173
REMARK  4 active torsions:
REMARK  status: ('A' for Active; 'I' for Inactive)
REMARK    1  A    between atoms: C2_2  and  C3_3
REMARK    2  A    between atoms: C4_4  and  C5_5
REMARK    3  A    between atoms: C6_6  and  C7_7
REMARK    4  A    between atoms: C8_8  and  C9_9
ROOT
HETATM    1  C7  UNL     1       9.217  -4.923  -2.166  1.00  0.00    -0.070 C
HETATM    2  C8  UNL     1      10.188  -4.188  -2.111  1.00  0.00    -0.029 C
ENDROOT
BRANCH   1   3
HETATM    3  C6  UNL     1       8.084  -5.794  -2.227  1.00  0.00     0.073 C
HETATM    4  C5  UNL     1       8.185  -7.111  -2.274  1.00  0.00     0.073 C
BRANCH   4   5
HETATM    5  C4  UNL     1       7.033  -7.965  -2.336  1.00  0.00    -0.078 C
HETATM    6  C3  UNL     1       6.052  -8.669  -2.386  1.00  0.00    -0.102 C
BRANCH   6   7
HETATM    7  C2  UNL     1       4.841  -9.504  -2.448  1.00  0.00     0.090 C
HETATM    8  C1  UNL     1       3.648  -8.714  -2.905  1.00  0.00     0.018 C
ENDBRANCH   6   7
ENDBRANCH   4   5
ENDBRANCH   1   3
BRANCH   2   9
HETATM    9  C9  UNL     1      11.340  -3.323  -2.069  1.00  0.00     0.165 C
HETATM   10  N1  UNL     1      11.367  -2.311  -2.849  1.00  0.00    -0.381 N
ATOM     11  H12 UNL     1      10.608  -2.095  -3.495  1.00  0.00     0.158 HD
ATOM     12  H11 UNL     1      12.183  -1.699  -2.819  1.00  0.00     0.158 HD
HETATM   13  N2  UNL     1      12.406  -3.625  -1.162  1.00  0.00    -0.073 NA
ENDBRANCH   2   9
TORSDOF 4
ENDMDL