MODEL 3
REMARK VINA RESULT: -4.743638928      2.210      4.635
REMARK  3 active torsions:
REMARK  status: ('A' for Active; 'I' for Inactive)
REMARK    1  A    between atoms: C2_2  and  N7_18
REMARK       I    between atoms: N1_3  and  C3_5
REMARK       I    between atoms: C3_5  and  N2_6
REMARK    2  A    between atoms: N2_6  and  N3_8
REMARK    3  A    between atoms: N5_13  and  N6_15
ROOT
HETATM    1  C1  UNL     1       7.863  -3.828  -0.262  1.00  0.00     0.091 C
HETATM    2  C2  UNL     1       8.426  -4.770  -1.282  1.00  0.00     0.107 C
HETATM    3  N1  UNL     1       8.500  -6.023  -1.011  1.00  0.00    -0.177 N
ATOM      4  H1  UNL     1       8.888  -6.637  -1.727  1.00  0.00     0.185 HD
HETATM    5  C3  UNL     1       8.089  -6.615   0.198  1.00  0.00     0.713 C
HETATM    6  N2  UNL     1       8.821  -6.284   1.373  1.00  0.00    -0.117 N
ATOM      7  H2  UNL     1       8.724  -5.358   1.789  1.00  0.00     0.207 HD
HETATM    8  N5  UNL     1       7.079  -7.429   0.220  1.00  0.00    -0.137 N
ATOM      9  H5  UNL     1       6.600  -7.624  -0.659  1.00  0.00     0.205 HD
ENDROOT
BRANCH   6  10
HETATM   10  N3  UNL     1       9.580  -7.123   1.893  1.00  0.00    -0.235 N
HETATM   11  N4  UNL     1      10.147  -7.630   2.885  1.00  0.00    -0.330 N
ATOM     12  H42 UNL     1       9.798  -7.047   3.646  1.00  0.00     0.178 HD
ATOM     13  H41 UNL     1      10.768  -8.317   3.311  1.00  0.00     0.178 HD
ATOM     14  H3  UNL     1       9.907  -7.684   1.107  1.00  0.00     0.208 HD
ENDBRANCH   6  10
BRANCH   8  15
HETATM   15  N6  UNL     1       6.618  -8.047   1.364  1.00  0.00    -0.331 N
ATOM     16  H62 UNL     1       7.304  -8.248   2.092  1.00  0.00     0.177 HD
ATOM     17  H61 UNL     1       5.643  -8.309   1.512  1.00  0.00     0.177 HD
ENDBRANCH   8  15
BRANCH   2  18
HETATM   18  N7  UNL     1       8.883  -4.334  -2.548  1.00  0.00    -0.295 N
HETATM   19  N8  UNL     1       9.568  -3.272  -2.595  1.00  0.00    -0.344 N
ATOM     20  H82 UNL     1       9.775  -2.757  -1.739  1.00  0.00     0.176 HD
ATOM     21  H81 UNL     1       9.898  -2.958  -3.508  1.00  0.00     0.176 HD
ATOM     22  H7  UNL     1       8.668  -4.860  -3.396  1.00  0.00     0.187 HD
ENDBRANCH   2  18
TORSDOF 3
ENDMDL