MODEL 2
REMARK VINA RESULT: -3.552114417      1.554      1.596
REMARK  1 active torsions:
REMARK  status: ('A' for Active; 'I' for Inactive)
REMARK       I    between atoms: N1_2  and  C2_4
REMARK       I    between atoms: C2_4  and  N3_10
REMARK    1  A    between atoms: N2_5  and  C3_7
ROOT
HETATM    1  C1  UNL     1       7.314  -7.304   0.477  1.00  0.00     0.165 C
HETATM    2  N1  UNL     1       8.701  -7.140   0.072  1.00  0.00    -0.231 N
ATOM      3  H1  UNL     1       9.020  -7.579  -0.792  1.00  0.00     0.177 HD
HETATM    4  C2  UNL     1       9.617  -6.391   0.836  1.00  0.00     0.673 C
HETATM    5  N2  UNL     1       9.734  -5.124   0.628  1.00  0.00    -0.186 N
ATOM      6  H2  UNL     1      10.402  -4.600   1.193  1.00  0.00     0.185 HD
HETATM    7  N3  UNL     1      10.448  -6.950   1.852  1.00  0.00    -0.231 N
ATOM      8  H3  UNL     1      10.214  -6.772   2.829  1.00  0.00     0.177 HD
HETATM    9  C5  UNL     1      11.609  -7.759   1.553  1.00  0.00     0.165 C
ENDROOT
BRANCH   5  10
HETATM   10  C3  UNL     1       8.986  -4.429  -0.337  1.00  0.00     0.090 C
HETATM   11  C4  UNL     1       7.713  -3.759   0.038  1.00  0.00     0.082 C
HETATM   12  S1  UNL     1       9.462  -4.318  -1.892  1.00  0.00    -0.065 SA
ENDBRANCH   5  10
TORSDOF 1
ENDMDL