MODEL 1
REMARK VINA RESULT: -4.251370461      0.000      0.000
REMARK  3 active torsions:
REMARK  status: ('A' for Active; 'I' for Inactive)
REMARK    1  A    between atoms: C2_4  and  N2_5
REMARK    2  A    between atoms: C2_4  and  C5_10
REMARK    3  A    between atoms: C5_10  and  N4_13
ROOT
HETATM    1  C1  UNL     1       8.066  -6.614   0.944  1.00  0.00     0.147 C
HETATM    2  N1  UNL     1       9.241  -5.840   0.890  1.00  0.00    -0.382 N
ATOM      3  H1  UNL     1       9.892  -6.020   1.655  1.00  0.00     0.160 HD
HETATM    4  C2  UNL     1       9.635  -4.970   0.075  1.00  0.00     0.113 C
ENDROOT
BRANCH   4   5
HETATM    5  N2  UNL     1      10.896  -4.370   0.317  1.00  0.00    -0.336 N
HETATM    6  C3  UNL     1      11.963  -5.081   0.432  1.00  0.00     0.090 C
HETATM    7  C4  UNL     1      13.300  -4.466   0.688  1.00  0.00     0.085 C
HETATM    8  N3  UNL     1      11.855  -6.475   0.313  1.00  0.00    -0.088 NA
ATOM      9  H2  UNL     1      10.960  -3.356   0.402  1.00  0.00     0.168 HD
ENDBRANCH   4   5
BRANCH   4  10
HETATM   10  C5  UNL     1       8.894  -4.516  -1.123  1.00  0.00     0.173 C
HETATM   11  C6  UNL     1       9.849  -3.710  -2.002  1.00  0.00     0.054 C
HETATM   12  C7  UNL     1       8.441  -5.694  -1.973  1.00  0.00     0.054 C
BRANCH  10  13
HETATM   13  N4  UNL     1       7.773  -3.669  -0.822  1.00  0.00    -0.064 N
ATOM     14  H43 UNL     1       6.970  -4.225  -0.532  1.00  0.00     0.275 HD
ATOM     15  H42 UNL     1       7.938  -3.146   0.038  1.00  0.00     0.275 HD
ATOM     16  H41 UNL     1       7.519  -3.040  -1.583  1.00  0.00     0.275 HD
ENDBRANCH  10  13
ENDBRANCH   4  10
TORSDOF 3
ENDMDL