MODEL 1
REMARK VINA RESULT: -4.232130978      0.000      0.000
REMARK  2 active torsions:
REMARK  status: ('A' for Active; 'I' for Inactive)
REMARK    1  A    between atoms: C2_2  and  N1_3
REMARK    2  A    between atoms: N4_8  and  C4_10
ROOT
HETATM    1  C1  UNL     1      10.032  -7.518  -0.412  1.00  0.00     0.089 C
HETATM    2  C2  UNL     1       9.081  -7.119   0.649  1.00  0.00     0.075 C
HETATM    3  N4  UNL     1       8.596  -5.947   0.691  1.00  0.00    -0.372 N
ATOM      4  H4  UNL     1       7.948  -5.747   1.452  1.00  0.00     0.161 HD
ENDROOT
BRANCH   2   5
HETATM    5  N1  UNL     1       8.705  -8.078   1.644  1.00  0.00    -0.323 N
HETATM    6  C3  UNL     1       7.470  -8.353   1.892  1.00  0.00     0.202 C
HETATM    7  N2  UNL     1       6.383  -7.754   1.225  1.00  0.00    -0.066 NA
HETATM    8  N3  UNL     1       7.194  -9.319   2.899  1.00  0.00    -0.066 NA
ATOM      9  H1  UNL     1       9.435  -8.558   2.171  1.00  0.00     0.169 HD
ENDBRANCH   2   5
BRANCH   3  10
HETATM   10  C4  UNL     1       8.865  -4.876  -0.221  1.00  0.00     0.020 C
HETATM   11  C5  UNL     1      10.260  -4.339  -0.102  1.00  0.00     0.037 C
HETATM   12  C6  UNL     1       7.939  -3.725   0.220  1.00  0.00     0.037 C
HETATM   13  C7  UNL     1       8.573  -5.216  -1.672  1.00  0.00     0.037 C
ENDBRANCH   3  10
TORSDOF 2
ENDMDL