MODEL 3
REMARK VINA RESULT: -3.972915254      2.729      4.505
REMARK  0 active torsions:
REMARK  status: ('A' for Active; 'I' for Inactive)
REMARK       I    between atoms: N1_2  and  C2_4
REMARK       I    between atoms: C2_4  and  N4_10
REMARK       I    between atoms: N2_5  and  C3_7
ROOT
HETATM    1  C1  UNL     1       7.796  -3.844  -0.107  1.00  0.00     0.165 C
HETATM    2  N1  UNL     1       8.618  -4.642   0.758  1.00  0.00    -0.230 N
ATOM      3  H1  UNL     1       8.599  -4.436   1.757  1.00  0.00     0.177 HD
HETATM    4  C2  UNL     1       9.451  -5.692   0.315  1.00  0.00     0.678 C
HETATM    5  N2  UNL     1       9.060  -6.833  -0.085  1.00  0.00    -0.144 N
ATOM      6  H2  UNL     1       9.788  -7.488  -0.373  1.00  0.00     0.188 HD
HETATM    7  C3  UNL     1       7.743  -7.290  -0.173  1.00  0.00     0.346 C
HETATM    8  N3  UNL     1       7.323  -8.086  -1.262  1.00  0.00    -0.039 NA
HETATM    9  O1  UNL     1       6.912  -7.000   0.713  1.00  0.00    -0.250 OA
HETATM   10  N4  UNL     1      10.870  -5.449   0.319  1.00  0.00    -0.227 N
HETATM   11  C4  UNL     1      11.712  -6.082   1.296  1.00  0.00     0.168 C
HETATM   12  C5  UNL     1      11.364  -4.547  -0.706  1.00  0.00     0.168 C
ENDROOT
TORSDOF 0
ENDMDL