MODEL 5
REMARK VINA RESULT: -4.192672178      6.304      8.489
REMARK  4 active torsions:
REMARK  status: ('A' for Active; 'I' for Inactive)
REMARK    1  A    between atoms: C1_2  and  C2_4
REMARK    2  A    between atoms: C3_5  and  C4_6
REMARK    3  A    between atoms: C5_7  and  C6_8
REMARK    4  A    between atoms: C7_9  and  C8_10
ROOT
HETATM    1  C4  UNL     1       9.283  -5.390   0.152  1.00  0.00     0.074 C
HETATM    2  C5  UNL     1       9.688  -5.415  -1.102  1.00  0.00     0.073 C
ENDROOT
BRANCH   2   3
HETATM    3  C6  UNL     1      10.556  -4.383  -1.587  1.00  0.00    -0.076 C
HETATM    4  C7  UNL     1      11.312  -3.514  -1.993  1.00  0.00    -0.067 C
BRANCH   4   5
HETATM    5  C8  UNL     1      12.239  -2.488  -2.482  1.00  0.00     0.290 A
HETATM    6  C9  UNL     1      13.522  -2.905  -2.958  1.00  0.00     0.279 A
HETATM    7  N1  UNL     1      13.465  -2.269  -1.646  1.00  0.00    -0.056 N
ATOM      8  H12 UNL     1      13.916  -1.474  -1.192  1.00  0.00     0.278 HD
ATOM      9  H11 UNL     1      13.764  -2.503  -0.699  1.00  0.00     0.278 HD
ENDBRANCH   4   5
ENDBRANCH   2   3
BRANCH   1  10
HETATM   10  C3  UNL     1       8.406  -6.443   0.628  1.00  0.00    -0.067 C
HETATM   11  C2  UNL     1       7.682  -7.331   1.009  1.00  0.00     0.009 C
BRANCH  11  12
HETATM   12  C1  UNL     1       6.822  -8.407   1.444  1.00  0.00     0.258 C
HETATM   13  O1  UNL     1       6.010  -8.869   0.602  1.00  0.00    -0.637 OA
HETATM   14  O2  UNL     1       6.865  -8.929   2.727  1.00  0.00    -0.637 OA
ENDBRANCH  11  12
ENDBRANCH   1  10
TORSDOF 4
ENDMDL