MODEL 3
REMARK VINA RESULT: -4.370681407      0.119      1.281
REMARK  1 active torsions:
REMARK  status: ('A' for Active; 'I' for Inactive)
REMARK       I    between atoms: C2_2  and  N1_4
REMARK       I    between atoms: C3_6  and  N3_8
REMARK    1  A    between atoms: N3_8  and  C4_10
ROOT
HETATM    1  C1  UNL     1       6.613 -10.337  -0.239  1.00  0.00     0.117 C
HETATM    2  C2  UNL     1       7.286  -9.934   1.022  1.00  0.00     0.220 C
HETATM    3  O1  UNL     1       7.189 -10.672   2.038  1.00  0.00    -0.274 OA
HETATM    4  N1  UNL     1       8.045  -8.746   1.145  1.00  0.00    -0.302 N
ATOM      5  H1  UNL     1       9.059  -8.822   1.218  1.00  0.00     0.171 HD
HETATM    6  C3  UNL     1       7.514  -7.576   1.170  1.00  0.00     0.191 C
HETATM    7  N2  UNL     1       6.100  -7.512   1.066  1.00  0.00    -0.063 NA
HETATM    8  N3  UNL     1       8.226  -6.360   1.291  1.00  0.00    -0.356 N
ATOM      9  H3  UNL     1       8.268  -5.923   2.212  1.00  0.00     0.163 HD
ENDROOT
BRANCH   8  10
HETATM   10  C4  UNL     1       8.894  -5.700   0.206  1.00  0.00     0.021 C
HETATM   11  C5  UNL     1      10.399  -5.660   0.382  1.00  0.00     0.037 C
HETATM   12  C6  UNL     1       8.633  -6.461  -1.078  1.00  0.00     0.037 C
HETATM   13  C7  UNL     1       8.431  -4.283  -0.013  1.00  0.00     0.037 C
ENDBRANCH   8  10
TORSDOF 1
ENDMDL