MODEL 3
REMARK VINA RESULT: -4.273265084      3.739      5.521
REMARK  3 active torsions:
REMARK  status: ('A' for Active; 'I' for Inactive)
REMARK    1  A    between atoms: C3_3  and  O1_5
REMARK    2  A    between atoms: C3_3  and  C5_7
REMARK    3  A    between atoms: C6_8  and  C7_9
ROOT
HETATM    1  C1  UNL     1      11.402  -4.325  -1.007  1.00  0.00     0.016 C
HETATM    2  C2  UNL     1      10.338  -4.772  -0.650  1.00  0.00    -0.066 C
HETATM    3  C3  UNL     1       9.045  -5.338  -0.220  1.00  0.00     0.181 C
HETATM    4  C4  UNL     1       8.078  -4.182  -0.136  1.00  0.00     0.075 C
ENDROOT
BRANCH   3   5
HETATM    5  O1  UNL     1       9.133  -5.936   1.032  1.00  0.00    -0.367 OA
ATOM      6  H1  UNL     1       8.486  -6.623   1.142  1.00  0.00     0.212 HD
ENDBRANCH   3   5
BRANCH   3   7
HETATM    7  C5  UNL     1       8.524  -6.261  -1.238  1.00  0.00    -0.053 C
HETATM    8  C6  UNL     1       8.100  -7.031  -2.060  1.00  0.00    -0.067 C
BRANCH   8   9
HETATM    9  C7  UNL     1       7.601  -7.981  -3.053  1.00  0.00     0.257 A
HETATM   10  N1  UNL     1       6.232  -8.364  -2.942  1.00  0.00    -0.335 N
HETATM   11  C8  UNL     1       6.634  -7.470  -4.052  1.00  0.00     0.254 A
ATOM     12  H1  UNL     1       5.502  -8.881  -2.451  1.00  0.00     0.164 HD
HETATM   13  O2  UNL     1       6.276  -6.823  -5.052  1.00  0.00    -0.270 OA
ENDBRANCH   8   9
ENDBRANCH   3   7
TORSDOF 3
ENDMDL