MODEL 4
REMARK VINA RESULT: -5.741674241      1.237      1.461
REMARK  0 active torsions:
REMARK  status: ('A' for Active; 'I' for Inactive)
ROOT
HETATM    1  F1  UNL     1       4.000 -26.981 -32.036  1.00  0.00    -0.243 F
HETATM    2  C1  UNL     1       4.308 -28.053 -32.823  1.00  0.00     0.222 C
HETATM    3  C2  UNL     1       5.099 -27.643 -34.070  1.00  0.00     0.044 C
HETATM    4  C3  UNL     1       5.114 -28.868 -34.964  1.00  0.00     0.008 C
HETATM    5  C4  UNL     1       6.004 -29.936 -34.337  1.00  0.00     0.044 C
HETATM    6  C5  UNL     1       5.889 -29.946 -32.867  1.00  0.00     0.017 A
HETATM    7  C6  UNL     1       5.107 -29.080 -32.143  1.00  0.00     0.076 A
HETATM    8  N1  UNL     1       5.228 -29.357 -30.835  1.00  0.00    -0.261 N
ATOM      9  H1  UNL     1       4.766 -28.879 -30.062  1.00  0.00     0.194 HD
HETATM   10  O1  UNL     1       6.053 -30.355 -30.753  1.00  0.00    -0.225 OA
HETATM   11  C7  UNL     1       6.480 -30.749 -31.924  1.00  0.00     0.173 A
HETATM   12  S1  UNL     1       7.531 -31.980 -32.228  1.00  0.00    -0.050 SA
ENDROOT
TORSDOF 0
ENDMDL