MODEL 4
REMARK VINA RESULT: -5.807885115      2.152      4.312
REMARK  0 active torsions:
REMARK  status: ('A' for Active; 'I' for Inactive)
ROOT
HETATM    1  N1  UNL     1       9.255 -29.841 -34.256  1.00  0.00    -0.088 NA
HETATM    2  C1  UNL     1       7.846 -29.926 -34.376  1.00  0.00     0.089 C
HETATM    3  N2  UNL     1       7.035 -28.979 -34.234  1.00  0.00    -0.373 N
ATOM      4  H2  UNL     1       7.414 -28.058 -34.011  1.00  0.00     0.161 HD
HETATM    5  C2  UNL     1       5.606 -29.102 -34.365  1.00  0.00     0.031 C
HETATM    6  C3  UNL     1       5.015 -28.028 -33.507  1.00  0.00     0.031 C
HETATM    7  C4  UNL     1       3.924 -27.216 -34.100  1.00  0.00     0.002 C
HETATM    8  C5  UNL     1       4.454 -26.733 -35.460  1.00  0.00     0.000 C
HETATM    9  C6  UNL     1       4.412 -27.965 -36.312  1.00  0.00     0.002 C
HETATM   10  C7  UNL     1       5.281 -29.047 -35.814  1.00  0.00     0.031 C
HETATM   11  C8  UNL     1       5.149 -30.427 -33.811  1.00  0.00     0.031 C
HETATM   12  C9  UNL     1       6.194 -31.468 -33.641  1.00  0.00     0.010 C
HETATM   13  C10 UNL     1       7.263 -31.273 -34.691  1.00  0.00     0.073 C
ENDROOT
TORSDOF 0
ENDMDL