MODEL 5
REMARK VINA RESULT: -4.719609766      3.463      4.753
REMARK  0 active torsions:
REMARK  status: ('A' for Active; 'I' for Inactive)
ROOT
HETATM    1  N1  UNL     1       6.815 -31.527 -30.928  1.00  0.00    -0.404 N
ATOM      2  H11 UNL     1       6.603 -30.613 -30.529  1.00  0.00     0.155 HD
ATOM      3  H12 UNL     1       6.972 -32.345 -30.340  1.00  0.00     0.155 HD
HETATM    4  C1  UNL     1       6.886 -31.643 -32.199  1.00  0.00    -0.001 C
HETATM    5  C2  UNL     1       7.192 -32.958 -32.772  1.00  0.00     0.055 C
HETATM    6  C3  UNL     1       7.847 -32.945 -34.096  1.00  0.00     0.026 C
HETATM    7  C4  UNL     1       7.733 -31.691 -34.880  1.00  0.00     0.084 C
HETATM    8 CL1  UNL     1       9.105 -31.652 -36.041  1.00  0.00    -0.125 Cl
HETATM    9  C5  UNL     1       7.795 -30.437 -34.079  1.00  0.00     0.047 C
HETATM   10  C6  UNL     1       6.655 -30.437 -33.067  1.00  0.00     0.056 A
HETATM   11  C7  UNL     1       6.496 -29.114 -32.300  1.00  0.00     0.101 A
HETATM   12  S1  UNL     1       5.218 -29.687 -33.323  1.00  0.00    -0.150 SA
ENDROOT
TORSDOF 0
ENDMDL