MODEL 5
REMARK VINA RESULT: -5.038895691      1.745      2.522
REMARK  0 active torsions:
REMARK  status: ('A' for Active; 'I' for Inactive)
ROOT
HETATM    1  C1  UNL     1       7.298 -32.956 -34.532  1.00  0.00     0.031 C
HETATM    2  C2  UNL     1       8.302 -34.045 -34.755  1.00  0.00     0.049 C
HETATM    3  C3  UNL     1       8.920 -34.397 -33.470  1.00  0.00     0.069 C
HETATM    4  N1  UNL     1       9.414 -34.683 -32.448  1.00  0.00    -0.196 NA
HETATM    5  C4  UNL     1       7.698 -35.310 -35.315  1.00  0.00     0.057 C
HETATM    6  C5  UNL     1       7.211 -35.153 -36.722  1.00  0.00     0.188 C
HETATM    7  C6  UNL     1       7.771 -36.214 -37.658  1.00  0.00     0.033 C
HETATM    8  C7  UNL     1       9.272 -36.215 -37.643  1.00  0.00     0.004 C
HETATM    9  C8  UNL     1       9.825 -34.846 -37.826  1.00  0.00     0.033 C
HETATM   10  C9  UNL     1       9.051 -33.764 -37.138  1.00  0.00     0.188 C
HETATM   11  C10 UNL     1       9.409 -33.597 -35.686  1.00  0.00     0.057 C
HETATM   12  N2  UNL     1       7.627 -33.875 -37.296  1.00  0.00    -0.067 N
ATOM     13  H21 UNL     1       7.122 -33.082 -36.901  1.00  0.00     0.278 HD
ATOM     14  H22 UNL     1       7.326 -33.760 -38.263  1.00  0.00     0.278 HD
ENDROOT
TORSDOF 0
ENDMDL