MODEL 1
REMARK VINA RESULT: -5.537300818      0.000      0.000
REMARK  0 active torsions:
REMARK  status: ('A' for Active; 'I' for Inactive)
ROOT
HETATM    1  C1  UNL     1       8.299 -30.000 -34.327  1.00  0.00     0.018 C
HETATM    2  C2  UNL     1       7.187 -31.023 -34.057  1.00  0.00    -0.007 C
HETATM    3  C3  UNL     1       5.937 -30.425 -34.721  1.00  0.00     0.018 C
HETATM    4  C4  UNL     1       6.930 -31.029 -32.600  1.00  0.00     0.095 C
HETATM    5  C5  UNL     1       7.583 -32.114 -31.850  1.00  0.00     0.113 C
HETATM    6  N1  UNL     1       7.578 -32.092 -30.581  1.00  0.00    -0.383 N
ATOM      7  H11 UNL     1       8.031 -32.844 -30.061  1.00  0.00     0.157 HD
ATOM      8  H12 UNL     1       7.126 -31.329 -30.078  1.00  0.00     0.157 HD
HETATM    9  O1  UNL     1       8.186 -33.131 -32.520  1.00  0.00    -0.326 OA
HETATM   10  C6  UNL     1       8.004 -33.411 -33.871  1.00  0.00     0.093 C
HETATM   11  C7  UNL     1       7.044 -34.608 -33.939  1.00  0.00     0.049 C
HETATM   12  C8  UNL     1       9.351 -33.976 -34.350  1.00  0.00     0.049 C
HETATM   13  C9  UNL     1       7.515 -32.298 -34.707  1.00  0.00     0.212 C
HETATM   14  F1  UNL     1       8.495 -32.067 -35.689  1.00  0.00    -0.245 F
ENDROOT
TORSDOF 0
ENDMDL