MODEL 3
REMARK VINA RESULT: -4.261966379      2.570      3.177
REMARK  0 active torsions:
REMARK  status: ('A' for Active; 'I' for Inactive)
ROOT
HETATM    1  C1  UNL     1       8.391 -32.555 -31.525  1.00  0.00     0.021 C
HETATM    2  C2  UNL     1       7.177 -32.094 -32.290  1.00  0.00    -0.011 C
HETATM    3  C3  UNL     1       6.374 -33.315 -32.748  1.00  0.00     0.021 C
HETATM    4  C4  UNL     1       6.447 -31.094 -31.643  1.00  0.00     0.065 C
HETATM    5  N1  UNL     1       5.723 -30.503 -30.673  1.00  0.00    -0.393 N
ATOM      6  H1  UNL     1       5.453 -30.859 -29.756  1.00  0.00     0.159 HD
HETATM    7  C5  UNL     1       5.419 -29.167 -31.317  1.00  0.00     0.199 C
HETATM    8  S1  UNL     1       6.173 -28.960 -32.916  1.00  0.00    -0.102 SA
HETATM    9  C6  UNL     1       6.838 -30.145 -33.932  1.00  0.00     0.050 C
HETATM   10 CL1  UNL     1       5.561 -30.652 -35.125  1.00  0.00    -0.081 Cl
HETATM   11  C7  UNL     1       7.604 -31.387 -33.619  1.00  0.00     0.072 C
ENDROOT
TORSDOF 0
ENDMDL