MODEL 3
REMARK VINA RESULT: -4.487406365      3.059      3.752
REMARK  1 active torsions:
REMARK  status: ('A' for Active; 'I' for Inactive)
REMARK    1  A    between atoms: O1_1  and  N1_3
ROOT
HETATM    1  N1  UNL     1       6.146 -31.069 -30.929  1.00  0.00    -0.276 N
ATOM      2  H1  UNL     1       6.187 -32.061 -30.691  1.00  0.00     0.193 HD
HETATM    3  C1  UNL     1       6.611 -30.713 -32.073  1.00  0.00     0.024 C
HETATM    4  C2  UNL     1       7.203 -31.631 -33.071  1.00  0.00     0.056 C
HETATM    5  C3  UNL     1       8.037 -30.767 -33.974  1.00  0.00     0.007 C
HETATM    6  C4  UNL     1       7.568 -29.346 -33.793  1.00  0.00     0.022 C
HETATM    7  C5  UNL     1       6.641 -29.330 -32.602  1.00  0.00     0.105 C
HETATM    8 BR1  UNL     1       4.870 -28.717 -33.090  1.00  0.00    -0.085 Br
ENDROOT
BRANCH   1   9
HETATM    9  O1  UNL     1       5.604 -30.229 -30.015  1.00  0.00    -0.290 OA
ATOM     10  H1  UNL     1       5.631 -30.357 -29.074  1.00  0.00     0.244 HD
ENDBRANCH   1   9
TORSDOF 1
ENDMDL