MODEL 5
REMARK VINA RESULT: -5.223238449      2.688      3.730
REMARK  0 active torsions:
REMARK  status: ('A' for Active; 'I' for Inactive)
ROOT
HETATM    1  C1  UNL     1       4.018 -27.384 -35.572  1.00  0.00     0.015 C
HETATM    2  C2  UNL     1       4.775 -27.293 -34.241  1.00  0.00    -0.041 C
HETATM    3  C3  UNL     1       4.961 -25.824 -33.916  1.00  0.00     0.015 C
HETATM    4  C4  UNL     1       3.949 -27.967 -33.214  1.00  0.00     0.062 C
HETATM    5  C5  UNL     1       4.669 -28.730 -32.202  1.00  0.00    -0.000 C
HETATM    6  N1  UNL     1       4.086 -29.078 -31.116  1.00  0.00    -0.404 N
ATOM      7  H11 UNL     1       4.590 -29.611 -30.408  1.00  0.00     0.155 HD
ATOM      8  H12 UNL     1       3.112 -28.809 -30.979  1.00  0.00     0.155 HD
HETATM    9  C6  UNL     1       6.079 -29.120 -32.399  1.00  0.00     0.156 C
HETATM   10  C7  UNL     1       6.430 -30.354 -31.708  1.00  0.00     0.071 C
HETATM   11  N2  UNL     1       6.709 -31.333 -31.179  1.00  0.00    -0.196 NA
HETATM   12  C8  UNL     1       6.261 -29.281 -33.897  1.00  0.00     0.106 C
HETATM   13 CL1  UNL     1       5.023 -30.327 -34.592  1.00  0.00    -0.123 Cl
HETATM   14  C9  UNL     1       6.130 -27.892 -34.477  1.00  0.00     0.030 C
ENDROOT
TORSDOF 0
ENDMDL