MODEL 4
REMARK VINA RESULT: -3.789912035      1.804      1.962
REMARK  0 active torsions:
REMARK  status: ('A' for Active; 'I' for Inactive)
ROOT
HETATM    1  S1  UNL     1       8.406 -32.801 -35.707  1.00  0.00    -0.085 SA
HETATM    2  C1  UNL     1       9.090 -33.952 -36.146  1.00  0.00     0.038 C
HETATM    3  C2  UNL     1       9.059 -35.171 -35.268  1.00  0.00     0.217 C
HETATM    4 CL1  UNL     1       7.382 -35.803 -35.454  1.00  0.00    -0.097 Cl
HETATM    5  N1  UNL     1      10.030 -36.125 -35.642  1.00  0.00    -0.388 N
ATOM      6  H1  UNL     1      10.202 -36.956 -35.077  1.00  0.00     0.156 HD
HETATM    7  C3  UNL     1      10.749 -35.883 -36.825  1.00  0.00     0.142 C
HETATM    8  C4  UNL     1      11.255 -34.503 -37.031  1.00  0.00     0.056 C
HETATM    9  C5  UNL     1       9.845 -34.064 -37.413  1.00  0.00     0.095 C
HETATM   10  S2  UNL     1       9.603 -35.671 -38.208  1.00  0.00    -0.134 SA
ENDROOT
TORSDOF 0
ENDMDL