MODEL 5
REMARK VINA RESULT: -5.492198477      3.330      3.782
REMARK  0 active torsions:
REMARK  status: ('A' for Active; 'I' for Inactive)
ROOT
HETATM    1  F1  UNL     1       4.107 -27.445 -31.827  1.00  0.00    -0.242 F
HETATM    2  C1  UNL     1       5.108 -28.074 -32.497  1.00  0.00     0.229 C
HETATM    3  C2  UNL     1       4.656 -28.589 -33.870  1.00  0.00     0.044 C
HETATM    4  C3  UNL     1       5.920 -28.857 -34.659  1.00  0.00     0.008 C
HETATM    5  C4  UNL     1       6.885 -29.725 -33.922  1.00  0.00     0.044 C
HETATM    6  C5  UNL     1       6.464 -30.089 -32.548  1.00  0.00     0.016 A
HETATM    7  C6  UNL     1       5.588 -29.308 -31.796  1.00  0.00     0.119 A
HETATM    8  O1  UNL     1       5.422 -29.884 -30.657  1.00  0.00    -0.238 OA
HETATM    9  N1  UNL     1       6.096 -30.988 -30.539  1.00  0.00    -0.249 N
ATOM     10  H1  UNL     1       6.120 -31.609 -29.730  1.00  0.00     0.196 HD
HETATM   11  C7  UNL     1       6.757 -31.146 -31.698  1.00  0.00     0.130 A
HETATM   12  S1  UNL     1       7.759 -32.401 -32.056  1.00  0.00    -0.058 SA
ENDROOT
TORSDOF 0
ENDMDL