MODEL 3
REMARK VINA RESULT: -3.645395174      4.770      5.105
REMARK  2 active torsions:
REMARK  status: ('A' for Active; 'I' for Inactive)
REMARK    1  A    between atoms: C2_2  and  C3_3
REMARK    2  A    between atoms: C3_3  and  O1_4
ROOT
HETATM    1  C1  UNL     1       9.258 -33.817 -36.206  1.00  0.00     0.030 C
HETATM    2  C2  UNL     1       9.488 -35.274 -35.960  1.00  0.00     0.037 C
HETATM    3  C4  UNL     1       8.366 -35.911 -35.219  1.00  0.00     0.034 C
HETATM    4  C5  UNL     1       7.067 -35.637 -35.917  1.00  0.00     0.088 C
HETATM    5  S1  UNL     1       7.289 -36.339 -37.608  1.00  0.00    -0.097 SA
HETATM    6  S2  UNL     1       9.440 -36.074 -37.621  1.00  0.00    -0.086 SA
ENDROOT
BRANCH   2   7
HETATM    7  C3  UNL     1      10.769 -35.568 -35.256  1.00  0.00     0.185 C
BRANCH   7   8
HETATM    8  O1  UNL     1      10.902 -34.777 -34.137  1.00  0.00    -0.399 OA
ATOM      9  H1  UNL     1      10.748 -35.283 -33.348  1.00  0.00     0.209 HD
ENDBRANCH   7   8
ENDBRANCH   2   7
TORSDOF 2
ENDMDL