MODEL 4
REMARK VINA RESULT: -3.855385044      8.881      9.426
REMARK  1 active torsions:
REMARK  status: ('A' for Active; 'I' for Inactive)
REMARK    1  A    between atoms: C1_2  and  C2_4
ROOT
HETATM    1  C2  UNL     1       9.468 -35.374 -35.853  1.00  0.00     0.209 C
HETATM    2  S1  UNL     1      10.138 -35.990 -37.449  1.00  0.00    -0.142 SA
HETATM    3  C3  UNL     1       8.531 -36.277 -38.292  1.00  0.00     0.086 C
HETATM    4  C4  UNL     1       7.798 -34.946 -38.156  1.00  0.00     0.086 C
HETATM    5  S2  UNL     1       8.088 -34.374 -36.476  1.00  0.00    -0.142 SA
ENDROOT
BRANCH   1   6
HETATM    6  C1  UNL     1      10.464 -34.589 -35.143  1.00  0.00     0.197 C
HETATM    7  O1  UNL     1      10.821 -34.871 -33.984  1.00  0.00    -0.646 OA
HETATM    8  O2  UNL     1      11.033 -33.496 -35.772  1.00  0.00    -0.646 OA
ENDBRANCH   1   6
TORSDOF 1
ENDMDL