MODEL 1
REMARK VINA RESULT: -5.729387319      0.000      0.000
REMARK  2 active torsions:
REMARK  status: ('A' for Active; 'I' for Inactive)
REMARK    1  A    between atoms: O1_3  and  N2_4
REMARK    2  A    between atoms: C5_9  and  O2_10
ROOT
HETATM    1  N1  UNL     1       8.093 -32.683 -31.471  1.00  0.00    -0.162 NA
HETATM    2  C1  UNL     1       7.405 -31.753 -31.520  1.00  0.00     0.253 C
HETATM    3  O1  UNL     1       6.603 -30.628 -31.574  1.00  0.00    -0.159 OA
ENDROOT
BRANCH   3   4
HETATM    4  N2  UNL     1       6.576 -29.976 -32.788  1.00  0.00    -0.258 N
HETATM    5  C2  UNL     1       5.535 -29.345 -33.167  1.00  0.00     0.011 C
HETATM    6  C3  UNL     1       5.569 -28.662 -34.486  1.00  0.00     0.057 C
HETATM    7  C7  UNL     1       4.338 -29.295 -32.324  1.00  0.00     0.057 C
HETATM    8  C4  UNL     1       4.203 -27.986 -34.647  1.00  0.00     0.037 C
HETATM    9  C5  UNL     1       4.038 -27.072 -33.457  1.00  0.00     0.118 C
HETATM   10  C6  UNL     1       3.783 -27.881 -32.216  1.00  0.00     0.037 C
ATOM     11  H2  UNL     1       7.399 -29.999 -33.390  1.00  0.00     0.195 HD
BRANCH   9  12
HETATM   12  O2  UNL     1       3.033 -26.156 -33.710  1.00  0.00    -0.396 OA
ATOM     13  H2  UNL     1       3.002 -25.514 -33.011  1.00  0.00     0.210 HD
ENDBRANCH   9  12
ENDBRANCH   3   4
TORSDOF 2
ENDMDL