MODEL 5
REMARK VINA RESULT: -4.730458994      6.016      7.214
REMARK  1 active torsions:
REMARK  status: ('A' for Active; 'I' for Inactive)
REMARK    1  A    between atoms: C3_8  and  C4_9
ROOT
HETATM    1  N1  UNL     1       4.628 -29.332 -36.599  1.00  0.00    -0.195 NA
HETATM    2  C1  UNL     1       5.117 -29.611 -35.608  1.00  0.00     0.087 C
HETATM    3  C2  UNL     1       5.759 -29.952 -34.346  1.00  0.00     0.225 C
HETATM    4  N2  UNL     1       6.919 -29.172 -34.126  1.00  0.00    -0.320 N
ATOM      5  H2  UNL     1       7.534 -28.828 -34.863  1.00  0.00     0.181 HD
HETATM    6  N3  UNL     1       7.084 -28.966 -32.936  1.00  0.00    -0.328 N
ATOM      7  H3  UNL     1       7.862 -28.425 -32.559  1.00  0.00     0.180 HD
HETATM    8  C3  UNL     1       6.056 -29.573 -32.115  1.00  0.00     0.157 C
HETATM    9  C5  UNL     1       4.914 -29.582 -33.151  1.00  0.00     0.160 C
HETATM   10  C6  UNL     1       4.392 -28.247 -33.295  1.00  0.00     0.069 C
HETATM   11  N5  UNL     1       3.952 -27.171 -33.405  1.00  0.00    -0.197 NA
ENDROOT
BRANCH   8  12
HETATM   12  C4  UNL     1       6.361 -31.001 -31.826  1.00  0.00     0.081 C
HETATM   13  N4  UNL     1       6.490 -31.464 -30.638  1.00  0.00    -0.409 N
ATOM     14  H42 UNL     1       6.376 -30.809 -29.864  1.00  0.00     0.155 HD
ATOM     15  H41 UNL     1       6.699 -32.443 -30.440  1.00  0.00     0.155 HD
ENDBRANCH   8  12
TORSDOF 1
ENDMDL