MODEL 1
REMARK VINA RESULT: -4.394107756      0.000      0.000
REMARK  2 active torsions:
REMARK  status: ('A' for Active; 'I' for Inactive)
REMARK    1  A    between atoms: C2_3  and  C3_4
REMARK    2  A    between atoms: N2_6  and  O1_7
ROOT
HETATM    1  N1  UNL     1       4.920 -28.924 -29.666  1.00  0.00    -0.197 NA
HETATM    2  C1  UNL     1       4.757 -29.106 -30.815  1.00  0.00     0.060 C
HETATM    3  C2  UNL     1       4.577 -29.315 -32.229  1.00  0.00     0.140 C
ENDROOT
BRANCH   3   4
HETATM    4  C3  UNL     1       4.765 -28.060 -33.042  1.00  0.00     0.076 C
HETATM    5  C4  UNL     1       3.481 -27.265 -33.142  1.00  0.00     0.137 C
HETATM    6  N2  UNL     1       3.608 -26.383 -34.266  1.00  0.00    -0.189 NA
HETATM    7  C5  UNL     1       3.765 -27.192 -35.453  1.00  0.00     0.194 C
HETATM    8  S1  UNL     1       4.947 -28.456 -34.829  1.00  0.00    -0.145 SA
BRANCH   6   9
HETATM    9  O1  UNL     1       4.619 -25.522 -34.192  1.00  0.00    -0.312 OA
ATOM     10  H1  UNL     1       5.015 -25.297 -35.025  1.00  0.00     0.237 HD
ENDBRANCH   6   9
ENDBRANCH   3   4
TORSDOF 2
ENDMDL