MODEL 3
REMARK VINA RESULT: -4.440044942      1.568      1.855
REMARK  2 active torsions:
REMARK  status: ('A' for Active; 'I' for Inactive)
REMARK    1  A    between atoms: O1_1  and  N1_3
REMARK    2  A    between atoms: N1_3  and  N2_5
ROOT
HETATM    1  N2  UNL     1       7.526 -33.118 -32.699  1.00  0.00    -0.221 N
HETATM    2  C1  UNL     1       7.105 -34.155 -33.625  1.00  0.00     0.390 C
HETATM    3  N3  UNL     1       7.929 -34.022 -34.799  1.00  0.00    -0.057 N
ATOM      4  H31 UNL     1       7.973 -34.894 -35.326  1.00  0.00     0.279 HD
ATOM      5  H32 UNL     1       8.916 -33.935 -34.555  1.00  0.00     0.279 HD
HETATM    6  C2  UNL     1       7.484 -32.911 -35.639  1.00  0.00     0.235 C
HETATM    7  C3  UNL     1       8.229 -31.656 -35.384  1.00  0.00     0.039 C
HETATM    8  C4  UNL     1       7.579 -30.710 -34.423  1.00  0.00     0.101 C
HETATM    9  S1  UNL     1       7.163 -31.420 -32.843  1.00  0.00    -0.033 SA
ENDROOT
BRANCH   1  10
HETATM   10  N1  UNL     1       8.291 -33.505 -31.589  1.00  0.00    -0.201 N
ATOM     11  H1  UNL     1       8.171 -32.987 -30.719  1.00  0.00     0.216 HD
BRANCH  10  12
HETATM   12  O1  UNL     1       9.097 -34.434 -31.607  1.00  0.00    -0.274 OA
ATOM     13  H1  UNL     1      10.028 -34.320 -31.755  1.00  0.00     0.246 HD
ENDBRANCH  10  12
ENDBRANCH   1  10
TORSDOF 2
ENDMDL