MODEL 4
REMARK VINA RESULT: -5.107245137      1.481      1.625
REMARK  2 active torsions:
REMARK  status: ('A' for Active; 'I' for Inactive)
REMARK    1  A    between atoms: C2_2  and  C3_7
REMARK    2  A    between atoms: N1_3  and  O1_5
ROOT
HETATM    1  C3  UNL     1       8.490 -34.052 -34.909  1.00  0.00     0.112 C
HETATM    2  C4  UNL     1       9.837 -34.509 -34.597  1.00  0.00     0.077 C
HETATM    3  N2  UNL     1      10.916 -34.877 -34.351  1.00  0.00    -0.196 NA
HETATM    4  C5  UNL     1       8.035 -34.890 -36.114  1.00  0.00     0.059 C
HETATM    5  C6  UNL     1       8.688 -34.129 -37.239  1.00  0.00     0.169 C
HETATM    6  O2  UNL     1       9.274 -33.002 -36.711  1.00  0.00    -0.389 OA
HETATM    7  C7  UNL     1       8.523 -32.704 -35.548  1.00  0.00     0.198 C
ENDROOT
BRANCH   1   8
HETATM    8  C2  UNL     1       7.546 -34.221 -33.812  1.00  0.00     0.031 C
HETATM    9  C1  UNL     1       6.607 -33.064 -33.570  1.00  0.00     0.067 C
HETATM   10  N1  UNL     1       7.433 -35.239 -33.045  1.00  0.00    -0.276 N
ATOM     11  H1  UNL     1       6.724 -35.227 -32.311  1.00  0.00     0.193 HD
BRANCH  10  12
HETATM   12  O1  UNL     1       8.234 -36.345 -33.176  1.00  0.00    -0.290 OA
ATOM     13  H1  UNL     1       7.877 -37.217 -33.292  1.00  0.00     0.244 HD
ENDBRANCH  10  12
ENDBRANCH   1   8
TORSDOF 2
ENDMDL