MODEL 2
REMARK VINA RESULT: -4.687976127      0.711      1.321
REMARK  1 active torsions:
REMARK  status: ('A' for Active; 'I' for Inactive)
REMARK    1  A    between atoms: N1_4  and  C4_5
ROOT
HETATM    1  C4  UNL     1       6.288 -30.559 -32.830  1.00  0.00     0.101 C
HETATM    2  N2  UNL     1       6.148 -31.042 -31.644  1.00  0.00    -0.377 N
ATOM      3  H2  UNL     1       5.359 -30.800 -31.044  1.00  0.00     0.160 HD
HETATM    4  C5  UNL     1       7.195 -31.955 -31.222  1.00  0.00     0.148 C
HETATM    5  C6  UNL     1       7.538 -32.973 -32.286  1.00  0.00     0.252 C
HETATM    6  N3  UNL     1       7.435 -32.452 -33.634  1.00  0.00    -0.067 N
ATOM      7  H31 UNL     1       6.607 -32.794 -34.121  1.00  0.00     0.277 HD
ATOM      8  H32 UNL     1       8.141 -32.845 -34.256  1.00  0.00     0.277 HD
HETATM    9  C7  UNL     1       7.487 -31.004 -33.588  1.00  0.00     0.307 C
ENDROOT
BRANCH   1  10
HETATM   10  N1  UNL     1       5.399 -29.654 -33.454  1.00  0.00    -0.370 N
HETATM   11  C3  UNL     1       5.265 -29.490 -34.888  1.00  0.00     0.124 C
HETATM   12  C2  UNL     1       4.394 -28.268 -35.087  1.00  0.00     0.021 C
HETATM   13  C1  UNL     1       4.568 -27.541 -33.771  1.00  0.00     0.021 C
HETATM   14  C8  UNL     1       4.470 -28.735 -32.813  1.00  0.00     0.124 C
ENDBRANCH   1  10
TORSDOF 1
ENDMDL