MODEL 5
REMARK VINA RESULT: -3.362360951      1.146      1.146
REMARK  1 active torsions:
REMARK  status: ('A' for Active; 'I' for Inactive)
REMARK    1  A    between atoms: C1_4  and  N2_5
ROOT
HETATM    1  N2  UNL     1       7.216 -33.372 -32.316  1.00  0.00    -0.341 N
ATOM      2  H2  UNL     1       7.364 -34.290 -31.896  1.00  0.00     0.167 HD
HETATM    3  C2  UNL     1       7.645 -33.124 -33.506  1.00  0.00     0.131 A
HETATM    4  S1  UNL     1       7.679 -31.874 -34.621  1.00  0.00    -0.020 SA
HETATM    5  S2  UNL     1       8.664 -32.878 -36.045  1.00  0.00    -0.010 SA
HETATM    6  S3  UNL     1       8.479 -34.189 -34.533  1.00  0.00    -0.020 SA
ENDROOT
BRANCH   1   7
HETATM    7  C1  UNL     1       6.535 -32.359 -31.596  1.00  0.00     0.174 C
HETATM    8  N1  UNL     1       6.954 -31.887 -30.478  1.00  0.00    -0.395 N
ATOM      9  H12 UNL     1       7.821 -32.272 -30.103  1.00  0.00     0.156 HD
ATOM     10  H11 UNL     1       6.464 -31.158 -29.959  1.00  0.00     0.156 HD
ENDBRANCH   1   7
TORSDOF 1
ENDMDL