MODEL 2
REMARK VINA RESULT: -4.910341817      1.905      2.685
REMARK  2 active torsions:
REMARK  status: ('A' for Active; 'I' for Inactive)
REMARK    1  A    between atoms: C2_2  and  C3_3
REMARK    2  A    between atoms: C3_3  and  O1_4
ROOT
HETATM    1  C3  UNL     1       5.694 -29.388 -33.196  1.00  0.00     0.219 C
HETATM    2  O2  UNL     1       4.899 -30.505 -33.239  1.00  0.00    -0.195 OA
HETATM    3  O3  UNL     1       5.031 -31.083 -34.391  1.00  0.00    -0.226 OA
HETATM    4  C4  UNL     1       6.403 -31.007 -34.730  1.00  0.00     0.098 C
HETATM    5  C5  UNL     1       6.512 -31.201 -36.221  1.00  0.00     0.049 C
HETATM    6  C6  UNL     1       7.111 -32.049 -33.940  1.00  0.00     0.049 C
HETATM    7  C7  UNL     1       6.695 -29.597 -34.301  1.00  0.00     0.088 C
HETATM    8  C8  UNL     1       8.098 -29.334 -33.924  1.00  0.00     0.019 C
ENDROOT
BRANCH   1   9
HETATM    9  C2  UNL     1       4.947 -28.119 -33.450  1.00  0.00     0.033 C
HETATM   10  C1  UNL     1       4.666 -27.656 -34.633  1.00  0.00     0.012 C
ENDBRANCH   1   9
BRANCH   1  11
HETATM   11  O1  UNL     1       6.335 -29.226 -31.966  1.00  0.00    -0.360 OA
ATOM     12  H1  UNL     1       6.891 -28.460 -32.053  1.00  0.00     0.213 HD
ENDBRANCH   1  11
TORSDOF 2
ENDMDL