MODEL 1
REMARK VINA RESULT: -5.196296022      0.000      0.000
REMARK  2 active torsions:
REMARK  status: ('A' for Active; 'I' for Inactive)
REMARK    1  A    between atoms: C2_2  and  C3_3
REMARK    2  A    between atoms: C5_5  and  O1_6
ROOT
HETATM    1  C3  UNL     1       4.414 -28.349 -34.218  1.00  0.00     0.129 C
HETATM    2  C4  UNL     1       4.242 -28.322 -32.705  1.00  0.00     0.092 C
HETATM    3  C5  UNL     1       4.990 -29.560 -32.196  1.00  0.00     0.263 C
HETATM    4  O2  UNL     1       5.238 -30.375 -33.283  1.00  0.00    -0.326 OA
HETATM    5  C6  UNL     1       6.084 -29.822 -34.220  1.00  0.00     0.160 C
HETATM    6  C7  UNL     1       7.494 -30.034 -33.782  1.00  0.00     0.078 C
HETATM    7  C8  UNL     1       5.870 -30.520 -35.549  1.00  0.00     0.078 C
HETATM    8  O3  UNL     1       5.788 -28.458 -34.444  1.00  0.00    -0.350 OA
ENDROOT
BRANCH   1   9
HETATM    9  C2  UNL     1       3.844 -27.078 -34.789  1.00  0.00     0.028 C
HETATM   10  C1  UNL     1       3.833 -27.077 -36.279  1.00  0.00     0.007 C
ENDBRANCH   1   9
BRANCH   3  11
HETATM   11  O1  UNL     1       6.118 -29.122 -31.545  1.00  0.00    -0.371 OA
ATOM     12  H1  UNL     1       6.843 -29.662 -31.837  1.00  0.00     0.212 HD
ENDBRANCH   3  11
TORSDOF 2
ENDMDL