MODEL 2
REMARK VINA RESULT: -5.167663201      1.999      2.754
REMARK  2 active torsions:
REMARK  status: ('A' for Active; 'I' for Inactive)
REMARK    1  A    between atoms: O1_2  and  C2_3
REMARK    2  A    between atoms: C2_3  and  C5_7
ROOT
HETATM    1  C2  UNL     1       7.498 -30.061 -34.285  1.00  0.00     0.148 C
HETATM    2  C3  UNL     1       8.835 -29.292 -34.343  1.00  0.00     0.063 C
HETATM    3  C4  UNL     1       7.606 -31.048 -33.242  1.00  0.00     0.098 C
HETATM    4  N1  UNL     1       7.716 -31.845 -32.413  1.00  0.00    -0.194 NA
ENDROOT
BRANCH   1   5
HETATM    5  O1  UNL     1       7.486 -30.770 -35.515  1.00  0.00    -0.370 OA
HETATM    6  C1  UNL     1       8.742 -31.243 -35.827  1.00  0.00     0.204 C
ENDBRANCH   1   5
BRANCH   1   7
HETATM    7  C5  UNL     1       6.350 -29.165 -34.284  1.00  0.00     0.042 C
HETATM    8  C6  UNL     1       5.039 -29.528 -34.859  1.00  0.00    -0.006 C
HETATM    9  C7  UNL     1       4.377 -28.137 -34.923  1.00  0.00     0.005 C
HETATM   10  C10 UNL     1       4.565 -29.937 -33.494  1.00  0.00     0.010 C
HETATM   11  C8  UNL     1       4.762 -27.653 -33.507  1.00  0.00     0.005 C
HETATM   12  C9  UNL     1       5.563 -28.868 -33.054  1.00  0.00    -0.006 C
ENDBRANCH   1   7
TORSDOF 2
ENDMDL