MODEL 1
REMARK VINA RESULT: -3.793011829      0.000      0.000
REMARK  1 active torsions:
REMARK  status: ('A' for Active; 'I' for Inactive)
REMARK    1  A    between atoms: C2_2  and  C3_3
ROOT
HETATM    1  C3  UNL     1       4.987 -29.226 -33.971  1.00  0.00     0.130 C
HETATM    2  S1  UNL     1       5.358 -30.160 -35.492  1.00  0.00    -0.150 SA
HETATM    3  C4  UNL     1       6.617 -31.380 -35.020  1.00  0.00     0.076 C
HETATM    4  C5  UNL     1       7.953 -30.770 -34.778  1.00  0.00     0.020 C
HETATM    5  C6  UNL     1       7.966 -29.503 -34.017  1.00  0.00     0.076 C
HETATM    6  S2  UNL     1       6.502 -29.247 -32.979  1.00  0.00    -0.150 SA
ENDROOT
BRANCH   1   7
HETATM    7  C2  UNL     1       4.523 -27.859 -34.269  1.00  0.00    -0.011 C
HETATM    8  C1  UNL     1       4.102 -27.536 -35.480  1.00  0.00     0.009 C
ENDBRANCH   1   7
TORSDOF 1
ENDMDL