MODEL 2
REMARK VINA RESULT: -5.599272624      2.246      2.458
REMARK  2 active torsions:
REMARK  status: ('A' for Active; 'I' for Inactive)
REMARK    1  A    between atoms: O1_1  and  N1_3
REMARK    2  A    between atoms: C1_5  and  C2_6
ROOT
HETATM    1  C2  UNL     1       4.373 -27.410 -33.398  1.00  0.00     0.263 C
HETATM    2  C3  UNL     1       4.022 -27.309 -34.884  1.00  0.00     0.043 C
HETATM    3  C4  UNL     1       4.519 -28.597 -35.504  1.00  0.00     0.038 C
HETATM    4  C5  UNL     1       5.075 -29.331 -34.327  1.00  0.00     0.224 C
HETATM    5  C6  UNL     1       6.529 -28.988 -34.112  1.00  0.00     0.037 C
HETATM    6  C7  UNL     1       6.692 -29.337 -32.637  1.00  0.00     0.032 C
HETATM    7  C8  UNL     1       5.288 -29.199 -32.073  1.00  0.00     0.274 C
HETATM    8  N2  UNL     1       4.432 -28.826 -33.150  1.00  0.00     0.102 N
ENDROOT
BRANCH   1   9
HETATM    9  C1  UNL     1       3.257 -26.754 -32.665  1.00  0.00     0.122 C
HETATM   10  N1  UNL     1       3.248 -25.482 -32.488  1.00  0.00    -0.282 N
ATOM     11  H1  UNL     1       2.457 -25.088 -31.979  1.00  0.00     0.192 HD
BRANCH  10  12
HETATM   12  O1  UNL     1       4.198 -24.618 -32.918  1.00  0.00    -0.290 OA
ATOM     13  H1  UNL     1       4.036 -23.776 -33.326  1.00  0.00     0.244 HD
ENDBRANCH  10  12
ENDBRANCH   1   9
TORSDOF 2
ENDMDL