MODEL 2
REMARK VINA RESULT: -5.315676833      3.115      4.508
REMARK  2 active torsions:
REMARK  status: ('A' for Active; 'I' for Inactive)
REMARK    1  A    between atoms: C5_6  and  C6_7
REMARK    2  A    between atoms: N2_8  and  O1_10
ROOT
HETATM    1  C1  UNL     1       2.656 -26.334 -32.569  1.00  0.00     0.148 C
HETATM    2  N1  UNL     1       3.583 -27.411 -32.731  1.00  0.00    -0.398 N
HETATM    3  C2  UNL     1       4.594 -27.215 -33.689  1.00  0.00     0.121 C
HETATM    4  C3  UNL     1       4.736 -28.505 -34.505  1.00  0.00     0.021 C
HETATM    5  C4  UNL     1       4.854 -29.710 -33.613  1.00  0.00     0.012 C
HETATM    6  C5  UNL     1       5.831 -29.440 -32.490  1.00  0.00     0.031 C
HETATM    7  C7  UNL     1       5.274 -28.606 -31.399  1.00  0.00     0.054 C
HETATM    8  C8  UNL     1       3.865 -28.175 -31.595  1.00  0.00     0.058 C
ENDROOT
BRANCH   6   9
HETATM    9  C6  UNL     1       6.377 -30.737 -32.052  1.00  0.00     0.091 C
HETATM   10  N2  UNL     1       6.394 -30.985 -30.787  1.00  0.00    -0.284 N
ATOM     11  H2  UNL     1       6.029 -30.271 -30.157  1.00  0.00     0.192 HD
BRANCH  10  12
HETATM   12  O1  UNL     1       6.867 -32.139 -30.234  1.00  0.00    -0.291 OA
ATOM     13  H1  UNL     1       7.372 -32.792 -30.705  1.00  0.00     0.244 HD
ENDBRANCH  10  12
ENDBRANCH   6   9
TORSDOF 2
ENDMDL