MODEL 5
REMARK VINA RESULT: -4.616730936      1.963      2.977
REMARK  3 active torsions:
REMARK  status: ('A' for Active; 'I' for Inactive)
REMARK    1  A    between atoms: C2_2  and  O1_4
REMARK    2  A    between atoms: C2_2  and  O2_6
REMARK    3  A    between atoms: O2_6  and  C4_7
ROOT
HETATM    1  C4  UNL     1       6.228 -30.079 -33.100  1.00  0.00     0.263 C
HETATM    2  C5  UNL     1       5.779 -29.115 -32.022  1.00  0.00     0.061 C
HETATM    3  C6  UNL     1       4.309 -28.815 -32.335  1.00  0.00     0.007 C
HETATM    4  C7  UNL     1       4.339 -27.937 -33.572  1.00  0.00     0.026 C
HETATM    5  C8  UNL     1       5.192 -28.651 -34.600  1.00  0.00     0.171 C
HETATM    6  O3  UNL     1       5.500 -29.944 -34.250  1.00  0.00    -0.361 OA
ENDROOT
BRANCH   1   7
HETATM    7  O2  UNL     1       5.985 -31.379 -32.615  1.00  0.00    -0.326 OA
BRANCH   7   8
HETATM    8  C2  UNL     1       7.117 -32.181 -32.718  1.00  0.00     0.157 C
HETATM    9  C1  UNL     1       6.746 -33.562 -33.227  1.00  0.00     0.078 C
HETATM   10  C3  UNL     1       7.712 -32.309 -31.347  1.00  0.00     0.078 C
BRANCH   8  11
HETATM   11  O1  UNL     1       8.083 -31.628 -33.559  1.00  0.00    -0.366 OA
ATOM     12  H1  UNL     1       8.945 -31.784 -33.190  1.00  0.00     0.213 HD
ENDBRANCH   8  11
ENDBRANCH   7   8
ENDBRANCH   1   7
TORSDOF 3
ENDMDL