MODEL 1
REMARK VINA RESULT: -4.547878466      0.000      0.000
REMARK  2 active torsions:
REMARK  status: ('A' for Active; 'I' for Inactive)
REMARK    1  A    between atoms: C5_6  and  C6_7
REMARK    2  A    between atoms: C6_7  and  O2_8
ROOT
HETATM    1  C1  UNL     1       5.678 -30.053 -34.519  1.00  0.00     0.029 C
HETATM    2  C2  UNL     1       6.960 -30.585 -33.960  1.00  0.00     0.022 C
HETATM    3  C3  UNL     1       8.076 -29.580 -33.945  1.00  0.00     0.029 C
HETATM    4  C4  UNL     1       7.424 -31.813 -34.756  1.00  0.00     0.188 C
HETATM    5  O1  UNL     1       8.275 -32.603 -34.038  1.00  0.00    -0.381 OA
HETATM    6  C5  UNL     1       7.702 -33.499 -33.192  1.00  0.00     0.154 C
HETATM    7  C7  UNL     1       6.387 -33.017 -32.588  1.00  0.00     0.108 C
HETATM    8  S1  UNL     1       6.610 -31.229 -32.291  1.00  0.00    -0.155 SA
ENDROOT
BRANCH   6   9
HETATM    9  C6  UNL     1       7.451 -34.859 -33.777  1.00  0.00     0.196 C
BRANCH   9  10
HETATM   10  O2  UNL     1       8.007 -35.841 -32.963  1.00  0.00    -0.398 OA
ATOM     11  H2  UNL     1       7.325 -36.408 -32.621  1.00  0.00     0.209 HD
ENDBRANCH   9  10
ENDBRANCH   6   9
TORSDOF 2
ENDMDL