MODEL 1
REMARK VINA RESULT: -5.031335930      0.000      0.000
REMARK  1 active torsions:
REMARK  status: ('A' for Active; 'I' for Inactive)
REMARK    1  A    between atoms: C2_3  and  S1_4
ROOT
HETATM    1  N1  UNL     1       4.959 -29.525 -30.299  1.00  0.00    -0.195 NA
HETATM    2  C1  UNL     1       5.191 -29.281 -31.417  1.00  0.00     0.085 C
HETATM    3  C2  UNL     1       5.456 -28.992 -32.793  1.00  0.00     0.125 A
HETATM    4  C3  UNL     1       6.757 -29.023 -33.167  1.00  0.00     0.005 A
HETATM    5  C4  UNL     1       7.414 -29.447 -33.607  1.00  0.00    -0.028 A
HETATM    6  C5  UNL     1       7.779 -30.500 -34.357  1.00  0.00     0.027 A
HETATM    7  C6  UNL     1       6.216 -31.117 -34.330  1.00  0.00     0.007 A
HETATM    8  C7  UNL     1       5.175 -30.430 -33.582  1.00  0.00     0.041 A
ENDROOT
BRANCH   3   9
HETATM    9  S1  UNL     1       4.325 -27.782 -33.442  1.00  0.00    -0.056 SA
HETATM   10  S2  UNL     1       4.380 -27.862 -35.566  1.00  0.00    -0.011 SA
ENDBRANCH   3   9
TORSDOF 1
ENDMDL