MODEL 3
REMARK VINA RESULT: -5.208360928      2.601      3.214
REMARK  2 active torsions:
REMARK  status: ('A' for Active; 'I' for Inactive)
REMARK    1  A    between atoms: C5_6  and  C6_7
REMARK    2  A    between atoms: N1_8  and  O2_10
ROOT
HETATM    1  C1  UNL     1       8.189 -29.584 -34.132  1.00  0.00     0.040 C
HETATM    2  C2  UNL     1       6.709 -29.663 -34.236  1.00  0.00     0.122 C
HETATM    3  O1  UNL     1       6.154 -29.135 -33.075  1.00  0.00    -0.380 OA
HETATM    4  C3  UNL     1       6.297 -30.115 -32.092  1.00  0.00     0.127 C
HETATM    5  C4  UNL     1       5.245 -29.880 -31.028  1.00  0.00     0.040 C
HETATM    6  C5  UNL     1       6.082 -31.447 -32.797  1.00  0.00     0.061 C
HETATM    7  C7  UNL     1       6.160 -31.066 -34.237  1.00  0.00     0.022 C
HETATM    8  C8  UNL     1       6.902 -32.011 -35.103  1.00  0.00     0.013 C
ENDROOT
BRANCH   6   9
HETATM    9  C6  UNL     1       7.030 -32.474 -32.377  1.00  0.00     0.094 C
HETATM   10  N1  UNL     1       7.817 -32.350 -31.369  1.00  0.00    -0.284 N
ATOM     11  H1  UNL     1       7.767 -31.481 -30.840  1.00  0.00     0.192 HD
BRANCH  10  12
HETATM   12  O2  UNL     1       8.705 -33.282 -30.956  1.00  0.00    -0.291 OA
ATOM     13  H2  UNL     1       9.647 -33.224 -31.063  1.00  0.00     0.244 HD
ENDBRANCH  10  12
ENDBRANCH   6   9
TORSDOF 2
ENDMDL