MODEL 4
REMARK VINA RESULT: -5.685132249      3.563      6.045
REMARK  4 active torsions:
REMARK  status: ('A' for Active; 'I' for Inactive)
REMARK    1  A    between atoms: C2_2  and  C3_4
REMARK    2  A    between atoms: C7_9  and  C8_10
REMARK    3  A    between atoms: C8_10  and  N1_12
REMARK    4  A    between atoms: N1_12  and  C11_14
ROOT
HETATM    1  C8  UNL     1       6.198  12.418  44.635  1.00  0.00     0.116 C
HETATM    2  C9  UNL     1       7.671  12.405  44.236  1.00  0.00     0.037 C
ENDROOT
BRANCH   1   3
HETATM    3  C7  UNL     1       5.478  12.630  43.314  1.00  0.00     0.019 A
HETATM    4  C3  UNL     1       4.596  13.560  42.903  1.00  0.00     0.025 A
HETATM    5  C4  UNL     1       3.987  13.377  41.707  1.00  0.00     0.030 A
HETATM    6  C5  UNL     1       4.335  12.247  41.004  1.00  0.00    -0.020 A
HETATM    7  C6  UNL     1       3.819  11.788  39.649  1.00  0.00     0.056 C
HETATM    8  S1  UNL     1       5.481  11.495  42.016  1.00  0.00    -0.097 SA
BRANCH   4   9
HETATM    9  C2  UNL     1       4.406  14.841  43.662  1.00  0.00     0.156 C
HETATM   10  C1  UNL     1       3.504  14.932  44.817  1.00  0.00     0.097 C
HETATM   11  O1  UNL     1       5.025  15.868  43.311  1.00  0.00    -0.293 OA
ENDBRANCH   4   9
ENDBRANCH   1   3
BRANCH   1  12
HETATM   12  N1  UNL     1       5.774  11.127  45.074  1.00  0.00    -0.404 N
HETATM   13  C10 UNL     1       4.851  11.162  46.131  1.00  0.00     0.144 C
BRANCH  12  14
HETATM   14  C11 UNL     1       6.652  10.040  45.120  1.00  0.00     0.079 C
HETATM   15  C12 UNL     1       6.901   9.383  46.446  1.00  0.00     0.025 C
HETATM   16  C13 UNL     1       8.255   8.631  46.311  1.00  0.00     0.002 C
HETATM   17  C14 UNL     1       8.013   7.552  45.313  1.00  0.00     0.000 C
HETATM   18  C15 UNL     1       6.655   7.610  44.661  1.00  0.00     0.002 C
HETATM   19  C16 UNL     1       6.319   8.953  44.113  1.00  0.00     0.025 C
ENDBRANCH  12  14
ENDBRANCH   1  12
TORSDOF 4
ENDMDL