MODEL 2
REMARK VINA RESULT: -7.749408481      1.854      3.240
REMARK  5 active torsions:
REMARK  status: ('A' for Active; 'I' for Inactive)
REMARK    1  A    between atoms: C3_3  and  C4_4
REMARK    2  A    between atoms: C5_5  and  C6_6
REMARK    3  A    between atoms: C6_6  and  C7_8
REMARK       I    between atoms: N1_9  and  C8_11
REMARK    4  A    between atoms: C8_11  and  O3_13
REMARK    5  A    between atoms: O3_13  and  C9_14
ROOT
HETATM    1  C4  UNL     1       6.112  10.375  46.255  1.00  0.00     0.012 C
HETATM    2  C5  UNL     1       6.916   9.462  46.600  1.00  0.00     0.057 C
ENDROOT
BRANCH   2   3
HETATM    3  C6  UNL     1       8.012   8.639  46.250  1.00  0.00     0.187 C
HETATM    4  O1  UNL     1       9.146   8.521  46.737  1.00  0.00    -0.287 OA
BRANCH   3   5
HETATM    5  C7  UNL     1       7.830   7.710  45.075  1.00  0.00     0.148 C
HETATM    6  N1  UNL     1       8.800   6.945  44.762  1.00  0.00    -0.309 N
HETATM    7  C8  UNL     1       8.643   6.064  43.656  1.00  0.00     0.364 C
ATOM      8  H1  UNL     1       9.670   6.963  45.293  1.00  0.00     0.170 HD
HETATM    9  O2  UNL     1       9.461   5.108  43.448  1.00  0.00    -0.238 OA
BRANCH   7  10
HETATM   10  O3  UNL     1       7.604   6.186  42.744  1.00  0.00    -0.299 OA
BRANCH  10  11
HETATM   11  C9  UNL     1       7.841   6.523  41.377  1.00  0.00     0.125 C
HETATM   12  C10 UNL     1       7.124   7.816  41.030  1.00  0.00     0.040 C
HETATM   13  C11 UNL     1       7.189   5.420  40.554  1.00  0.00     0.040 C
ENDBRANCH  10  11
ENDBRANCH   7  10
ENDBRANCH   3   5
ENDBRANCH   2   3
BRANCH   1  14
HETATM   14  C3  UNL     1       5.675  11.283  45.268  1.00  0.00    -0.048 C
HETATM   15  C2  UNL     1       4.690  12.177  45.645  1.00  0.00    -0.077 C
HETATM   16  C1  UNL     1       4.123  12.193  47.002  1.00  0.00     0.044 C
HETATM   17  C17 UNL     1       4.142  13.140  44.669  1.00  0.00     0.034 C
HETATM   18  C16 UNL     1       5.141  13.784  43.769  1.00  0.00     0.005 C
HETATM   19  C15 UNL     1       6.366  12.972  43.589  1.00  0.00     0.014 C
HETATM   20  C12 UNL     1       6.097  11.475  43.890  1.00  0.00    -0.020 C
HETATM   21  C13 UNL     1       7.287  10.727  43.379  1.00  0.00     0.020 C
HETATM   22  C14 UNL     1       4.934  11.075  42.990  1.00  0.00     0.020 C
ENDBRANCH   1  14
TORSDOF 5
ENDMDL