MODEL 3
REMARK VINA RESULT: -7.855258131      0.998      1.427
REMARK  6 active torsions:
REMARK  status: ('A' for Active; 'I' for Inactive)
REMARK    1  A    between atoms: C2_2  and  N1_5
REMARK    2  A    between atoms: N1_5  and  C6_8
REMARK    3  A    between atoms: C6_8  and  O1_9
REMARK    4  A    between atoms: C6_8  and  C7_11
REMARK    5  A    between atoms: C10_14  and  C11_15
REMARK    6  A    between atoms: C12_16  and  C13_17
ROOT
HETATM    1  N1  UNL     1       8.653   6.861  43.097  1.00  0.00    -0.254 N
HETATM    2  C5  UNL     1       9.915   6.539  43.594  1.00  0.00     0.187 C
HETATM    3  N2  UNL     1      11.000   6.263  43.969  1.00  0.00    -0.172 NA
ENDROOT
BRANCH   1   4
HETATM    4  C2  UNL     1       8.509   6.934  41.610  1.00  0.00     0.039 C
HETATM    5  C1  UNL     1       7.101   6.585  41.197  1.00  0.00     0.039 C
HETATM    6  C3  UNL     1       8.854   8.307  41.133  1.00  0.00     0.039 C
HETATM    7  C4  UNL     1       9.445   5.914  41.009  1.00  0.00     0.039 C
ENDBRANCH   1   4
BRANCH   1   8
HETATM    8  C6  UNL     1       7.528   7.119  43.862  1.00  0.00     0.187 C
BRANCH   8   9
HETATM    9  O1  UNL     1       6.926   6.058  44.343  1.00  0.00    -0.343 OA
ATOM     10  H1  UNL     1       5.989   6.151  44.475  1.00  0.00     0.219 HD
ENDBRANCH   8   9
BRANCH   8  11
HETATM   11  C7  UNL     1       6.937   8.394  44.197  1.00  0.00     0.127 A
HETATM   12  C8  UNL     1       6.962   9.117  45.344  1.00  0.00     0.044 A
HETATM   13  C9  UNL     1       6.222  10.271  45.100  1.00  0.00     0.040 A
HETATM   14  C10 UNL     1       5.776  10.200  43.802  1.00  0.00     0.076 A
HETATM   15  O2  UNL     1       6.214   9.089  43.307  1.00  0.00    -0.306 OA
BRANCH  14  16
HETATM   16  C11 UNL     1       4.962  11.229  43.170  1.00  0.00     0.033 C
HETATM   17  C12 UNL     1       5.075  12.475  43.542  1.00  0.00    -0.019 C
BRANCH  17  18
HETATM   18  C13 UNL     1       4.252  13.511  42.902  1.00  0.00     0.008 C
HETATM   19  C14 UNL     1       4.060  13.233  41.419  1.00  0.00     0.008 C
HETATM   20  C15 UNL     1       3.461  14.583  40.998  1.00  0.00     0.001 C
HETATM   21  C16 UNL     1       4.482  15.530  41.577  1.00  0.00     0.001 C
HETATM   22  C17 UNL     1       4.941  14.869  42.849  1.00  0.00     0.008 C
ENDBRANCH  17  18
ENDBRANCH  14  16
ENDBRANCH   8  11
ENDBRANCH   1   8
TORSDOF 6
ENDMDL