MODEL 2
REMARK VINA RESULT: -7.727087457      0.934      1.320
REMARK  3 active torsions:
REMARK  status: ('A' for Active; 'I' for Inactive)
REMARK    1  A    between atoms: C4_4  and  C5_5
REMARK    2  A    between atoms: C5_5  and  N1_6
REMARK    3  A    between atoms: C7_8  and  C8_9
ROOT
HETATM    1  N1  UNL     1       7.318   8.738  42.722  1.00  0.00    -0.298 N
HETATM    2  C6  UNL     1       7.357  10.085  42.584  1.00  0.00     0.129 A
HETATM    3  C7  UNL     1       6.799  10.629  43.716  1.00  0.00     0.079 A
HETATM    4  O1  UNL     1       6.458   9.610  44.466  1.00  0.00    -0.264 OA
HETATM    5  C18 UNL     1       6.757   8.484  43.894  1.00  0.00     0.372 A
HETATM    6  O2  UNL     1       6.566   7.314  44.339  1.00  0.00    -0.238 OA
ENDROOT
BRANCH   3   7
HETATM    7  C8  UNL     1       6.607  12.062  44.053  1.00  0.00     0.053 C
HETATM    8  C9  UNL     1       6.582  12.228  45.555  1.00  0.00     0.012 C
HETATM    9  C10 UNL     1       5.150  12.121  45.992  1.00  0.00     0.002 C
HETATM   10  C11 UNL     1       4.361  12.452  44.756  1.00  0.00     0.010 C
HETATM   11  C12 UNL     1       5.299  12.629  43.614  1.00  0.00    -0.031 C
HETATM   12  C13 UNL     1       4.754  11.964  42.371  1.00  0.00     0.010 C
HETATM   13  C17 UNL     1       5.544  14.089  43.276  1.00  0.00     0.010 C
HETATM   14  C14 UNL     1       4.397  12.910  41.273  1.00  0.00     0.001 C
HETATM   15  C15 UNL     1       3.612  14.108  41.761  1.00  0.00     0.000 C
HETATM   16  C16 UNL     1       4.312  14.828  42.881  1.00  0.00     0.001 C
ENDBRANCH   3   7
BRANCH   1  17
HETATM   17  C5  UNL     1       7.824   7.829  41.715  1.00  0.00     0.161 C
BRANCH  17  18
HETATM   18  C4  UNL     1       9.193   7.395  41.943  1.00  0.00    -0.005 C
HETATM   19  C2  UNL     1       9.446   6.116  42.148  1.00  0.00    -0.090 C
HETATM   20  C1  UNL     1      10.842   5.611  42.389  1.00  0.00     0.042 C
HETATM   21  C3  UNL     1       8.351   5.112  42.148  1.00  0.00     0.042 C
ENDBRANCH  17  18
ENDBRANCH   1  17
TORSDOF 3
ENDMDL