MODEL 5
REMARK VINA RESULT: -5.911581484      2.376      4.454
REMARK  4 active torsions:
REMARK  status: ('A' for Active; 'I' for Inactive)
REMARK    1  A    between atoms: C3_3  and  C4_4
REMARK    2  A    between atoms: C11_12  and  O2_13
REMARK    3  A    between atoms: O2_13  and  C12_14
REMARK    4  A    between atoms: C12_14  and  C13_16
ROOT
HETATM    1  C1  UNL     1       7.066   5.742  43.568  1.00  0.00     0.017 C
HETATM    2  C2  UNL     1       7.568   6.822  43.018  1.00  0.00    -0.049 C
HETATM    3  C3  UNL     1       7.772   8.163  43.716  1.00  0.00     0.174 C
HETATM    4  O1  UNL     1       8.863   8.751  43.069  1.00  0.00    -0.366 OA
HETATM    5  C7  UNL     1       9.388   7.793  42.175  1.00  0.00     0.067 C
HETATM    6  C8  UNL     1      10.218   6.869  43.029  1.00  0.00     0.047 C
HETATM    7  C9  UNL     1      10.135   8.367  41.053  1.00  0.00     0.041 C
HETATM    8  C10 UNL     1       9.800   7.998  39.686  1.00  0.00     0.036 C
HETATM    9  C11 UNL     1       8.621   7.114  39.422  1.00  0.00     0.140 C
HETATM   10  C15 UNL     1       8.174   6.281  40.597  1.00  0.00    -0.011 C
HETATM   11  C16 UNL     1       6.804   5.740  40.222  1.00  0.00     0.018 C
HETATM   12  C17 UNL     1       9.077   5.096  40.739  1.00  0.00     0.018 C
HETATM   13  C18 UNL     1       8.085   7.194  41.707  1.00  0.00     0.061 C
ENDROOT
BRANCH   9  14
HETATM   14  O2  UNL     1       7.514   7.936  39.083  1.00  0.00    -0.315 OA
BRANCH  14  15
HETATM   15  C12 UNL     1       7.619   9.044  38.270  1.00  0.00     0.258 C
HETATM   16  O3  UNL     1       7.968   8.899  37.086  1.00  0.00    -0.265 OA
BRANCH  15  17
HETATM   17  C13 UNL     1       7.317  10.385  38.841  1.00  0.00     0.106 C
HETATM   18  C14 UNL     1       6.534  10.096  40.129  1.00  0.00     0.015 C
ENDBRANCH  15  17
ENDBRANCH  14  15
ENDBRANCH   9  14
BRANCH   3  19
HETATM   19  C4  UNL     1       7.936   8.036  45.149  1.00  0.00     0.005 C
HETATM   20  C5  UNL     1       7.436   8.943  45.973  1.00  0.00    -0.032 C
HETATM   21  C6  UNL     1       6.686  10.132  45.497  1.00  0.00     0.036 C
ENDBRANCH   3  19
TORSDOF 4
ENDMDL