MODEL 4
REMARK VINA RESULT: -7.880033499      2.181      3.898
REMARK  3 active torsions:
REMARK  status: ('A' for Active; 'I' for Inactive)
REMARK    1  A    between atoms: C10_11  and  C11_12
REMARK    2  A    between atoms: C12_13  and  O2_14
REMARK    3  A    between atoms: O2_14  and  C13_15
ROOT
HETATM    1  C1  UNL     1       5.921  10.314  43.806  1.00  0.00     0.015 C
HETATM    2  C2  UNL     1       5.503  11.514  44.049  1.00  0.00    -0.077 C
HETATM    3  C3  UNL     1       5.721  11.949  45.487  1.00  0.00     0.017 C
HETATM    4  C4  UNL     1       5.542  10.706  46.331  1.00  0.00     0.015 C
HETATM    5  C5  UNL     1       4.772  12.994  45.962  1.00  0.00     0.087 C
HETATM    6  C6  UNL     1       4.249  14.001  45.070  1.00  0.00     0.136 C
HETATM    7  O1  UNL     1       3.230  14.525  45.502  1.00  0.00    -0.297 OA
HETATM    8  C7  UNL     1       4.595  14.615  43.729  1.00  0.00     0.021 C
HETATM    9  C8  UNL     1       4.999  16.050  43.872  1.00  0.00     0.024 C
HETATM   10  C9  UNL     1       3.505  14.413  42.679  1.00  0.00     0.055 C
HETATM   11  C10 UNL     1       3.853  13.551  41.527  1.00  0.00    -0.052 C
HETATM   12  C15 UNL     1       4.612  12.424  41.767  1.00  0.00    -0.069 C
HETATM   13  C16 UNL     1       4.934  11.603  40.620  1.00  0.00     0.044 C
HETATM   14  C17 UNL     1       4.907  12.374  43.147  1.00  0.00     0.044 C
HETATM   15  C18 UNL     1       5.693  13.711  43.295  1.00  0.00     0.030 C
ENDROOT
BRANCH  11  16
HETATM   16  C11 UNL     1       3.443  13.818  40.128  1.00  0.00     0.032 C
HETATM   17  C12 UNL     1       2.807  14.913  39.846  1.00  0.00     0.146 C
BRANCH  17  18
HETATM   18  O2  UNL     1       2.366  15.303  38.617  1.00  0.00    -0.291 OA
BRANCH  18  19
HETATM   19  C13 UNL     1       2.646  16.369  37.857  1.00  0.00     0.259 C
HETATM   20  C14 UNL     1       2.375  16.311  36.366  1.00  0.00     0.126 C
HETATM   21  O3  UNL     1       3.128  17.403  38.371  1.00  0.00    -0.265 OA
ENDBRANCH  18  19
ENDBRANCH  17  18
ENDBRANCH  11  16
TORSDOF 3
ENDMDL