MODEL 3
REMARK VINA RESULT: -7.393201335      2.247      2.661
REMARK  3 active torsions:
REMARK  status: ('A' for Active; 'I' for Inactive)
REMARK    1  A    between atoms: C2_2  and  C3_4
REMARK    2  A    between atoms: C3_4  and  C4_5
REMARK    3  A    between atoms: C4_5  and  C5_6
ROOT
HETATM    1  C5  UNL     1       6.125  12.025  44.317  1.00  0.00     0.111 C
HETATM    2  C6  UNL     1       6.136  12.242  45.815  1.00  0.00     0.054 C
HETATM    3  C7  UNL     1       5.129  10.941  44.050  1.00  0.00     0.012 C
HETATM    4  C8  UNL     1       5.435   9.832  43.403  1.00  0.00     0.013 C
HETATM    5  C9  UNL     1       6.832   9.638  42.911  1.00  0.00     0.115 C
HETATM    6  C10 UNL     1       7.640   8.949  43.965  1.00  0.00     0.050 C
HETATM    7  C11 UNL     1       7.418   7.479  44.021  1.00  0.00    -0.015 C
HETATM    8  C12 UNL     1       8.467   6.875  44.940  1.00  0.00     0.010 C
HETATM    9  C13 UNL     1       7.356   6.804  42.697  1.00  0.00     0.013 C
HETATM   10  C14 UNL     1       7.664   7.707  41.532  1.00  0.00    -0.044 C
HETATM   11  C15 UNL     1       9.152   7.947  41.366  1.00  0.00     0.015 C
HETATM   12  C16 UNL     1       7.222   6.945  40.274  1.00  0.00     0.015 C
HETATM   13  C17 UNL     1       6.878   8.976  41.571  1.00  0.00     0.054 C
HETATM   14  O2  UNL     1       7.360  10.943  42.777  1.00  0.00    -0.224 OA
HETATM   15  O3  UNL     1       7.366  11.550  43.943  1.00  0.00    -0.225 OA
ENDROOT
BRANCH   1  16
HETATM   16  C4  UNL     1       5.731  13.275  43.573  1.00  0.00     0.052 C
BRANCH  16  17
HETATM   17  C3  UNL     1       4.340  13.255  43.052  1.00  0.00     0.081 C
BRANCH  17  18
HETATM   18  C2  UNL     1       3.621  14.493  43.454  1.00  0.00     0.123 C
HETATM   19  C1  UNL     1       3.545  14.910  44.903  1.00  0.00     0.091 C
HETATM   20  O1  UNL     1       3.093  15.169  42.606  1.00  0.00    -0.298 OA
ENDBRANCH  17  18
ENDBRANCH  16  17
ENDBRANCH   1  16
TORSDOF 3
ENDMDL