MODEL 5
REMARK VINA RESULT: -6.652573766      2.261      3.335
REMARK  4 active torsions:
REMARK  status: ('A' for Active; 'I' for Inactive)
REMARK    1  A    between atoms: C2_2  and  C3_3
REMARK    2  A    between atoms: C3_3  and  C4_4
REMARK    3  A    between atoms: C4_4  and  O2_6
REMARK    4  A    between atoms: O2_6  and  C5_7
ROOT
HETATM    1  C5  UNL     1       7.475   8.035  43.600  1.00  0.00     0.141 C
HETATM    2  C6  UNL     1       7.963   6.625  43.546  1.00  0.00     0.033 C
HETATM    3  C7  UNL     1       7.372   5.770  42.480  1.00  0.00     0.003 C
HETATM    4  C8  UNL     1       7.095   6.549  41.232  1.00  0.00     0.013 C
HETATM    5  C9  UNL     1       8.013   7.750  41.246  1.00  0.00     0.066 C
HETATM    6  C10 UNL     1       8.283   8.282  39.909  1.00  0.00     0.135 C
HETATM    7  O3  UNL     1       9.294   8.946  39.773  1.00  0.00    -0.297 OA
HETATM    8  C11 UNL     1       7.576   8.200  38.603  1.00  0.00     0.112 C
HETATM    9  C12 UNL     1       6.175   8.693  38.776  1.00  0.00    -0.081 C
HETATM   10  C13 UNL     1       5.280   8.129  37.731  1.00  0.00     0.043 C
HETATM   11  C14 UNL     1       5.571   9.513  39.645  1.00  0.00    -0.024 C
HETATM   12  C15 UNL     1       6.125  10.273  40.828  1.00  0.00     0.028 C
HETATM   13  C16 UNL     1       6.281   9.415  42.016  1.00  0.00     0.016 C
HETATM   14  C17 UNL     1       7.601   8.772  42.255  1.00  0.00    -0.007 C
HETATM   15  C18 UNL     1       8.681   9.822  42.355  1.00  0.00     0.018 C
ENDROOT
BRANCH   1  16
HETATM   16  O2  UNL     1       8.289   8.711  44.552  1.00  0.00    -0.315 OA
BRANCH  16  17
HETATM   17  C4  UNL     1       8.015   8.804  45.880  1.00  0.00     0.262 C
HETATM   18  O1  UNL     1       8.860   8.392  46.716  1.00  0.00    -0.265 OA
BRANCH  17  19
HETATM   19  C3  UNL     1       6.726   9.386  46.390  1.00  0.00     0.137 C
BRANCH  19  20
HETATM   20  C2  UNL     1       6.584  10.733  45.820  1.00  0.00    -0.027 C
HETATM   21  C1  UNL     1       5.548  11.144  45.137  1.00  0.00     0.007 C
ENDBRANCH  19  20
ENDBRANCH  17  19
ENDBRANCH  16  17
ENDBRANCH   1  16
TORSDOF 4
ENDMDL