MODEL 2
REMARK VINA RESULT: -7.128423240      0.424      1.341
REMARK  4 active torsions:
REMARK  status: ('A' for Active; 'I' for Inactive)
REMARK    1  A    between atoms: C2_2  and  C3_3
REMARK    2  A    between atoms: C3_3  and  C4_4
REMARK    3  A    between atoms: C4_4  and  C5_5
REMARK    4  A    between atoms: N1_12  and  C10_13
ROOT
HETATM    1  C3  UNL     1       5.462  11.953  44.888  1.00  0.00     0.154 A
HETATM    2  O1  UNL     1       6.836  12.232  44.854  1.00  0.00    -0.282 OA
HETATM    3  C9  UNL     1       7.521  11.270  44.124  1.00  0.00     0.375 A
HETATM    4  O2  UNL     1       8.759  11.294  43.904  1.00  0.00    -0.237 OA
HETATM    5  N1  UNL     1       6.631  10.261  43.664  1.00  0.00    -0.229 N
HETATM    6  C17 UNL     1       5.344  10.671  44.164  1.00  0.00     0.268 A
HETATM    7  O3  UNL     1       4.325   9.968  43.960  1.00  0.00    -0.269 OA
ENDROOT
BRANCH   1   8
HETATM    8  C2  UNL     1       5.141  11.704  46.379  1.00  0.00     0.044 C
HETATM    9  C1  UNL     1       3.814  12.251  46.756  1.00  0.00     0.009 C
ENDBRANCH   1   8
BRANCH   1  10
HETATM   10  C4  UNL     1       4.565  13.033  44.475  1.00  0.00     0.057 C
BRANCH  10  11
HETATM   11  C5  UNL     1       4.704  13.753  43.225  1.00  0.00    -0.048 C
HETATM   12  C6  UNL     1       5.779  14.789  43.119  1.00  0.00     0.014 C
HETATM   13  C7  UNL     1       4.823  12.862  42.005  1.00  0.00     0.014 C
HETATM   14  C8  UNL     1       3.390  14.531  42.964  1.00  0.00     0.014 C
ENDBRANCH  10  11
ENDBRANCH   1  10
BRANCH   5  15
HETATM   15  C10 UNL     1       6.966   9.124  42.892  1.00  0.00     0.021 C
HETATM   16  C11 UNL     1       7.125   8.008  43.622  1.00  0.00    -0.001 C
HETATM   17  C12 UNL     1       7.474   6.662  43.119  1.00  0.00     0.029 C
HETATM   18  C13 UNL     1       8.603   6.778  42.092  1.00  0.00     0.004 C
HETATM   19  C14 UNL     1       8.077   7.055  40.722  1.00  0.00     0.001 C
HETATM   20  C15 UNL     1       6.890   7.971  40.712  1.00  0.00     0.006 C
HETATM   21  C16 UNL     1       7.103   9.260  41.431  1.00  0.00     0.057 C
ENDBRANCH   5  15
TORSDOF 4
ENDMDL