MODEL 1
REMARK VINA RESULT: -8.139979546      0.000      0.000
REMARK  3 active torsions:
REMARK  status: ('A' for Active; 'I' for Inactive)
REMARK    1  A    between atoms: N1_8  and  C7_10
REMARK    2  A    between atoms: C7_10  and  C10_13
REMARK    3  A    between atoms: C10_13  and  C11_14
ROOT
HETATM    1  C1  UNL     1      10.527   5.094  40.375  1.00  0.00     0.015 C
HETATM    2  C2  UNL     1       9.584   6.044  41.124  1.00  0.00    -0.034 C
HETATM    3  C3  UNL     1       8.200   5.822  40.529  1.00  0.00     0.015 C
HETATM    4  C4  UNL     1      10.071   7.445  40.837  1.00  0.00     0.095 C
HETATM    5  C5  UNL     1       9.368   8.460  41.656  1.00  0.00     0.179 C
HETATM    6  O1  UNL     1       9.293   9.625  41.217  1.00  0.00    -0.291 OA
HETATM    7  C6  UNL     1       8.771   8.072  42.973  1.00  0.00     0.121 C
HETATM    8  N1  UNL     1       7.929   8.764  43.489  1.00  0.00    -0.376 N
ATOM      9  H1  UNL     1       7.751   9.568  42.887  1.00  0.00     0.160 HD
HETATM   10  C17 UNL     1       9.325   6.824  43.487  1.00  0.00     0.179 C
HETATM   11  O2  UNL     1       9.570   6.615  44.698  1.00  0.00    -0.291 OA
HETATM   12  C18 UNL     1       9.645   5.682  42.566  1.00  0.00     0.095 C
ENDROOT
BRANCH   8  13
HETATM   13  C7  UNL     1       7.091   8.857  44.645  1.00  0.00     0.023 C
HETATM   14  C8  UNL     1       7.926   8.868  45.886  1.00  0.00     0.038 C
HETATM   15  C9  UNL     1       6.278   7.541  44.707  1.00  0.00     0.038 C
BRANCH  13  16
HETATM   16  C10 UNL     1       6.197  10.011  44.483  1.00  0.00     0.034 C
BRANCH  16  17
HETATM   17  C11 UNL     1       6.444  11.357  44.975  1.00  0.00    -0.012 C
HETATM   18  C12 UNL     1       6.210  12.375  43.807  1.00  0.00     0.005 C
HETATM   19  C13 UNL     1       4.786  12.778  43.692  1.00  0.00     0.000 C
HETATM   20  C14 UNL     1       4.271  13.397  44.988  1.00  0.00     0.000 C
HETATM   21  C15 UNL     1       4.297  12.262  45.985  1.00  0.00     0.000 C
HETATM   22  C16 UNL     1       5.739  11.851  46.180  1.00  0.00     0.005 C
ENDBRANCH  16  17
ENDBRANCH  13  16
ENDBRANCH   8  13
TORSDOF 3
ENDMDL