MODEL 3
REMARK VINA RESULT: -7.401804741      1.318      2.456
REMARK  8 active torsions:
REMARK  status: ('A' for Active; 'I' for Inactive)
REMARK    1  A    between atoms: C2_2  and  N1_3
REMARK    2  A    between atoms: N1_3  and  C3_4
REMARK    3  A    between atoms: N1_3  and  C5_6
REMARK    4  A    between atoms: C5_6  and  C7_8
REMARK    5  A    between atoms: C7_8  and  N2_9
REMARK       I    between atoms: N2_9  and  C8_11
REMARK    6  A    between atoms: C8_11  and  C9_13
REMARK    7  A    between atoms: N3_18  and  O2_20
REMARK    8  A    between atoms: N4_22  and  C14_23
ROOT
HETATM    1  C9  UNL     1      33.237  49.168   1.083  1.00  0.00     0.189 C
HETATM    2  C10 UNL     1      34.404  49.627   1.899  1.00  0.00     0.021 C
HETATM    3  C11 UNL     1      35.501  48.535   1.912  1.00  0.00     0.013 C
HETATM    4  C12 UNL     1      33.942  49.750   3.296  1.00  0.00     0.085 C
HETATM    5  C13 UNL     1      32.547  49.182   3.269  1.00  0.00     0.106 C
HETATM    6  N3  UNL     1      31.725  49.283   4.254  1.00  0.00    -0.257 N
ATOM      7  H3  UNL     1      32.072  49.778   5.077  1.00  0.00     0.195 HD
HETATM    8  N4  UNL     1      32.334  48.568   2.015  1.00  0.00    -0.301 N
ENDROOT
BRANCH   8   9
HETATM    9  C14 UNL     1      31.383  47.510   1.711  1.00  0.00     0.153 A
HETATM   10  N5  UNL     1      30.414  47.435   0.836  1.00  0.00    -0.339 N
HETATM   11  C15 UNL     1      29.709  46.358   0.707  1.00  0.00     0.027 A
ATOM     12  H5  UNL     1      30.210  48.239   0.244  1.00  0.00     0.168 HD
HETATM   13  C16 UNL     1      30.020  45.298   1.522  1.00  0.00     0.027 A
HETATM   14  C23 UNL     1      28.549  46.120  -0.246  1.00  0.00     0.078 C
HETATM   15  S1  UNL     1      31.320  45.933   2.429  1.00  0.00    -0.055 SA
HETATM   16  C17 UNL     1      29.290  43.979   1.490  1.00  0.00     0.037 C
HETATM   17  C18 UNL     1      29.771  43.088   0.394  1.00  0.00     0.032 C
HETATM   18  C19 UNL     1      29.598  43.301   2.824  1.00  0.00     0.032 C
HETATM   19  S2  UNL     1      27.528  44.319   1.434  1.00  0.00    -0.145 SA
HETATM   20  C20 UNL     1      27.286  45.886   0.551  1.00  0.00     0.007 C
HETATM   21  C21 UNL     1      26.157  45.692  -0.432  1.00  0.00     0.027 C
HETATM   22  C22 UNL     1      26.956  47.019   1.466  1.00  0.00     0.027 C
ENDBRANCH   8   9
BRANCH   1  23
HETATM   23  C8  UNL     1      33.723  48.233   0.016  1.00  0.00     0.241 C
HETATM   24  N2  UNL     1      34.277  48.574  -1.207  1.00  0.00    -0.357 N
ATOM     25  H2  UNL     1      34.389  49.555  -1.465  1.00  0.00     0.162 HD
HETATM   26  O1  UNL     1      33.588  46.997   0.311  1.00  0.00    -0.271 OA
BRANCH  24  27
HETATM   27  C7  UNL     1      34.696  47.524  -2.121  1.00  0.00     0.147 C
BRANCH  27  28
HETATM   28  C5  UNL     1      33.656  47.341  -3.204  1.00  0.00     0.097 C
HETATM   29  C6  UNL     1      34.099  46.341  -4.255  1.00  0.00     0.034 C
BRANCH  28  30
HETATM   30  N1  UNL     1      33.073  48.486  -3.727  1.00  0.00    -0.388 N
BRANCH  30  31
HETATM   31  C2  UNL     1      33.583  49.258  -4.746  1.00  0.00     0.054 C
HETATM   32  C1  UNL     1      32.928  49.337  -6.069  1.00  0.00     0.054 C
ENDBRANCH  30  31
BRANCH  30  33
HETATM   33  C3  UNL     1      31.792  48.859  -3.204  1.00  0.00     0.118 C
HETATM   34  C4  UNL     1      31.043  47.616  -2.786  1.00  0.00     0.026 C
ENDBRANCH  30  33
ENDBRANCH  28  30
ENDBRANCH  27  28
ENDBRANCH  24  27
ENDBRANCH   1  23
BRANCH   6  35
HETATM   35  O2  UNL     1      30.469  48.818   4.334  1.00  0.00    -0.288 OA
ATOM     36  H2  UNL     1      30.093  48.260   5.005  1.00  0.00     0.244 HD
ENDBRANCH   6  35
TORSDOF 8
ENDMDL