MODEL 5
REMARK VINA RESULT: -8.169971454      2.092      7.127
REMARK  9 active torsions:
REMARK  status: ('A' for Active; 'I' for Inactive)
REMARK    1  A    between atoms: O1_2  and  C2_3
REMARK    2  A    between atoms: C4_5  and  O2_6
REMARK    3  A    between atoms: C6_8  and  O3_9
REMARK    4  A    between atoms: C8_11  and  C9_12
REMARK    5  A    between atoms: C11_14  and  O4_15
REMARK    6  A    between atoms: C12_17  and  C13_18
REMARK    7  A    between atoms: C13_18  and  O5_21
REMARK    8  A    between atoms: C19_26  and  O6_27
REMARK    9  A    between atoms: C21_29  and  O7_30
ROOT
HETATM    1  C9  UNL     1      33.017  48.172  -1.542  1.00  0.00    -0.032 C
HETATM    2  C10 UNL     1      33.771  49.034  -0.596  1.00  0.00     0.073 C
HETATM    3  C11 UNL     1      33.315  48.969   0.839  1.00  0.00     0.133 C
HETATM    4  C12 UNL     1      32.766  47.610   1.202  1.00  0.00     0.082 C
HETATM    5  C16 UNL     1      31.628  47.315   0.342  1.00  0.00    -0.037 A
HETATM    6  C17 UNL     1      30.426  46.765   0.758  1.00  0.00     0.023 A
HETATM    7  C18 UNL     1      29.395  46.481  -0.088  1.00  0.00     0.011 A
HETATM    8  C19 UNL     1      28.202  45.925   0.385  1.00  0.00     0.112 A
HETATM    9  C21 UNL     1      27.151  45.629  -0.442  1.00  0.00     0.102 A
HETATM   10  C23 UNL     1      27.305  45.904  -1.807  1.00  0.00     0.040 A
HETATM   11  C24 UNL     1      28.482  46.451  -2.266  1.00  0.00     0.015 A
HETATM   12  C25 UNL     1      29.528  46.742  -1.420  1.00  0.00    -0.022 A
HETATM   13  C26 UNL     1      30.735  47.301  -1.878  1.00  0.00     0.025 A
HETATM   14  C27 UNL     1      31.762  47.583  -1.019  1.00  0.00    -0.021 A
ENDROOT
BRANCH   1  15
HETATM   15  C8  UNL     1      32.927  48.647  -2.925  1.00  0.00     0.010 A
HETATM   16  C6  UNL     1      33.462  48.008  -4.024  1.00  0.00     0.112 A
HETATM   17  C4  UNL     1      33.346  48.506  -5.327  1.00  0.00     0.105 A
HETATM   18  C3  UNL     1      32.672  49.679  -5.515  1.00  0.00     0.076 A
HETATM   19  C2  UNL     1      32.111  50.375  -4.469  1.00  0.00     0.071 A
HETATM   20  C28 UNL     1      32.253  49.845  -3.219  1.00  0.00     0.051 A
BRANCH  16  21
HETATM   21  O3  UNL     1      34.162  46.825  -3.922  1.00  0.00    -0.352 OA
HETATM   22  C7  UNL     1      35.532  46.671  -3.671  1.00  0.00     0.210 C
ENDBRANCH  16  21
BRANCH  17  23
HETATM   23  O2  UNL     1      33.902  47.825  -6.404  1.00  0.00    -0.353 OA
HETATM   24  C5  UNL     1      33.585  48.185  -7.733  1.00  0.00     0.210 C
ENDBRANCH  17  23
BRANCH  19  25
HETATM   25  O1  UNL     1      31.434  51.564  -4.718  1.00  0.00    -0.356 OA
HETATM   26  C1  UNL     1      32.022  52.532  -5.560  1.00  0.00     0.210 C
ENDBRANCH  19  25
ENDBRANCH   1  15
BRANCH   3  27
HETATM   27  O4  UNL     1      32.401  49.955   1.189  1.00  0.00    -0.394 OA
ATOM     28  H4  UNL     1      32.447  50.222   2.099  1.00  0.00     0.210 HD
ENDBRANCH   3  27
BRANCH   4  29
HETATM   29  C13 UNL     1      32.551  47.534   2.669  1.00  0.00     0.061 C
HETATM   30  C14 UNL     1      31.307  48.160   3.194  1.00  0.00     0.046 C
HETATM   31  C15 UNL     1      33.710  48.329   3.309  1.00  0.00     0.046 C
BRANCH  29  32
HETATM   32  O5  UNL     1      32.760  46.233   3.187  1.00  0.00    -0.390 OA
ATOM     33  H5  UNL     1      33.674  46.054   3.372  1.00  0.00     0.210 HD
ENDBRANCH  29  32
ENDBRANCH   4  29
BRANCH   8  34
HETATM   34  O6  UNL     1      28.053  45.653   1.739  1.00  0.00    -0.352 OA
HETATM   35  C20 UNL     1      27.647  46.613   2.681  1.00  0.00     0.210 C
ENDBRANCH   8  34
BRANCH   9  36
HETATM   36  O7  UNL     1      25.962  45.077   0.021  1.00  0.00    -0.353 OA
HETATM   37  C22 UNL     1      24.800  45.859   0.224  1.00  0.00     0.210 C
ENDBRANCH   9  36
TORSDOF 9
ENDMDL