MODEL 4
REMARK VINA RESULT: -7.787499502      2.182      7.325
REMARK  11 active torsions:
REMARK  status: ('A' for Active; 'I' for Inactive)
REMARK    1  A    between atoms: C2_2  and  C3_3
REMARK    2  A    between atoms: C3_3  and  C4_4
REMARK    3  A    between atoms: C4_4  and  C5_5
REMARK    4  A    between atoms: C5_5  and  O2_7
REMARK    5  A    between atoms: O2_7  and  C6_8
REMARK    6  A    between atoms: C6_8  and  C7_9
REMARK    7  A    between atoms: C11_13  and  O3_15
REMARK    8  A    between atoms: C17_21  and  O4_22
REMARK    9  A    between atoms: O4_22  and  C18_23
REMARK   10  A    between atoms: C18_23  and  C19_25
REMARK   11  A    between atoms: C22_28  and  O6_29
ROOT
HETATM    1  C7  UNL     1      29.965  46.037  -0.302  1.00  0.00    -0.027 C
HETATM    2  C8  UNL     1      30.069  44.840   0.296  1.00  0.00    -0.019 C
HETATM    3  C9  UNL     1      31.161  44.466   1.234  1.00  0.00     0.030 C
HETATM    4  C10 UNL     1      31.285  45.468   2.330  1.00  0.00     0.046 C
HETATM    5  C11 UNL     1      32.105  46.710   1.896  1.00  0.00     0.081 C
HETATM    6  C12 UNL     1      32.696  47.221   3.172  1.00  0.00     0.051 C
HETATM    7  C13 UNL     1      31.196  47.633   1.200  1.00  0.00    -0.013 C
HETATM    8  C14 UNL     1      31.380  49.077   1.253  1.00  0.00     0.014 C
HETATM    9  C15 UNL     1      32.257  49.963   0.922  1.00  0.00    -0.054 C
HETATM   10  C16 UNL     1      31.833  51.414   1.263  1.00  0.00     0.046 C
HETATM   11  C17 UNL     1      33.583  49.956   0.300  1.00  0.00     0.163 C
HETATM   12  C21 UNL     1      33.905  49.122  -0.855  1.00  0.00     0.069 C
HETATM   13  C22 UNL     1      33.094  49.385  -2.109  1.00  0.00     0.130 C
HETATM   14  C23 UNL     1      32.873  48.127  -2.900  1.00  0.00    -0.000 C
HETATM   15  C24 UNL     1      32.627  48.462  -4.365  1.00  0.00     0.020 C
HETATM   16  C25 UNL     1      34.042  47.189  -2.842  1.00  0.00     0.020 C
HETATM   17  C26 UNL     1      31.631  47.449  -2.375  1.00  0.00     0.180 C
HETATM   18  O7  UNL     1      31.899  47.071  -1.061  1.00  0.00    -0.376 OA
HETATM   19  C27 UNL     1      30.848  47.216  -0.209  1.00  0.00     0.184 C
ENDROOT
BRANCH   1  20
HETATM   20  C6  UNL     1      28.780  46.136  -1.186  1.00  0.00     0.215 C
BRANCH  20  21
HETATM   21  O2  UNL     1      27.749  45.335  -0.673  1.00  0.00    -0.317 OA
BRANCH  21  22
HETATM   22  C5  UNL     1      26.475  45.769  -0.349  1.00  0.00     0.259 C
HETATM   23  O1  UNL     1      25.519  45.230  -0.934  1.00  0.00    -0.265 OA
BRANCH  22  24
HETATM   24  C4  UNL     1      26.318  46.827   0.652  1.00  0.00     0.111 C
BRANCH  24  25
HETATM   25  C3  UNL     1      26.766  46.442   2.019  1.00  0.00     0.009 C
BRANCH  25  26
HETATM   26  C2  UNL     1      27.999  47.112   2.518  1.00  0.00    -0.004 C
HETATM   27  C1  UNL     1      28.465  46.575   3.850  1.00  0.00     0.005 C
ENDBRANCH  25  26
ENDBRANCH  24  25
ENDBRANCH  22  24
ENDBRANCH  21  22
ENDBRANCH  20  21
ENDBRANCH   1  20
BRANCH   5  28
HETATM   28  O3  UNL     1      33.113  46.131   1.132  1.00  0.00    -0.386 OA
ATOM     29  H3  UNL     1      32.927  46.482   0.269  1.00  0.00     0.211 HD
ENDBRANCH   5  28
BRANCH  11  30
HETATM   30  O4  UNL     1      34.543  49.689   1.329  1.00  0.00    -0.311 OA
BRANCH  30  31
HETATM   31  C18 UNL     1      35.033  50.619   2.201  1.00  0.00     0.259 C
HETATM   32  O5  UNL     1      35.428  51.724   1.723  1.00  0.00    -0.265 OA
BRANCH  31  33
HETATM   33  C19 UNL     1      35.138  50.431   3.664  1.00  0.00     0.106 C
HETATM   34  C20 UNL     1      33.803  50.554   4.343  1.00  0.00     0.015 C
ENDBRANCH  31  33
ENDBRANCH  30  31
ENDBRANCH  11  30
BRANCH  13  35
HETATM   35  O6  UNL     1      31.896  50.043  -1.848  1.00  0.00    -0.395 OA
ATOM     36  H6  UNL     1      31.134  49.498  -2.006  1.00  0.00     0.210 HD
ENDBRANCH  13  35
TORSDOF 11
ENDMDL