MODEL 5
REMARK VINA RESULT: -9.230693881      1.726      3.480
REMARK  10 active torsions:
REMARK  status: ('A' for Active; 'I' for Inactive)
REMARK       I    between atoms: C2_2  and  N1_4
REMARK    1  A    between atoms: C4_6  and  C5_7
REMARK    2  A    between atoms: C5_7  and  C8_10
REMARK    3  A    between atoms: C12_14  and  N2_15
REMARK       I    between atoms: N2_15  and  C13_17
REMARK    4  A    between atoms: C13_17  and  C14_19
REMARK    5  A    between atoms: C14_19  and  C16_21
REMARK    6  A    between atoms: C21_29  and  C22_30
REMARK    7  A    between atoms: C23_31  and  C24_32
REMARK    8  A    between atoms: C24_32  and  O3_33
REMARK    9  A    between atoms: C24_32  and  C25_35
REMARK   10  A    between atoms: C25_35  and  O4_38
ROOT
HETATM    1  C16 UNL     1      31.326  40.761   2.103  1.00  0.00     0.053 C
HETATM    2  C17 UNL     1      32.252  41.669   1.327  1.00  0.00     0.032 C
HETATM    3  C18 UNL     1      31.496  41.060   3.573  1.00  0.00     0.032 C
HETATM    4  C19 UNL     1      31.806  39.372   1.901  1.00  0.00     0.069 C
HETATM    5  N3  UNL     1      32.168  38.285   1.730  1.00  0.00    -0.196 NA
ENDROOT
BRANCH   1   6
HETATM    6  C14 UNL     1      29.907  40.883   1.655  1.00  0.00     0.096 C
HETATM    7  C15 UNL     1      29.774  40.179   0.311  1.00  0.00     0.021 C
BRANCH   6   8
HETATM    8  C13 UNL     1      29.533  42.323   1.405  1.00  0.00     0.227 C
HETATM    9  N2  UNL     1      29.234  43.192   2.466  1.00  0.00    -0.327 N
ATOM     10  H2  UNL     1      29.293  42.785   3.400  1.00  0.00     0.169 HD
HETATM   11  O2  UNL     1      29.514  42.659   0.200  1.00  0.00    -0.273 OA
BRANCH   9  12
HETATM   12  C12 UNL     1      28.865  44.544   2.415  1.00  0.00     0.035 A
HETATM   13  C11 UNL     1      27.565  44.959   2.313  1.00  0.00     0.029 A
HETATM   14  C10 UNL     1      27.321  46.335   2.260  1.00  0.00     0.003 A
HETATM   15  C9  UNL     1      28.329  47.274   2.305  1.00  0.00     0.008 A
HETATM   16  C8  UNL     1      29.629  46.867   2.407  1.00  0.00    -0.042 A
HETATM   17  C20 UNL     1      29.872  45.523   2.460  1.00  0.00     0.037 A
BRANCH  16  18
HETATM   18  C5  UNL     1      30.768  47.807   2.468  1.00  0.00     0.023 C
HETATM   19  C6  UNL     1      31.560  47.477   3.729  1.00  0.00     0.027 C
HETATM   20  C7  UNL     1      30.247  49.243   2.602  1.00  0.00     0.027 C
BRANCH  18  21
HETATM   21  C4  UNL     1      31.643  47.713   1.274  1.00  0.00     0.039 A
HETATM   22  C3  UNL     1      31.320  47.736  -0.055  1.00  0.00     0.127 A
HETATM   23  N1  UNL     1      32.452  47.620  -0.835  1.00  0.00    -0.277 N
HETATM   24  C2  UNL     1      32.438  47.610  -2.245  1.00  0.00     0.225 C
HETATM   25  C21 UNL     1      33.491  47.525   0.036  1.00  0.00     0.114 A
HETATM   26  C1  UNL     1      31.136  47.730  -2.984  1.00  0.00     0.118 C
HETATM   27  O1  UNL     1      33.449  47.507  -2.934  1.00  0.00    -0.273 OA
HETATM   28  N4  UNL     1      32.973  47.585   1.291  1.00  0.00    -0.343 N
ATOM     29  H4  UNL     1      33.533  47.537   2.143  1.00  0.00     0.167 HD
BRANCH  25  30
HETATM   30  C22 UNL     1      34.890  47.396  -0.299  1.00  0.00     0.051 C
HETATM   31  C23 UNL     1      35.906  48.154  -0.051  1.00  0.00     0.039 C
BRANCH  31  32
HETATM   32  C24 UNL     1      36.105  49.412   0.641  1.00  0.00     0.076 C
BRANCH  32  33
HETATM   33  O3  UNL     1      36.886  50.367   0.065  1.00  0.00    -0.362 OA
ATOM     34  H3  UNL     1      36.793  50.540  -0.865  1.00  0.00     0.217 HD
ENDBRANCH  32  33
BRANCH  32  35
HETATM   35  C25 UNL     1      36.423  49.288   2.120  1.00  0.00     0.099 C
HETATM   36  C26 UNL     1      36.758  50.620   2.743  1.00  0.00     0.053 C
HETATM   37  C27 UNL     1      37.551  48.347   2.404  1.00  0.00     0.053 C
BRANCH  35  38
HETATM   38  O4  UNL     1      35.287  48.817   2.814  1.00  0.00    -0.384 OA
ATOM     39  H4  UNL     1      35.413  48.928   3.750  1.00  0.00     0.211 HD
ENDBRANCH  35  38
ENDBRANCH  32  35
ENDBRANCH  31  32
ENDBRANCH  25  30
ENDBRANCH  18  21
ENDBRANCH  16  18
ENDBRANCH   9  12
ENDBRANCH   6   8
ENDBRANCH   1   6
TORSDOF 10
ENDMDL