MODEL 3
REMARK VINA RESULT: -9.458885276      3.874     10.428
REMARK  13 active torsions:
REMARK  status: ('A' for Active; 'I' for Inactive)
REMARK    1  A    between atoms: C2_2  and  C4_4
REMARK    2  A    between atoms: C8_9  and  C9_10
REMARK    3  A    between atoms: C9_10  and  C10_11
REMARK    4  A    between atoms: C10_11  and  C11_12
REMARK    5  A    between atoms: C11_12  and  C12_13
REMARK    6  A    between atoms: C12_13  and  C13_14
REMARK    7  A    between atoms: C13_14  and  C14_15
REMARK    8  A    between atoms: C14_15  and  O2_16
REMARK    9  A    between atoms: C14_15  and  N1_18
REMARK   10  A    between atoms: N1_18  and  C15_20
REMARK   11  A    between atoms: C21_27  and  C22_28
REMARK   12  A    between atoms: C22_28  and  O5_30
REMARK   13  A    between atoms: O5_30  and  C23_31
ROOT
HETATM    1  C14 UNL     1      31.658  42.327   2.219  1.00  0.00     0.242 C
ENDROOT
BRANCH   1   2
HETATM    2  C13 UNL     1      30.560  41.714   1.387  1.00  0.00     0.026 C
BRANCH   2   3
HETATM    3  C12 UNL     1      30.706  40.614   0.685  1.00  0.00     0.000 C
BRANCH   3   4
HETATM    4  C11 UNL     1      30.898  39.308   1.314  1.00  0.00    -0.000 C
BRANCH   4   5
HETATM    5  C10 UNL     1      32.024  38.813   1.736  1.00  0.00     0.000 C
BRANCH   5   6
HETATM    6  C9  UNL     1      32.896  38.003   0.855  1.00  0.00     0.001 C
BRANCH   6   7
HETATM    7  C8  UNL     1      33.841  38.634   0.205  1.00  0.00     0.017 C
HETATM    8  C7  UNL     1      35.145  38.159  -0.142  1.00  0.00     0.036 A
HETATM    9  C6  UNL     1      35.600  36.923   0.200  1.00  0.00     0.186 A
HETATM   10  C27 UNL     1      35.987  38.995  -0.885  1.00  0.00     0.157 A
HETATM   11  C5  UNL     1      36.888  36.530  -0.200  1.00  0.00     0.088 A
HETATM   12  O1  UNL     1      34.943  36.094   0.860  1.00  0.00    -0.287 OA
HETATM   13  C4  UNL     1      37.636  37.422  -0.927  1.00  0.00     0.059 A
HETATM   14  O6  UNL     1      37.178  38.620  -1.250  1.00  0.00    -0.326 OA
BRANCH  13  15
HETATM   15  C2  UNL     1      38.987  37.042  -1.364  1.00  0.00     0.035 C
HETATM   16  C1  UNL     1      39.562  36.161  -0.233  1.00  0.00     0.016 C
HETATM   17  C3  UNL     1      39.030  36.248  -2.648  1.00  0.00     0.016 C
ENDBRANCH  13  15
ENDBRANCH   6   7
ENDBRANCH   5   6
ENDBRANCH   4   5
ENDBRANCH   3   4
ENDBRANCH   2   3
ENDBRANCH   1   2
BRANCH   1  18
HETATM   18  O2  UNL     1      32.793  42.258   1.364  1.00  0.00    -0.373 OA
ATOM     19  H2  UNL     1      32.758  43.078   0.886  1.00  0.00     0.212 HD
ENDBRANCH   1  18
BRANCH   1  20
HETATM   20  N1  UNL     1      31.372  43.703   2.393  1.00  0.00    -0.362 N
ATOM     21  H1  UNL     1      31.872  44.261   3.084  1.00  0.00     0.162 HD
BRANCH  20  22
HETATM   22  C15 UNL     1      30.354  44.286   1.564  1.00  0.00     0.047 C
HETATM   23  C16 UNL     1      30.876  45.209   0.555  1.00  0.00     0.060 C
HETATM   24  C17 UNL     1      31.089  46.644   0.942  1.00  0.00     0.013 C
HETATM   25  C18 UNL     1      29.779  47.125   1.464  1.00  0.00     0.018 A
HETATM   26  C19 UNL     1      29.523  48.113   2.487  1.00  0.00     0.040 A
HETATM   27  C20 UNL     1      29.890  46.774   2.969  1.00  0.00     0.134 A
HETATM   28  O3  UNL     1      29.131  45.704   3.168  1.00  0.00    -0.338 OA
HETATM   29  C21 UNL     1      29.171  44.614   2.372  1.00  0.00     0.167 C
BRANCH  29  30
HETATM   30  C22 UNL     1      27.845  44.401   1.760  1.00  0.00     0.319 C
HETATM   31  O4  UNL     1      26.905  44.018   2.550  1.00  0.00    -0.257 OA
BRANCH  30  32
HETATM   32  O5  UNL     1      27.466  44.555   0.470  1.00  0.00    -0.306 OA
BRANCH  32  33
HETATM   33  C23 UNL     1      26.607  45.560   0.041  1.00  0.00     0.060 C
HETATM   34  C24 UNL     1      25.228  45.101  -0.360  1.00  0.00     0.046 C
HETATM   35  C25 UNL     1      26.395  46.644   1.082  1.00  0.00     0.046 C
HETATM   36  C26 UNL     1      27.224  46.228  -1.171  1.00  0.00     0.046 C
ENDBRANCH  32  33
ENDBRANCH  30  32
ENDBRANCH  29  30
ENDBRANCH  20  22
ENDBRANCH   1  20
TORSDOF 13
ENDMDL