MODEL 5
REMARK VINA RESULT: -9.607355419      1.030      2.265
REMARK  9 active torsions:
REMARK  status: ('A' for Active; 'I' for Inactive)
REMARK    1  A    between atoms: O1_2  and  C2_3
REMARK    2  A    between atoms: C5_6  and  N1_7
REMARK    3  A    between atoms: N1_7  and  C6_9
REMARK    4  A    between atoms: C7_12  and  N3_13
REMARK    5  A    between atoms: N3_13  and  C8_15
REMARK    6  A    between atoms: C8_15  and  C9_16
REMARK    7  A    between atoms: C11_18  and  O2_19
REMARK    8  A    between atoms: C13_21  and  O3_22
REMARK    9  A    between atoms: C15_24  and  O4_25
ROOT
HETATM    1  C2  UNL     1      23.723  45.988   0.358  1.00  0.00     0.089 A
HETATM    2  C3  UNL     1      24.609  46.896   0.926  1.00  0.00     0.040 A
HETATM    3  C4  UNL     1      25.952  46.741   0.651  1.00  0.00     0.033 A
HETATM    4  C5  UNL     1      26.459  45.738  -0.152  1.00  0.00     0.050 A
HETATM    5  C22 UNL     1      25.520  44.855  -0.696  1.00  0.00     0.055 A
HETATM    6  C23 UNL     1      24.185  44.973  -0.449  1.00  0.00     0.080 A
HETATM    7  C24 UNL     1      23.226  44.067  -1.007  1.00  0.00     0.102 C
HETATM    8  N5  UNL     1      22.429  43.326  -1.453  1.00  0.00    -0.191 NA
ENDROOT
BRANCH   1   9
HETATM    9  O1  UNL     1      22.352  46.120   0.618  1.00  0.00    -0.354 OA
HETATM   10  C1  UNL     1      21.867  47.162   1.436  1.00  0.00     0.210 C
ENDBRANCH   1   9
BRANCH   4  11
HETATM   11  N1  UNL     1      27.835  45.612  -0.408  1.00  0.00    -0.192 N
ATOM     12  H1  UNL     1      28.219  46.060  -1.240  1.00  0.00     0.184 HD
BRANCH  11  13
HETATM   13  C6  UNL     1      28.649  44.943   0.375  1.00  0.00     0.684 A
HETATM   14  N2  UNL     1      29.332  45.591   1.338  1.00  0.00    -0.175 N
HETATM   15  C7  UNL     1      30.142  44.837   2.097  1.00  0.00     0.136 A
ATOM     16  H2  UNL     1      29.240  46.597   1.481  1.00  0.00     0.186 HD
HETATM   17  C18 UNL     1      30.261  43.452   1.893  1.00  0.00     0.076 A
HETATM   18  S1  UNL     1      31.149  42.186   2.619  1.00  0.00    -0.096 SA
HETATM   19  C21 UNL     1      29.561  42.812   0.912  1.00  0.00     0.070 A
HETATM   20  C19 UNL     1      30.611  40.885   1.661  1.00  0.00     0.053 A
HETATM   21  C20 UNL     1      29.741  41.484   0.792  1.00  0.00     0.039 A
HETATM   22  N4  UNL     1      28.747  43.631   0.163  1.00  0.00    -0.190 N
ATOM     23  H4  UNL     1      28.195  43.216  -0.587  1.00  0.00     0.184 HD
BRANCH  15  24
HETATM   24  N3  UNL     1      30.856  45.315   3.058  1.00  0.00    -0.370 N
ATOM     25  H3  UNL     1      31.560  44.728   3.507  1.00  0.00     0.161 HD
BRANCH  24  26
HETATM   26  C8  UNL     1      30.666  46.684   3.505  1.00  0.00     0.160 C
BRANCH  26  27
HETATM   27  C9  UNL     1      31.874  47.507   3.289  1.00  0.00    -0.035 A
HETATM   28  C10 UNL     1      32.954  46.986   2.614  1.00  0.00     0.048 A
HETATM   29  C11 UNL     1      34.107  47.754   2.399  1.00  0.00     0.104 A
HETATM   30  C13 UNL     1      34.117  49.046   2.886  1.00  0.00     0.135 A
HETATM   31  C15 UNL     1      33.056  49.594   3.565  1.00  0.00     0.104 A
HETATM   32  C17 UNL     1      31.934  48.803   3.757  1.00  0.00     0.048 A
BRANCH  29  33
HETATM   33  O2  UNL     1      35.199  47.239   1.720  1.00  0.00    -0.353 OA
HETATM   34  C12 UNL     1      35.081  47.059   0.315  1.00  0.00     0.210 C
ENDBRANCH  29  33
BRANCH  30  35
HETATM   35  O3  UNL     1      35.247  49.811   2.679  1.00  0.00    -0.351 OA
HETATM   36  C14 UNL     1      36.281  49.736   3.650  1.00  0.00     0.210 C
ENDBRANCH  30  35
BRANCH  31  37
HETATM   37  O4  UNL     1      33.140  50.894   4.022  1.00  0.00    -0.353 OA
HETATM   38  C16 UNL     1      32.624  51.920   3.196  1.00  0.00     0.210 C
ENDBRANCH  31  37
ENDBRANCH  26  27
ENDBRANCH  24  26
ENDBRANCH  15  24
ENDBRANCH  11  13
ENDBRANCH   4  11
TORSDOF 9
ENDMDL