MODEL 5
REMARK VINA RESULT: -8.179271620      2.797      6.139
REMARK  9 active torsions:
REMARK  status: ('A' for Active; 'I' for Inactive)
REMARK    1  A    between atoms: O1_2  and  C2_3
REMARK    2  A    between atoms: C7_9  and  O3_10
REMARK    3  A    between atoms: O3_10  and  C8_11
REMARK    4  A    between atoms: C14_18  and  C15_19
REMARK    5  A    between atoms: C15_19  and  N2_20
REMARK    6  A    between atoms: C20_25  and  O4_26
REMARK    7  A    between atoms: C22_29  and  O5_30
REMARK    8  A    between atoms: C23_32  and  C24_33
REMARK    9  A    between atoms: C24_33  and  C25_34
ROOT
HETATM    1  C2  UNL     1      32.720  48.065  -0.813  1.00  0.00     0.078 A
HETATM    2  C3  UNL     1      32.173  47.954   0.450  1.00  0.00     0.050 A
HETATM    3  C4  UNL     1      30.899  47.448   0.589  1.00  0.00    -0.014 A
HETATM    4  C5  UNL     1      30.499  47.376   1.927  1.00  0.00     0.070 C
HETATM    5  C6  UNL     1      29.473  46.603   2.489  1.00  0.00     0.206 C
HETATM    6  O2  UNL     1      29.198  46.774   3.695  1.00  0.00    -0.285 OA
HETATM    7  C7  UNL     1      28.738  45.652   1.783  1.00  0.00     0.130 C
HETATM    8  C14 UNL     1      28.357  45.687   0.465  1.00  0.00     0.042 C
HETATM    9  C20 UNL     1      28.873  46.549  -0.528  1.00  0.00     0.090 C
HETATM   10  C21 UNL     1      30.162  47.052  -0.526  1.00  0.00     0.042 A
HETATM   11  C22 UNL     1      30.690  47.152  -1.804  1.00  0.00     0.088 A
HETATM   12  C23 UNL     1      31.961  47.659  -1.918  1.00  0.00     0.013 A
ENDROOT
BRANCH   7  13
HETATM   13  O3  UNL     1      28.376  44.561   2.558  1.00  0.00    -0.339 OA
BRANCH  13  14
HETATM   14  C8  UNL     1      29.291  43.504   2.888  1.00  0.00     0.157 C
HETATM   15  C9  UNL     1      30.705  43.962   2.848  1.00  0.00     0.036 C
HETATM   16  C10 UNL     1      31.379  43.420   1.592  1.00  0.00     0.033 C
HETATM   17  C11 UNL     1      31.373  41.927   1.704  1.00  0.00     0.272 C
HETATM   18  N1  UNL     1      30.037  41.432   1.785  1.00  0.00     0.086 N
HETATM   19  C12 UNL     1      29.781  40.598   0.629  1.00  0.00     0.310 C
HETATM   20  C13 UNL     1      29.007  42.435   1.837  1.00  0.00     0.304 C
ENDBRANCH  13  14
ENDBRANCH   7  13
BRANCH   8  21
HETATM   21  C15 UNL     1      27.261  44.797   0.045  1.00  0.00     0.317 C
BRANCH  21  22
HETATM   22  N2  UNL     1      26.036  45.540  -0.310  1.00  0.00     0.092 N
HETATM   23  C16 UNL     1      25.623  46.324   0.881  1.00  0.00     0.273 C
HETATM   24  C17 UNL     1      24.146  46.534   0.590  1.00  0.00     0.032 C
HETATM   25  C18 UNL     1      23.728  45.237  -0.107  1.00  0.00     0.032 C
HETATM   26  C19 UNL     1      24.996  44.461  -0.235  1.00  0.00     0.273 C
ENDBRANCH  21  22
ENDBRANCH   8  21
BRANCH   9  27
HETATM   27  O4  UNL     1      28.072  46.912  -1.543  1.00  0.00    -0.359 OA
ATOM     28  H4  UNL     1      28.136  46.440  -2.365  1.00  0.00     0.217 HD
ENDBRANCH   9  27
BRANCH  11  29
HETATM   29  O5  UNL     1      29.938  46.746  -2.884  1.00  0.00    -0.359 OA
ATOM     30  H5  UNL     1      29.120  47.187  -3.079  1.00  0.00     0.217 HD
ENDBRANCH  11  29
BRANCH   1  31
HETATM   31  O1  UNL     1      33.996  48.569  -1.002  1.00  0.00    -0.355 OA
HETATM   32  C1  UNL     1      35.060  47.983  -0.278  1.00  0.00     0.210 C
ENDBRANCH   1  31
BRANCH  12  33
HETATM   33  C24 UNL     1      32.616  47.811  -3.231  1.00  0.00     0.072 C
BRANCH  33  34
HETATM   34  C25 UNL     1      33.530  46.684  -3.540  1.00  0.00    -0.020 C
HETATM   35  C26 UNL     1      34.355  46.623  -4.558  1.00  0.00    -0.091 C
HETATM   36  C27 UNL     1      34.510  47.688  -5.583  1.00  0.00     0.042 C
HETATM   37  C28 UNL     1      35.223  45.406  -4.735  1.00  0.00     0.042 C
ENDBRANCH  33  34
ENDBRANCH  12  33
TORSDOF 9
ENDMDL