MODEL 5
REMARK VINA RESULT: -8.826827016      1.438      2.149
REMARK  8 active torsions:
REMARK  status: ('A' for Active; 'I' for Inactive)
REMARK    1  A    between atoms: O1_2  and  C2_3
REMARK    2  A    between atoms: C5_6  and  N1_7
REMARK    3  A    between atoms: C6_10  and  C7_11
REMARK    4  A    between atoms: C12_16  and  N3_17
REMARK       I    between atoms: N3_17  and  C13_18
REMARK    5  A    between atoms: C13_18  and  C14_20
REMARK    6  A    between atoms: C17_25  and  O3_26
REMARK    7  A    between atoms: C21_30  and  O4_31
REMARK    8  A    between atoms: C25_35  and  O5_36
ROOT
HETATM    1  N1  UNL     1      28.713  43.930   1.382  1.00  0.00    -0.228 N
HETATM    2  N2  UNL     1      28.663  42.723   1.888  1.00  0.00    -0.294 N
ATOM      3  H2  UNL     1      27.806  42.255   2.179  1.00  0.00     0.187 HD
HETATM    4  C6  UNL     1      29.885  42.187   1.974  1.00  0.00     0.040 A
HETATM    5  C10 UNL     1      30.729  43.134   1.488  1.00  0.00     0.023 A
HETATM    6  C11 UNL     1      32.185  42.961   1.405  1.00  0.00     0.056 C
HETATM    7  C12 UNL     1      30.016  44.279   1.092  1.00  0.00     0.212 A
ENDROOT
BRANCH   7   8
HETATM    8  N3  UNL     1      30.380  45.300   0.621  1.00  0.00    -0.345 NA
HETATM    9  C13 UNL     1      30.546  46.493   0.071  1.00  0.00     0.330 C
HETATM   10  O2  UNL     1      29.579  46.915  -0.673  1.00  0.00    -0.251 OA
BRANCH   9  11
HETATM   11  C14 UNL     1      31.761  47.289   0.291  1.00  0.00     0.077 A
HETATM   12  C15 UNL     1      32.687  47.585  -0.705  1.00  0.00     0.107 A
HETATM   13  N4  UNL     1      33.700  48.286  -0.182  1.00  0.00    -0.362 N
HETATM   14  C16 UNL     1      33.455  48.453   1.125  1.00  0.00     0.080 A
ATOM     15  H4  UNL     1      34.514  48.633  -0.688  1.00  0.00     0.165 HD
HETATM   16  C17 UNL     1      34.187  49.110   2.088  1.00  0.00     0.096 A
HETATM   17  C23 UNL     1      32.229  47.826   1.434  1.00  0.00     0.045 A
HETATM   18  C19 UNL     1      33.694  49.145   3.371  1.00  0.00     0.042 A
HETATM   19  C20 UNL     1      32.498  48.539   3.685  1.00  0.00     0.040 A
HETATM   20  C21 UNL     1      31.746  47.868   2.717  1.00  0.00     0.082 A
BRANCH  16  21
HETATM   21  O3  UNL     1      35.396  49.713   1.732  1.00  0.00    -0.354 OA
HETATM   22  C18 UNL     1      36.665  49.206   2.023  1.00  0.00     0.210 C
ENDBRANCH  16  21
BRANCH  20  23
HETATM   23  O4  UNL     1      30.541  47.274   3.089  1.00  0.00    -0.355 OA
HETATM   24  C22 UNL     1      30.516  46.335   4.147  1.00  0.00     0.210 C
ENDBRANCH  20  23
ENDBRANCH   9  11
ENDBRANCH   7   8
BRANCH   1  25
HETATM   25  C5  UNL     1      27.569  44.739   1.184  1.00  0.00     0.062 A
HETATM   26  C4  UNL     1      27.302  45.840   1.963  1.00  0.00     0.034 A
HETATM   27  C3  UNL     1      26.151  46.605   1.736  1.00  0.00     0.042 A
HETATM   28  C2  UNL     1      25.275  46.263   0.732  1.00  0.00     0.101 A
HETATM   29  C25 UNL     1      25.534  45.158  -0.057  1.00  0.00     0.103 A
HETATM   30  C24 UNL     1      26.671  44.426   0.188  1.00  0.00     0.071 A
BRANCH  28  31
HETATM   31  O1  UNL     1      24.115  47.021   0.491  1.00  0.00    -0.353 OA
HETATM   32  C1  UNL     1      22.968  46.740   1.292  1.00  0.00     0.210 C
ENDBRANCH  28  31
BRANCH  29  33
HETATM   33  O5  UNL     1      24.622  44.849  -1.065  1.00  0.00    -0.353 OA
HETATM   34  C26 UNL     1      23.503  44.012  -0.850  1.00  0.00     0.210 C
ENDBRANCH  29  33
ENDBRANCH   1  25
BRANCH   4  35
HETATM   35  C7  UNL     1      30.171  40.836   2.505  1.00  0.00     0.029 C
HETATM   36  C8  UNL     1      30.311  39.883   1.339  1.00  0.00     0.016 C
HETATM   37  C9  UNL     1      31.399  40.741   3.343  1.00  0.00     0.016 C
ENDBRANCH   4  35
TORSDOF 8
ENDMDL