MODEL 2
REMARK VINA RESULT: -7.662556322      2.135      2.893
REMARK  9 active torsions:
REMARK  status: ('A' for Active; 'I' for Inactive)
REMARK    1  A    between atoms: O1_2  and  C2_3
REMARK    2  A    between atoms: C3_5  and  C4_6
REMARK    3  A    between atoms: C4_6  and  O3_7
REMARK    4  A    between atoms: C5_9  and  S1_10
REMARK    5  A    between atoms: S1_10  and  S2_11
REMARK    6  A    between atoms: S2_11  and  C6_12
REMARK    7  A    between atoms: C9_16  and  O5_17
REMARK    8  A    between atoms: O5_17  and  C10_18
REMARK    9  A    between atoms: C15_23  and  C16_24
ROOT
HETATM    1  C2  UNL     1      29.323  44.715   0.154  1.00  0.00     0.289 C
HETATM    2  O2  UNL     1      28.182  44.407   0.946  1.00  0.00    -0.350 OA
HETATM    3  C3  UNL     1      27.659  45.631   1.446  1.00  0.00     0.163 C
HETATM    4  C5  UNL     1      26.865  46.263   0.400  1.00  0.00     0.092 C
HETATM    5  C8  UNL     1      27.423  45.714  -0.937  1.00  0.00     0.056 C
HETATM    6  C9  UNL     1      28.928  45.786  -0.814  1.00  0.00     0.185 C
ENDROOT
BRANCH   6   7
HETATM    7  O5  UNL     1      29.436  47.062  -0.553  1.00  0.00    -0.340 OA
BRANCH   7   8
HETATM    8  C10 UNL     1      30.751  47.376  -0.242  1.00  0.00     0.083 A
HETATM    9  C11 UNL     1      31.711  47.390  -1.230  1.00  0.00    -0.021 A
HETATM   10  C12 UNL     1      31.430  47.117  -2.670  1.00  0.00     0.052 C
HETATM   11  C13 UNL     1      33.024  47.704  -0.858  1.00  0.00    -0.036 A
HETATM   12  C14 UNL     1      34.064  47.721  -1.902  1.00  0.00     0.050 C
HETATM   13  C15 UNL     1      33.375  47.994   0.442  1.00  0.00     0.054 A
HETATM   14  C17 UNL     1      32.399  47.975   1.410  1.00  0.00    -0.032 A
HETATM   15  C18 UNL     1      31.098  47.672   1.085  1.00  0.00    -0.017 A
HETATM   16  C22 UNL     1      32.745  48.261   2.814  1.00  0.00     0.040 C
HETATM   17  C19 UNL     1      30.111  47.717   2.188  1.00  0.00     0.042 C
HETATM   18  C20 UNL     1      30.351  48.849   3.151  1.00  0.00     0.005 C
HETATM   19  C21 UNL     1      31.763  49.277   3.317  1.00  0.00     0.005 C
BRANCH  13  20
HETATM   20  C16 UNL     1      34.738  48.317   0.847  1.00  0.00     0.210 C
HETATM   21  O6  UNL     1      35.083  49.518   0.836  1.00  0.00    -0.644 OA
HETATM   22  O7  UNL     1      35.655  47.366   1.240  1.00  0.00    -0.644 OA
ENDBRANCH  13  20
ENDBRANCH   7   8
ENDBRANCH   6   7
BRANCH   1  23
HETATM   23  O1  UNL     1      29.624  43.501  -0.495  1.00  0.00    -0.363 OA
HETATM   24  C1  UNL     1      29.604  42.429   0.394  1.00  0.00     0.204 C
ENDBRANCH   1  23
BRANCH   4  25
HETATM   25  S1  UNL     1      25.108  46.271   0.407  1.00  0.00    -0.082 SA
BRANCH  25  26
HETATM   26  S2  UNL     1      24.210  44.635  -0.475  1.00  0.00    -0.020 SA
BRANCH  26  27
HETATM   27  C6  UNL     1      22.468  44.612  -0.297  1.00  0.00     0.192 C
HETATM   28  C7  UNL     1      21.849  45.801   0.434  1.00  0.00     0.105 C
HETATM   29  O4  UNL     1      21.680  43.781  -0.669  1.00  0.00    -0.285 OA
ENDBRANCH  26  27
ENDBRANCH  25  26
ENDBRANCH   4  25
BRANCH   3  30
HETATM   30  C4  UNL     1      27.142  45.480   2.820  1.00  0.00     0.197 C
BRANCH  30  31
HETATM   31  O3  UNL     1      27.449  44.147   3.233  1.00  0.00    -0.398 OA
ATOM     32  H3  UNL     1      27.361  43.594   2.466  1.00  0.00     0.209 HD
ENDBRANCH  30  31
ENDBRANCH   3  30
TORSDOF 9
ENDMDL