MODEL 4
REMARK VINA RESULT: -9.395292293      1.459      2.194
REMARK  9 active torsions:
REMARK  status: ('A' for Active; 'I' for Inactive)
REMARK    1  A    between atoms: O1_2  and  C2_3
REMARK    2  A    between atoms: C4_5  and  S1_6
REMARK    3  A    between atoms: S1_6  and  N1_9
REMARK    4  A    between atoms: N1_9  and  C5_11
REMARK    5  A    between atoms: C9_15  and  N2_16
REMARK       I    between atoms: N2_16  and  C10_18
REMARK    6  A    between atoms: C10_18  and  O5_20
REMARK    7  A    between atoms: O5_20  and  C11_21
REMARK    8  A    between atoms: C20_30  and  O6_31
REMARK    9  A    between atoms: C22_33  and  O7_34
ROOT
HETATM    1  C5  UNL     1      30.078  47.047   3.627  1.00  0.00     0.045 A
HETATM    2  C6  UNL     1      28.887  47.391   3.035  1.00  0.00     0.038 A
HETATM    3  C7  UNL     1      28.081  46.388   2.516  1.00  0.00    -0.047 A
HETATM    4  C8  UNL     1      28.464  45.066   2.592  1.00  0.00    -0.025 A
HETATM    5  C9  UNL     1      29.670  44.697   3.190  1.00  0.00     0.045 A
HETATM    6  C15 UNL     1      30.457  45.697   3.699  1.00  0.00     0.060 A
HETATM    7  C16 UNL     1      27.434  44.200   1.969  1.00  0.00     0.042 C
HETATM    8  C17 UNL     1      26.480  45.126   1.291  1.00  0.00     0.009 C
HETATM    9  C18 UNL     1      26.759  46.510   1.833  1.00  0.00     0.039 C
ENDROOT
BRANCH   1  10
HETATM   10  N1  UNL     1      30.916  48.058   4.163  1.00  0.00    -0.281 N
ATOM     11  H1  UNL     1      31.182  47.994   5.145  1.00  0.00     0.179 HD
BRANCH  10  12
HETATM   12  S1  UNL     1      31.505  49.379   3.248  1.00  0.00     0.263 S
HETATM   13  O2  UNL     1      30.352  50.287   2.901  1.00  0.00    -0.200 OA
HETATM   14  O3  UNL     1      32.500  50.211   3.974  1.00  0.00    -0.200 OA
BRANCH  12  15
HETATM   15  C4  UNL     1      32.162  48.753   1.729  1.00  0.00     0.085 A
HETATM   16  C3  UNL     1      33.460  48.303   1.631  1.00  0.00     0.065 A
HETATM   17  C2  UNL     1      33.987  47.810   0.446  1.00  0.00     0.105 A
HETATM   18  C22 UNL     1      33.196  47.763  -0.684  1.00  0.00     0.135 A
HETATM   19  C20 UNL     1      31.872  48.216  -0.608  1.00  0.00     0.105 A
HETATM   20  C19 UNL     1      31.381  48.700   0.593  1.00  0.00     0.065 A
BRANCH  17  21
HETATM   21  O1  UNL     1      35.294  47.354   0.340  1.00  0.00    -0.353 OA
HETATM   22  C1  UNL     1      35.658  46.233   1.121  1.00  0.00     0.210 C
ENDBRANCH  17  21
BRANCH  18  23
HETATM   23  O7  UNL     1      33.711  47.278  -1.856  1.00  0.00    -0.351 OA
HETATM   24  C23 UNL     1      34.330  48.026  -2.859  1.00  0.00     0.210 C
ENDBRANCH  18  23
BRANCH  19  25
HETATM   25  O6  UNL     1      31.099  48.157  -1.760  1.00  0.00    -0.353 OA
HETATM   26  C21 UNL     1      30.242  47.040  -1.914  1.00  0.00     0.210 C
ENDBRANCH  19  25
ENDBRANCH  12  15
ENDBRANCH  10  12
ENDBRANCH   1  10
BRANCH   5  27
HETATM   27  N2  UNL     1      30.032  43.353   3.255  1.00  0.00    -0.302 N
HETATM   28  C10 UNL     1      31.034  42.689   2.540  1.00  0.00     0.365 C
HETATM   29  O4  UNL     1      31.803  43.171   1.700  1.00  0.00    -0.238 OA
ATOM     30  H2  UNL     1      29.498  42.780   3.907  1.00  0.00     0.171 HD
BRANCH  28  31
HETATM   31  O5  UNL     1      31.256  41.305   2.742  1.00  0.00    -0.294 OA
BRANCH  31  32
HETATM   32  C11 UNL     1      31.097  40.342   1.764  1.00  0.00     0.061 C
HETATM   33  C12 UNL     1      32.266  40.166   0.839  1.00  0.00     0.046 C
HETATM   34  C13 UNL     1      30.916  39.002   2.490  1.00  0.00     0.046 C
HETATM   35  C14 UNL     1      29.872  40.662   0.938  1.00  0.00     0.046 C
ENDBRANCH  31  32
ENDBRANCH  28  31
ENDBRANCH   5  27
TORSDOF 9
ENDMDL