MODEL 3
REMARK VINA RESULT: -5.742787654      1.822      2.541
REMARK  3 active torsions:
REMARK  status: ('A' for Active; 'I' for Inactive)
REMARK    1  A    between atoms: S1_3  and  C2_4
REMARK    2  A    between atoms: C2_4  and  N2_5
REMARK    3  A    between atoms: N2_5  and  C3_7
ROOT
HETATM    1  N1  UNL     1      11.045 -34.699 -34.472  1.00  0.00    -0.183 NA
HETATM    2  C1  UNL     1       9.904 -34.533 -34.362  1.00  0.00     0.147 C
HETATM    3  S1  UNL     1       8.130 -34.301 -34.208  1.00  0.00     0.051 SA
ENDROOT
BRANCH   3   4
HETATM    4  C2  UNL     1       7.631 -33.083 -33.245  1.00  0.00     0.016 C
BRANCH   4   5
HETATM    5  N2  UNL     1       7.316 -32.125 -32.471  1.00  0.00    -0.345 N
ATOM      6  H2  UNL     1       7.847 -31.932 -31.622  1.00  0.00     0.170 HD
BRANCH   5   7
HETATM    7  C3  UNL     1       6.180 -31.325 -32.842  1.00  0.00     0.095 C
HETATM    8  C4  UNL     1       5.981 -30.183 -31.841  1.00  0.00     0.031 C
HETATM    9  C5  UNL     1       6.175 -28.906 -32.625  1.00  0.00    -0.012 C
HETATM   10  C6  UNL     1       4.986 -28.674 -33.520  1.00  0.00     0.005 C
HETATM   11  C9  UNL     1       7.193 -29.398 -33.671  1.00  0.00     0.011 C
HETATM   12  C7  UNL     1       5.037 -29.897 -34.430  1.00  0.00     0.007 C
HETATM   13  C8  UNL     1       6.345 -30.594 -34.135  1.00  0.00     0.009 C
ENDBRANCH   5   7
ENDBRANCH   4   5
ENDBRANCH   3   4
TORSDOF 3
ENDMDL