MODEL 2
REMARK VINA RESULT: -5.154092887      3.369      4.568
REMARK  2 active torsions:
REMARK  status: ('A' for Active; 'I' for Inactive)
REMARK    1  A    between atoms: C2_2  and  C3_3
REMARK    2  A    between atoms: C3_3  and  N1_5
ROOT
HETATM    1  N1  UNL     1       8.122 -31.706 -33.978  1.00  0.00    -0.160 NA
HETATM    2  O1  UNL     1       8.486 -32.518 -34.991  1.00  0.00    -0.262 OA
HETATM    3  C5  UNL     1       8.266 -33.819 -34.567  1.00  0.00     0.178 C
HETATM    4  C6  UNL     1       7.373 -34.578 -35.551  1.00  0.00     0.080 C
HETATM    5  C7  UNL     1       9.578 -34.561 -34.504  1.00  0.00     0.080 C
HETATM    6  O2  UNL     1       7.618 -33.795 -33.366  1.00  0.00    -0.333 OA
HETATM    7  C8  UNL     1       7.348 -32.460 -33.050  1.00  0.00     0.221 C
HETATM    8  C9  UNL     1       7.738 -32.273 -31.612  1.00  0.00     0.059 C
ENDROOT
BRANCH   1   9
HETATM    9  C3  UNL     1       7.336 -30.646 -34.559  1.00  0.00     0.085 C
HETATM   10  C4  UNL     1       5.858 -30.943 -34.556  1.00  0.00     0.029 C
BRANCH   9  11
HETATM   11  C2  UNL     1       7.562 -29.310 -33.905  1.00  0.00     0.017 C
HETATM   12  C1  UNL     1       6.464 -28.904 -32.968  1.00  0.00     0.006 C
ENDBRANCH   9  11
ENDBRANCH   1   9
TORSDOF 2
ENDMDL