MODEL 5
REMARK VINA RESULT: -4.052694346      0.457      1.333
REMARK  3 active torsions:
REMARK  status: ('A' for Active; 'I' for Inactive)
REMARK    1  A    between atoms: C2_2  and  S1_3
REMARK    2  A    between atoms: S1_3  and  C3_4
REMARK    3  A    between atoms: C3_4  and  N1_6
ROOT
HETATM    1  N1  UNL     1       4.323 -28.625 -34.188  1.00  0.00    -0.367 N
HETATM    2  C4  UNL     1       4.221 -28.514 -32.732  1.00  0.00     0.124 C
HETATM    3  C5  UNL     1       3.445 -27.239 -32.503  1.00  0.00     0.021 C
HETATM    4  C6  UNL     1       3.890 -26.422 -33.698  1.00  0.00     0.021 C
HETATM    5  C7  UNL     1       3.726 -27.448 -34.801  1.00  0.00     0.124 C
ENDROOT
BRANCH   1   6
HETATM    6  C3  UNL     1       4.924 -29.737 -34.836  1.00  0.00     0.136 C
HETATM    7  S2  UNL     1       4.949 -29.756 -36.463  1.00  0.00    -0.053 SA
BRANCH   6   8
HETATM    8  S1  UNL     1       5.633 -31.076 -33.894  1.00  0.00    -0.101 SA
BRANCH   8   9
HETATM    9  C2  UNL     1       7.261 -30.625 -33.251  1.00  0.00     0.077 C
HETATM   10  C1  UNL     1       7.893 -29.483 -34.003  1.00  0.00     0.016 C
ENDBRANCH   8   9
ENDBRANCH   6   8
ENDBRANCH   1   6
TORSDOF 3
ENDMDL