MODEL 1
REMARK VINA RESULT: -3.718349529      0.000      0.000
REMARK  1 active torsions:
REMARK  status: ('A' for Active; 'I' for Inactive)
REMARK    1  A    between atoms: N1_2  and  C3_4
ROOT
HETATM    1  C3  UNL     1       8.493 -33.473 -35.438  1.00  0.00     0.099 C
HETATM    2  C4  UNL     1       7.828 -32.756 -34.563  1.00  0.00     0.003 C
HETATM    3  C5  UNL     1       7.691 -33.284 -33.193  1.00  0.00     0.121 C
HETATM    4  S1  UNL     1       7.391 -32.059 -31.935  1.00  0.00    -0.163 SA
HETATM    5  C6  UNL     1       6.598 -30.567 -32.544  1.00  0.00     0.084 C
HETATM    6  C7  UNL     1       7.410 -30.027 -33.727  1.00  0.00     0.089 C
HETATM    7  S2  UNL     1       7.138 -31.207 -35.082  1.00  0.00    -0.131 SA
ENDROOT
BRANCH   1   8
HETATM    8  N1  UNL     1       9.084 -34.731 -35.123  1.00  0.00    -0.398 N
HETATM    9  C1  UNL     1       8.326 -35.962 -35.120  1.00  0.00     0.148 C
HETATM   10  C2  UNL     1      10.494 -34.740 -34.801  1.00  0.00     0.148 C
ENDBRANCH   1   8
TORSDOF 1
ENDMDL