MODEL 4
REMARK VINA RESULT: -4.928931665      2.609      3.485
REMARK  1 active torsions:
REMARK  status: ('A' for Active; 'I' for Inactive)
REMARK    1  A    between atoms: C2_2  and  C3_3
ROOT
HETATM    1  C3  UNL     1       6.225 -29.094 -32.446  1.00  0.00     0.161 C
HETATM    2  C4  UNL     1       5.064 -29.064 -31.567  1.00  0.00     0.062 C
HETATM    3  N1  UNL     1       4.139 -29.042 -30.843  1.00  0.00    -0.197 NA
ENDROOT
BRANCH   1   4
HETATM    4  C2  UNL     1       6.541 -30.561 -32.753  1.00  0.00     0.070 C
HETATM    5  C1  UNL     1       6.600 -31.313 -31.414  1.00  0.00     0.047 C
HETATM    6  C5  UNL     1       5.377 -31.113 -33.505  1.00  0.00     0.040 C
HETATM    7  C6  UNL     1       5.358 -30.658 -34.939  1.00  0.00     0.021 C
HETATM    8  C7  UNL     1       6.675 -30.218 -35.459  1.00  0.00     0.077 C
HETATM    9  S1  UNL     1       7.243 -31.319 -36.813  1.00  0.00    -0.159 SA
HETATM   10  C9  UNL     1       7.857 -30.655 -34.674  1.00  0.00     0.145 C
HETATM   11  C8  UNL     1       8.023 -32.030 -35.339  1.00  0.00     0.107 C
HETATM   12  O1  UNL     1       7.747 -30.687 -33.340  1.00  0.00    -0.372 OA
ENDBRANCH   1   4
TORSDOF 1
ENDMDL