MODEL 5
REMARK VINA RESULT: -5.407330003      2.326      4.147
REMARK  1 active torsions:
REMARK  status: ('A' for Active; 'I' for Inactive)
REMARK    1  A    between atoms: N2_4  and  C1_6
ROOT
HETATM    1  C1  UNL     1       4.399 -27.105 -33.813  1.00  0.00     0.132 C
HETATM    2  C2  UNL     1       3.892 -26.745 -35.144  1.00  0.00     0.030 C
HETATM    3  C3  UNL     1       3.889 -27.812 -36.179  1.00  0.00     0.032 C
HETATM    4  C4  UNL     1       4.808 -28.964 -35.889  1.00  0.00     0.273 C
HETATM    5  N3  UNL     1       4.683 -29.440 -34.523  1.00  0.00     0.095 N
HETATM    6  C5  UNL     1       5.503 -30.598 -34.409  1.00  0.00     0.273 C
HETATM    7  C6  UNL     1       5.812 -31.041 -33.026  1.00  0.00     0.030 C
HETATM    8  C7  UNL     1       6.142 -29.900 -32.087  1.00  0.00     0.004 C
HETATM    9  C8  UNL     1       5.009 -28.900 -32.227  1.00  0.00     0.038 C
HETATM   10  C9  UNL     1       5.116 -28.382 -33.667  1.00  0.00     0.246 C
ENDROOT
BRANCH   1  11
HETATM   11  N2  UNL     1       3.315 -27.073 -32.842  1.00  0.00    -0.336 N
HETATM   12  N1  UNL     1       2.709 -25.992 -32.743  1.00  0.00    -0.349 N
ATOM     13  H12 UNL     1       2.968 -25.188 -33.314  1.00  0.00     0.176 HD
ATOM     14  H11 UNL     1       1.950 -25.970 -32.062  1.00  0.00     0.176 HD
ATOM     15  H2  UNL     1       3.068 -27.887 -32.278  1.00  0.00     0.180 HD
ENDBRANCH   1  11
TORSDOF 1
ENDMDL