MODEL 3
REMARK VINA RESULT: -4.250449962      7.151      8.717
REMARK  1 active torsions:
REMARK  status: ('A' for Active; 'I' for Inactive)
REMARK    1  A    between atoms: C2_3  and  C3_4
ROOT
HETATM    1  N1  UNL     1       9.252 -34.303 -32.199  1.00  0.00    -0.197 NA
HETATM    2  C1  UNL     1       8.549 -34.413 -33.106  1.00  0.00     0.060 C
HETATM    3  C2  UNL     1       7.659 -34.577 -34.250  1.00  0.00     0.139 C
ENDROOT
BRANCH   3   4
HETATM    4  C3  UNL     1       8.295 -34.045 -35.513  1.00  0.00     0.069 C
HETATM    5  C4  UNL     1       9.775 -34.290 -35.419  1.00  0.00     0.089 C
HETATM    6  S1  UNL     1      10.633 -34.009 -36.977  1.00  0.00    -0.168 SA
HETATM    7  C5  UNL     1      10.761 -35.627 -37.815  1.00  0.00     0.074 C
HETATM    8  C6  UNL     1       9.486 -35.749 -38.652  1.00  0.00     0.020 C
HETATM    9  C7  UNL     1       8.366 -36.111 -37.702  1.00  0.00     0.075 C
HETATM   10  S2  UNL     1       7.542 -34.679 -37.007  1.00  0.00    -0.163 SA
ENDBRANCH   3   4
TORSDOF 1
ENDMDL