MODEL 4
REMARK VINA RESULT: -4.310488018      1.560      2.814
REMARK  1 active torsions:
REMARK  status: ('A' for Active; 'I' for Inactive)
REMARK    1  A    between atoms: C2_2  and  C3_3
ROOT
HETATM    1  C3  UNL     1       4.702 -29.493 -34.104  1.00  0.00     0.028 C
HETATM    2  C4  UNL     1       5.685 -28.749 -33.234  1.00  0.00     0.066 C
HETATM    3  C5  UNL     1       5.525 -29.017 -31.777  1.00  0.00     0.023 C
HETATM    4  S1  UNL     1       7.266 -29.415 -33.887  1.00  0.00    -0.076 SA
HETATM    5  N1  UNL     1       6.558 -30.541 -35.087  1.00  0.00    -0.234 NA
HETATM    6  C6  UNL     1       6.971 -31.907 -34.760  1.00  0.00     0.179 C
HETATM    7  S2  UNL     1       6.218 -31.637 -33.114  1.00  0.00    -0.132 SA
HETATM    8  C7  UNL     1       5.304 -30.833 -34.420  1.00  0.00     0.138 C
ENDROOT
BRANCH   1   9
HETATM    9  C2  UNL     1       4.583 -28.717 -35.402  1.00  0.00     0.004 C
HETATM   10  C1  UNL     1       3.813 -27.414 -35.150  1.00  0.00     0.005 C
ENDBRANCH   1   9
TORSDOF 1
ENDMDL