MODEL 4
REMARK VINA RESULT: -4.477452557      3.277      5.638
REMARK  1 active torsions:
REMARK  status: ('A' for Active; 'I' for Inactive)
REMARK    1  A    between atoms: O1_2  and  C2_3
ROOT
HETATM    1  C2  UNL     1       3.789 -27.508 -37.137  1.00  0.00     0.178 C
HETATM    2  C3  UNL     1       4.155 -27.986 -35.963  1.00  0.00     0.127 C
HETATM    3  O2  UNL     1       4.898 -29.160 -35.841  1.00  0.00    -0.342 OA
HETATM    4  C4  UNL     1       4.754 -29.857 -34.616  1.00  0.00     0.185 C
HETATM    5  C5  UNL     1       5.418 -29.158 -33.469  1.00  0.00    -0.017 C
HETATM    6  C6  UNL     1       5.228 -30.022 -32.236  1.00  0.00     0.018 C
HETATM    7  C7  UNL     1       6.920 -29.154 -33.762  1.00  0.00     0.018 C
HETATM    8  C8  UNL     1       4.883 -27.803 -33.172  1.00  0.00     0.092 C
HETATM    9  S1  UNL     1       3.739 -27.183 -34.431  1.00  0.00    -0.103 SA
ENDROOT
BRANCH   1  10
HETATM   10  O1  UNL     1       3.067 -26.380 -37.361  1.00  0.00    -0.365 OA
HETATM   11  C1  UNL     1       2.428 -25.960 -38.531  1.00  0.00     0.209 C
ENDBRANCH   1  10
TORSDOF 1
ENDMDL