MODEL 5
REMARK VINA RESULT: -5.944009176      2.649      4.065
REMARK  1 active torsions:
REMARK  status: ('A' for Active; 'I' for Inactive)
REMARK    1  A    between atoms: C4_4  and  C5_5
ROOT
HETATM    1  C1  UNL     1       7.274 -31.264 -33.146  1.00  0.00     0.000 C
HETATM    2  C2  UNL     1       7.743 -30.100 -33.936  1.00  0.00     0.000 C
HETATM    3  C3  UNL     1       6.866 -28.914 -33.974  1.00  0.00     0.007 C
HETATM    4  C4  UNL     1       5.938 -28.694 -32.861  1.00  0.00     0.018 C
HETATM    5  C8  UNL     1       5.796 -29.851 -31.902  1.00  0.00     0.007 C
HETATM    6  C9  UNL     1       5.806 -31.108 -32.770  1.00  0.00     0.000 C
ENDROOT
BRANCH   4   7
HETATM    7  C5  UNL     1       4.535 -28.265 -33.312  1.00  0.00     0.169 C
HETATM    8  C6  UNL     1       3.791 -27.603 -32.190  1.00  0.00     0.065 C
HETATM    9  C7  UNL     1       2.821 -26.551 -32.660  1.00  0.00     0.215 C
HETATM   10  O1  UNL     1       2.965 -26.241 -33.999  1.00  0.00    -0.211 OA
HETATM   11  O2  UNL     1       4.233 -26.262 -34.292  1.00  0.00    -0.067 OA
HETATM   12  O3  UNL     1       4.575 -27.522 -34.466  1.00  0.00    -0.205 OA
ENDBRANCH   4   7
TORSDOF 1
ENDMDL