MODEL 3
REMARK VINA RESULT: -5.965270197      2.237      4.998
REMARK  2 active torsions:
REMARK  status: ('A' for Active; 'I' for Inactive)
REMARK    1  A    between atoms: N5_14  and  S1_16
REMARK    2  A    between atoms: S1_16  and  N6_17
ROOT
HETATM    1  N1  UNL     1      65.257  -7.789   3.961  1.00  0.00    -0.382 N
ATOM      2  H11 UNL     1      65.704  -7.623   4.862  1.00  0.00     0.157 HD
ATOM      3  H12 UNL     1      64.289  -7.485   3.860  1.00  0.00     0.157 HD
HETATM    4  C1  UNL     1      65.980  -8.353   3.099  1.00  0.00     0.149 A
HETATM    5  N2  UNL     1      65.378  -8.577   1.886  1.00  0.00    -0.291 N
ATOM      6  H2  UNL     1      64.409  -8.278   1.771  1.00  0.00     0.172 HD
HETATM    7  C2  UNL     1      65.977  -9.158   0.852  1.00  0.00     0.340 A
HETATM    8  O1  UNL     1      65.371  -9.337  -0.236  1.00  0.00    -0.245 OA
HETATM    9  N3  UNL     1      67.252  -9.546   1.020  1.00  0.00    -0.250 N
ATOM     10  H3  UNL     1      67.737  -9.996   0.244  1.00  0.00     0.192 HD
HETATM   11  N4  UNL     1      67.888  -9.368   2.139  1.00  0.00    -0.278 N
ATOM     12  H4  UNL     1      68.856  -9.681   2.215  1.00  0.00     0.189 HD
HETATM   13  C3  UNL     1      67.284  -8.762   3.235  1.00  0.00     0.175 A
HETATM   14  N5  UNL     1      67.943  -8.620   4.273  1.00  0.00    -0.249 N
ATOM     15  H5  UNL     1      68.872  -9.007   4.104  1.00  0.00     0.182 HD
ENDROOT
BRANCH  14  16
HETATM   16  S1  UNL     1      67.911  -8.059   5.807  1.00  0.00     0.318 S
HETATM   17  O2  UNL     1      69.236  -8.016   6.555  1.00  0.00    -0.183 OA
HETATM   18  O3  UNL     1      67.196  -6.710   5.929  1.00  0.00    -0.183 OA
BRANCH  16  19
HETATM   19  N6  UNL     1      66.922  -9.195   6.762  1.00  0.00    -0.311 N
ATOM     20  H62 UNL     1      67.276  -9.857   7.452  1.00  0.00     0.170 HD
ATOM     21  H61 UNL     1      65.951  -9.053   6.484  1.00  0.00     0.170 HD
ENDBRANCH  16  19
ENDBRANCH  14  16
TORSDOF 2
ENDMDL