MODEL 5
REMARK VINA RESULT: -6.055594575      2.037      2.148
REMARK  3 active torsions:
REMARK  status: ('A' for Active; 'I' for Inactive)
REMARK    1  A    between atoms: C2_7  and  C3_8
REMARK    2  A    between atoms: C5_13  and  C6_14
REMARK    3  A    between atoms: C6_14  and  O3_15
ROOT
HETATM    1  C3  UNL     1      67.126  -8.270   2.752  1.00  0.00     0.141 A
HETATM    2  N3  UNL     1      66.726  -8.048   4.019  1.00  0.00    -0.305 N
ATOM      3  H3  UNL     1      66.012  -8.583   4.515  1.00  0.00     0.170 HD
HETATM    4  C4  UNL     1      67.418  -7.006   4.530  1.00  0.00     0.275 A
HETATM    5  O2  UNL     1      67.323  -6.503   5.685  1.00  0.00    -0.266 OA
HETATM    6  C5  UNL     1      68.278  -6.565   3.546  1.00  0.00     0.124 A
HETATM    7  N4  UNL     1      68.074  -7.356   2.479  1.00  0.00    -0.334 N
ATOM      8  H4  UNL     1      68.568  -7.275   1.590  1.00  0.00     0.168 HD
ENDROOT
BRANCH   1   9
HETATM    9  C2  UNL     1      66.650  -9.223   1.956  1.00  0.00     0.148 A
HETATM   10  N2  UNL     1      66.963 -10.590   1.994  1.00  0.00    -0.291 N
HETATM   11  N1  UNL     1      66.268 -11.293   0.999  1.00  0.00    -0.262 N
ATOM     12  H2  UNL     1      67.610 -11.016   2.658  1.00  0.00     0.187 HD
HETATM   13  C1  UNL     1      65.466 -10.369   0.272  1.00  0.00     0.312 A
ATOM     14  H1  UNL     1      66.328 -12.296   0.826  1.00  0.00     0.190 HD
HETATM   15  O1  UNL     1      64.713 -10.665  -0.693  1.00  0.00    -0.262 OA
HETATM   16  C7  UNL     1      65.697  -9.047   0.868  1.00  0.00     0.272 A
HETATM   17  O4  UNL     1      65.144  -7.991   0.468  1.00  0.00    -0.280 OA
ENDBRANCH   1   9
BRANCH   6  18
HETATM   18  C6  UNL     1      69.137  -5.552   3.649  1.00  0.00     0.166 C
BRANCH  18  19
HETATM   19  O3  UNL     1      68.646  -4.275   3.908  1.00  0.00    -0.370 OA
ATOM     20  H3  UNL     1      68.985  -3.794   4.654  1.00  0.00     0.216 HD
ENDBRANCH  18  19
ENDBRANCH   6  18
TORSDOF 3
ENDMDL