MODEL 4
REMARK VINA RESULT: -6.652349095      3.168      4.948
REMARK  2 active torsions:
REMARK  status: ('A' for Active; 'I' for Inactive)
REMARK    1  A    between atoms: N2_7  and  N3_8
REMARK    2  A    between atoms: N3_8  and  C3_10
ROOT
HETATM    1  N3  UNL     1      65.512  -8.653   3.224  1.00  0.00    -0.117 N
ATOM      2  H3  UNL     1      64.575  -8.392   3.530  1.00  0.00     0.206 HD
ENDROOT
BRANCH   1   3
HETATM    3  N2  UNL     1      65.657  -9.435   2.062  1.00  0.00    -0.149 N
HETATM    4  C2  UNL     1      66.143 -10.757   2.049  1.00  0.00     0.352 A
HETATM    5  N1  UNL     1      66.153 -11.228   0.721  1.00  0.00    -0.269 N
HETATM    6  O2  UNL     1      66.524 -11.469   3.021  1.00  0.00    -0.244 OA
HETATM    7  C1  UNL     1      65.670 -10.203  -0.140  1.00  0.00     0.319 A
ATOM      8  H1  UNL     1      66.457 -12.155   0.425  1.00  0.00     0.174 HD
HETATM    9  O1  UNL     1      65.530 -10.242  -1.403  1.00  0.00    -0.262 OA
HETATM   10  C5  UNL     1      65.361  -9.075   0.725  1.00  0.00     0.339 A
HETATM   11  O4  UNL     1      64.906  -7.960   0.366  1.00  0.00    -0.260 OA
ENDBRANCH   1   3
BRANCH   1  12
HETATM   12  C3  UNL     1      66.514  -8.260   3.905  1.00  0.00     0.716 A
HETATM   13  N4  UNL     1      67.601  -7.617   3.450  1.00  0.00    -0.127 N
HETATM   14  N5  UNL     1      68.437  -7.367   4.441  1.00  0.00    -0.237 N
ATOM     15  H4  UNL     1      67.759  -7.358   2.475  1.00  0.00     0.206 HD
HETATM   16  C4  UNL     1      67.893  -7.852   5.570  1.00  0.00     0.353 A
ATOM     17  H5  UNL     1      69.335  -6.891   4.364  1.00  0.00     0.192 HD
HETATM   18  O3  UNL     1      68.332  -7.840   6.739  1.00  0.00    -0.245 OA
HETATM   19  N6  UNL     1      66.698  -8.406   5.228  1.00  0.00    -0.137 N
ATOM     20  H6  UNL     1      66.047  -8.858   5.871  1.00  0.00     0.189 HD
ENDBRANCH   1  12
TORSDOF 2
ENDMDL