MODEL 1
REMARK VINA RESULT: -5.800532779      0.000      0.000
REMARK  4 active torsions:
REMARK  status: ('A' for Active; 'I' for Inactive)
REMARK    1  A    between atoms: C3_5  and  C4_6
REMARK    2  A    between atoms: C8_14  and  C9_15
REMARK    3  A    between atoms: C9_15  and  N3_16
REMARK    4  A    between atoms: C9_15  and  N4_20
ROOT
HETATM    1  C1  UNL     1      66.837 -11.376   3.642  1.00  0.00     0.043 C
HETATM    2  C2  UNL     1      66.900 -10.156   3.163  1.00  0.00     0.033 A
HETATM    3  N1  UNL     1      67.586  -9.150   3.725  1.00  0.00    -0.354 N
ATOM      4  H1  UNL     1      68.132  -9.224   4.584  1.00  0.00     0.166 HD
HETATM    5  C3  UNL     1      67.451  -8.030   2.994  1.00  0.00     0.064 A
HETATM    6  C7  UNL     1      66.652  -8.333   1.928  1.00  0.00     0.045 A
HETATM    7  C8  UNL     1      66.291  -9.659   2.009  1.00  0.00     0.027 A
ENDROOT
BRANCH   7   8
HETATM    8  C9  UNL     1      65.446 -10.466   1.112  1.00  0.00     0.413 C
BRANCH   8   9
HETATM    9  N3  UNL     1      64.462  -9.595   0.451  1.00  0.00    -0.046 N
ATOM     10  H33 UNL     1      64.376  -9.797  -0.545  1.00  0.00     0.277 HD
ATOM     11  H32 UNL     1      63.505  -9.816   0.728  1.00  0.00     0.277 HD
ATOM     12  H31 UNL     1      64.699  -8.619   0.629  1.00  0.00     0.277 HD
ENDBRANCH   8   9
BRANCH   8  13
HETATM   13  N4  UNL     1      66.300 -11.056   0.096  1.00  0.00    -0.046 N
ATOM     14  H43 UNL     1      66.038 -10.776  -0.849  1.00  0.00     0.277 HD
ATOM     15  H42 UNL     1      67.242 -10.666   0.098  1.00  0.00     0.277 HD
ATOM     16  H41 UNL     1      66.293 -12.068   0.223  1.00  0.00     0.277 HD
ENDBRANCH   8  13
ENDBRANCH   7   8
BRANCH   5  17
HETATM   17  C4  UNL     1      67.971  -6.838   3.216  1.00  0.00     0.118 A
HETATM   18  N2  UNL     1      69.290  -6.314   3.475  1.00  0.00    -0.315 N
HETATM   19  C5  UNL     1      68.839  -4.970   3.573  1.00  0.00     0.298 A
ATOM     20  H2  UNL     1      70.209  -6.749   3.558  1.00  0.00     0.169 HD
HETATM   21  O1  UNL     1      69.363  -3.850   3.788  1.00  0.00    -0.264 OA
HETATM   22  C6  UNL     1      67.493  -5.464   3.315  1.00  0.00     0.268 A
HETATM   23  O2  UNL     1      66.343  -4.926   3.210  1.00  0.00    -0.280 OA
ENDBRANCH   5  17
TORSDOF 4
ENDMDL