MODEL 4
REMARK VINA RESULT: -5.589438926      0.792      1.164
REMARK  3 active torsions:
REMARK  status: ('A' for Active; 'I' for Inactive)
REMARK    1  A    between atoms: N1_1  and  N2_4
REMARK    2  A    between atoms: N2_4  and  C1_6
REMARK    3  A    between atoms: C1_6  and  N3_7
ROOT
HETATM    1  C1  UNL     1      66.499  -8.290   3.868  1.00  0.00     0.138 C
HETATM    2  C3  UNL     1      66.243  -9.133   2.728  1.00  0.00     0.093 A
HETATM    3  C4  UNL     1      65.856  -8.590   1.520  1.00  0.00     0.113 A
HETATM    4  N6  UNL     1      65.617  -9.371   0.455  1.00  0.00    -0.318 N
ATOM      5  H6  UNL     1      65.333  -8.948  -0.429  1.00  0.00     0.170 HD
HETATM    6  C5  UNL     1      65.749 -10.710   0.545  1.00  0.00     0.327 A
HETATM    7  O1  UNL     1      65.515 -11.419  -0.481  1.00  0.00    -0.247 OA
HETATM    8  N7  UNL     1      66.125 -11.246   1.719  1.00  0.00    -0.275 N
ATOM      9  H7  UNL     1      66.224 -12.259   1.784  1.00  0.00     0.173 HD
HETATM   10  C6  UNL     1      66.376 -10.502   2.813  1.00  0.00     0.264 A
HETATM   11  O2  UNL     1      66.731 -11.060   3.907  1.00  0.00    -0.267 OA
ENDROOT
BRANCH   1  12
HETATM   12  N2  UNL     1      66.715  -8.845   5.024  1.00  0.00    -0.291 N
ATOM     13  H2  UNL     1      65.921  -9.236   5.531  1.00  0.00     0.188 HD
BRANCH  12  14
HETATM   14  N1  UNL     1      67.983  -8.933   5.604  1.00  0.00    -0.344 N
ATOM     15  H12 UNL     1      68.789  -8.793   4.995  1.00  0.00     0.176 HD
ATOM     16  H11 UNL     1      68.131  -9.129   6.594  1.00  0.00     0.176 HD
ENDBRANCH  12  14
ENDBRANCH   1  12
BRANCH   1  17
HETATM   17  N3  UNL     1      66.535  -6.881   3.828  1.00  0.00    -0.317 N
HETATM   18  C2  UNL     1      67.557  -6.189   3.489  1.00  0.00     0.202 C
HETATM   19  N4  UNL     1      67.533  -4.777   3.468  1.00  0.00    -0.066 NA
HETATM   20  N5  UNL     1      68.744  -6.866   3.124  1.00  0.00    -0.066 NA
ATOM     21  H3  UNL     1      65.687  -6.378   4.088  1.00  0.00     0.169 HD
ENDBRANCH   1  17
TORSDOF 3
ENDMDL