MODEL 5
REMARK VINA RESULT: -6.565213120      1.512      4.216
REMARK  0 active torsions:
REMARK  status: ('A' for Active; 'I' for Inactive)
ROOT
HETATM    1  O1  UNL     1      65.767 -11.200   0.453  1.00  0.00    -0.247 OA
HETATM    2  C1  UNL     1      66.076 -10.436   1.401  1.00  0.00     0.328 A
HETATM    3  N1  UNL     1      65.730  -9.141   1.296  1.00  0.00    -0.275 N
ATOM      4  H1  UNL     1      65.235  -8.813   0.466  1.00  0.00     0.173 HD
HETATM    5  C2  UNL     1      66.039  -8.267   2.292  1.00  0.00     0.267 A
HETATM    6  O2  UNL     1      65.728  -7.068   2.214  1.00  0.00    -0.267 OA
HETATM    7  C3  UNL     1      66.704  -8.697   3.413  1.00  0.00     0.133 A
HETATM    8  C4  UNL     1      67.039  -7.853   4.448  1.00  0.00     0.260 A
HETATM    9  O3  UNL     1      66.731  -6.627   4.386  1.00  0.00    -0.281 OA
HETATM   10  C5  UNL     1      67.712  -8.305   5.572  1.00  0.00     0.311 A
HETATM   11  O4  UNL     1      68.017  -7.540   6.513  1.00  0.00    -0.262 OA
HETATM   12  N2  UNL     1      68.017  -9.614   5.589  1.00  0.00    -0.262 N
ATOM     13  H2  UNL     1      68.513  -9.987   6.398  1.00  0.00     0.190 HD
HETATM   14  N3  UNL     1      67.703 -10.441   4.605  1.00  0.00    -0.281 N
ATOM     15  H3  UNL     1      67.964 -11.424   4.683  1.00  0.00     0.188 HD
HETATM   16  C6  UNL     1      67.053 -10.023   3.509  1.00  0.00     0.144 A
HETATM   17  N4  UNL     1      66.729 -10.862   2.499  1.00  0.00    -0.292 N
ATOM     18  H4  UNL     1      66.988 -11.845   2.571  1.00  0.00     0.172 HD
ENDROOT
TORSDOF 0
ENDMDL