MODEL 2
REMARK VINA RESULT: -6.108862452      1.940      3.072
REMARK  6 active torsions:
REMARK  status: ('A' for Active; 'I' for Inactive)
REMARK    1  A    between atoms: N1_1  and  C1_4
REMARK    2  A    between atoms: C2_9  and  N4_10
REMARK    3  A    between atoms: N4_10  and  O1_12
REMARK    4  A    between atoms: C3_14  and  N5_15
REMARK    5  A    between atoms: N5_15  and  S1_17
REMARK    6  A    between atoms: S1_17  and  N6_18
ROOT
HETATM    1  C1  UNL     1      66.894 -10.397   4.976  1.00  0.00     0.692 A
HETATM    2  N2  UNL     1      66.174 -11.133   4.119  1.00  0.00    -0.131 N
ATOM      3  H2  UNL     1      65.720 -11.981   4.458  1.00  0.00     0.205 HD
HETATM    4  N3  UNL     1      66.032 -10.794   2.833  1.00  0.00    -0.267 N
ATOM      5  H3  UNL     1      65.481 -11.367   2.193  1.00  0.00     0.189 HD
HETATM    6  C2  UNL     1      66.649  -9.657   2.404  1.00  0.00     0.186 A
HETATM    7  C3  UNL     1      67.398  -8.877   3.259  1.00  0.00     0.179 A
HETATM    8  N7  UNL     1      67.511  -9.258   4.541  1.00  0.00    -0.171 N
ATOM      9  H7  UNL     1      68.059  -8.696   5.193  1.00  0.00     0.186 HD
ENDROOT
BRANCH   7  10
HETATM   10  N5  UNL     1      67.974  -7.819   2.868  1.00  0.00    -0.249 N
ATOM     11  H5  UNL     1      68.490  -7.873   1.990  1.00  0.00     0.182 HD
BRANCH  10  12
HETATM   12  S1  UNL     1      67.975  -6.318   3.664  1.00  0.00     0.318 S
HETATM   13  O2  UNL     1      67.934  -6.460   5.172  1.00  0.00    -0.183 OA
HETATM   14  O3  UNL     1      66.867  -5.407   3.234  1.00  0.00    -0.183 OA
BRANCH  12  15
HETATM   15  N6  UNL     1      69.496  -5.532   3.311  1.00  0.00    -0.311 N
ATOM     16  H62 UNL     1      69.826  -5.273   2.381  1.00  0.00     0.170 HD
ATOM     17  H61 UNL     1      69.981  -5.386   4.196  1.00  0.00     0.170 HD
ENDBRANCH  12  15
ENDBRANCH  10  12
ENDBRANCH   7  10
BRANCH   6  18
HETATM   18  N4  UNL     1      66.563  -9.258   1.174  1.00  0.00    -0.249 N
ATOM     19  H4  UNL     1      65.792  -8.665   0.866  1.00  0.00     0.196 HD
BRANCH  18  20
HETATM   20  O1  UNL     1      67.542  -9.659   0.302  1.00  0.00    -0.288 OA
ATOM     21  H1  UNL     1      67.473  -9.374  -0.602  1.00  0.00     0.244 HD
ENDBRANCH  18  20
ENDBRANCH   6  18
BRANCH   1  22
HETATM   22  N1  UNL     1      66.990 -10.777   6.193  1.00  0.00    -0.233 N
ATOM     23  H12 UNL     1      67.849 -10.633   6.723  1.00  0.00     0.174 HD
ATOM     24  H11 UNL     1      66.192 -11.233   6.635  1.00  0.00     0.174 HD
ENDBRANCH   1  22
TORSDOF 6
ENDMDL