MODEL 2
REMARK VINA RESULT: -4.955740156      0.799      3.131
REMARK  5 active torsions:
REMARK  status: ('A' for Active; 'I' for Inactive)
REMARK    1  A    between atoms: C3_3  and  N1_4
REMARK    2  A    between atoms: N1_4  and  N3_8
REMARK    3  A    between atoms: C5_13  and  N5_14
REMARK    4  A    between atoms: N5_14  and  N6_16
REMARK    5  A    between atoms: N8_21  and  N9_22
ROOT
HETATM    1  C1  UNL     1      67.603 -11.490   3.637  1.00  0.00     0.076 C
HETATM    2  C2  UNL     1      66.941 -10.194   3.352  1.00  0.00     0.096 A
HETATM    3  C3  UNL     1      66.859  -9.218   4.341  1.00  0.00     0.187 A
HETATM    4  N4  UNL     1      66.249  -8.056   4.081  1.00  0.00    -0.164 N
HETATM    5  C4  UNL     1      66.171  -7.080   5.161  1.00  0.00     0.177 C
HETATM    6  C5  UNL     1      65.699  -7.763   2.886  1.00  0.00     0.716 A
HETATM    7  N7  UNL     1      65.792  -8.734   1.928  1.00  0.00    -0.109 N
ATOM      8  H7  UNL     1      65.390  -8.560   1.007  1.00  0.00     0.208 HD
HETATM    9  N8  UNL     1      66.389  -9.893   2.159  1.00  0.00    -0.190 N
ENDROOT
BRANCH   3  10
HETATM   10  N1  UNL     1      67.448  -9.517   5.619  1.00  0.00    -0.190 N
HETATM   11  N2  UNL     1      66.911 -10.262   6.392  1.00  0.00    -0.323 N
ATOM     12  H22 UNL     1      66.027 -10.718   6.164  1.00  0.00     0.179 HD
ATOM     13  H21 UNL     1      67.329 -10.474   7.297  1.00  0.00     0.179 HD
BRANCH  10  14
HETATM   14  N3  UNL     1      68.663  -8.891   5.931  1.00  0.00    -0.323 N
ATOM     15  H32 UNL     1      69.555  -9.288   5.638  1.00  0.00     0.179 HD
ATOM     16  H31 UNL     1      68.620  -8.030   6.474  1.00  0.00     0.179 HD
ENDBRANCH  10  14
ENDBRANCH   3  10
BRANCH   9  17
HETATM   17  N9  UNL     1      66.489 -10.878   1.163  1.00  0.00    -0.323 N
ATOM     18  H92 UNL     1      65.672 -11.401   0.847  1.00  0.00     0.178 HD
ATOM     19  H91 UNL     1      67.419 -11.033   0.775  1.00  0.00     0.178 HD
ENDBRANCH   9  17
BRANCH   6  20
HETATM   20  N5  UNL     1      65.105  -6.651   2.627  1.00  0.00    -0.137 N
ATOM     21  H5  UNL     1      65.131  -5.897   3.314  1.00  0.00     0.205 HD
BRANCH  20  22
HETATM   22  N6  UNL     1      64.419  -6.458   1.413  1.00  0.00    -0.331 N
ATOM     23  H62 UNL     1      64.783  -5.769   0.754  1.00  0.00     0.177 HD
ATOM     24  H61 UNL     1      63.579  -6.992   1.191  1.00  0.00     0.177 HD
ENDBRANCH  20  22
ENDBRANCH   6  20
TORSDOF 5
ENDMDL