MODEL 4
REMARK VINA RESULT: -6.078551041      2.355      4.099
REMARK  4 active torsions:
REMARK  status: ('A' for Active; 'I' for Inactive)
REMARK    1  A    between atoms: N1_1  and  C1_4
REMARK    2  A    between atoms: C3_13  and  N5_14
REMARK    3  A    between atoms: N5_14  and  S1_16
REMARK    4  A    between atoms: S1_16  and  N6_17
ROOT
HETATM    1  C1  UNL     1      66.161  -9.344   2.283  1.00  0.00     0.142 A
HETATM    2  C2  UNL     1      66.191 -10.715   2.392  1.00  0.00     0.291 A
HETATM    3  O1  UNL     1      66.126 -11.414   1.326  1.00  0.00    -0.264 OA
HETATM    4  N2  UNL     1      66.284 -11.299   3.598  1.00  0.00    -0.250 N
ATOM      5  H2  UNL     1      66.304 -12.317   3.663  1.00  0.00     0.192 HD
HETATM    6  N3  UNL     1      66.350 -10.577   4.696  1.00  0.00    -0.238 N
ATOM      7  H3  UNL     1      66.421 -11.031   5.606  1.00  0.00     0.208 HD
HETATM    8  N4  UNL     1      66.323  -9.244   4.607  1.00  0.00    -0.268 N
ATOM      9  H4  UNL     1      66.374  -8.695   5.466  1.00  0.00     0.190 HD
HETATM   10  C3  UNL     1      66.232  -8.605   3.442  1.00  0.00     0.164 A
ENDROOT
BRANCH  10  11
HETATM   11  N5  UNL     1      66.205  -7.322   3.349  1.00  0.00    -0.250 N
ATOM     12  H5  UNL     1      65.371  -6.885   2.957  1.00  0.00     0.182 HD
BRANCH  11  13
HETATM   13  S1  UNL     1      67.500  -6.301   3.849  1.00  0.00     0.318 S
HETATM   14  O2  UNL     1      67.175  -4.914   3.343  1.00  0.00    -0.183 OA
HETATM   15  O3  UNL     1      67.639  -6.311   5.341  1.00  0.00    -0.183 OA
BRANCH  13  16
HETATM   16  N6  UNL     1      68.945  -6.904   3.166  1.00  0.00    -0.311 N
ATOM     17  H62 UNL     1      69.527  -6.410   2.490  1.00  0.00     0.170 HD
ATOM     18  H61 UNL     1      69.113  -7.833   3.553  1.00  0.00     0.170 HD
ENDBRANCH  13  16
ENDBRANCH  11  13
ENDBRANCH  10  11
BRANCH   1  19
HETATM   19  N1  UNL     1      66.071  -8.796   1.115  1.00  0.00    -0.392 N
ATOM     20  H12 UNL     1      65.796  -9.320   0.285  1.00  0.00     0.156 HD
ATOM     21  H11 UNL     1      66.278  -7.804   1.006  1.00  0.00     0.156 HD
ENDBRANCH   1  19
TORSDOF 4
ENDMDL