MODEL 5
REMARK VINA RESULT: -6.181770603      1.616      2.537
REMARK  0 active torsions:
REMARK  status: ('A' for Active; 'I' for Inactive)
ROOT
HETATM    1  N1  UNL     1      68.377  -9.035   1.995  1.00  0.00    -0.386 N
ATOM      2  H11 UNL     1      67.893  -9.928   1.912  1.00  0.00     0.157 HD
ATOM      3  H12 UNL     1      69.169  -9.071   1.353  1.00  0.00     0.157 HD
HETATM    4  C1  UNL     1      68.086  -8.030   2.740  1.00  0.00     0.126 A
HETATM    5  N2  UNL     1      68.762  -6.784   2.855  1.00  0.00    -0.296 N
ATOM      6  H2  UNL     1      69.620  -6.530   2.364  1.00  0.00     0.172 HD
HETATM    7  C2  UNL     1      68.059  -5.951   3.755  1.00  0.00     0.323 A
HETATM    8  O1  UNL     1      68.415  -4.764   4.069  1.00  0.00    -0.247 OA
HETATM    9  N3  UNL     1      66.924  -6.661   4.227  1.00  0.00    -0.312 N
ATOM     10  H3  UNL     1      66.212  -6.296   4.860  1.00  0.00     0.166 HD
HETATM   11  C3  UNL     1      66.947  -7.978   3.662  1.00  0.00     0.244 A
HETATM   12  C4  UNL     1      65.674  -8.358   3.015  1.00  0.00     0.269 C
HETATM   13  O2  UNL     1      64.905  -7.544   2.449  1.00  0.00    -0.269 OA
HETATM   14  N4  UNL     1      65.547  -9.764   3.182  1.00  0.00    -0.288 N
ATOM     15  H4  UNL     1      64.915 -10.359   2.646  1.00  0.00     0.172 HD
HETATM   16  C5  UNL     1      66.422 -10.220   4.198  1.00  0.00     0.297 C
HETATM   17  O3  UNL     1      66.537 -11.422   4.575  1.00  0.00    -0.264 OA
HETATM   18  C6  UNL     1      67.121  -9.040   4.681  1.00  0.00     0.262 C
HETATM   19  O4  UNL     1      67.753  -8.916   5.740  1.00  0.00    -0.283 OA
ENDROOT
TORSDOF 0
ENDMDL