MODEL 4
REMARK VINA RESULT: -8.801835380      2.536      8.193
REMARK  6 active torsions:
REMARK  status: ('A' for Active; 'I' for Inactive)
REMARK    1  A    between atoms: C7_8  and  N2_9
REMARK    2  A    between atoms: N2_9  and  C8_11
REMARK    3  A    between atoms: C18_25  and  C19_26
REMARK    4  A    between atoms: C19_26  and  N4_27
REMARK    5  A    between atoms: N4_27  and  C21_29
REMARK    6  A    between atoms: C21_29  and  C22_30
ROOT
HETATM    1  C1  UNL     1      19.491   7.910   6.011  1.00  0.00     0.148 C
HETATM    2  N1  UNL     1      18.644   8.511   5.031  1.00  0.00    -0.391 N
HETATM    3  C2  UNL     1      17.278   8.515   5.302  1.00  0.00     0.099 C
HETATM    4  C3  UNL     1      16.457   9.193   4.291  1.00  0.00     0.015 A
HETATM    5  C4  UNL     1      15.123   9.135   4.727  1.00  0.00     0.016 A
HETATM    6  C5  UNL     1      14.144   9.692   3.973  1.00  0.00     0.003 A
HETATM    7  C6  UNL     1      14.483  10.310   2.783  1.00  0.00     0.032 A
HETATM    8  C7  UNL     1      15.777  10.380   2.338  1.00  0.00     0.063 A
HETATM    9  C17 UNL     1      16.813   9.808   3.101  1.00  0.00     0.107 A
HETATM   10  O1  UNL     1      18.015  10.001   2.458  1.00  0.00    -0.336 OA
HETATM   11  C18 UNL     1      19.307   9.536   2.918  1.00  0.00     0.185 C
HETATM   12  C26 UNL     1      19.069   8.290   3.673  1.00  0.00     0.159 C
ENDROOT
BRANCH   8  13
HETATM   13  N2  UNL     1      16.135  11.002   1.109  1.00  0.00    -0.383 N
ATOM     14  H2  UNL     1      16.644  11.885   1.108  1.00  0.00     0.160 HD
BRANCH  13  15
HETATM   15  C8  UNL     1      15.776  10.379  -0.121  1.00  0.00     0.082 C
HETATM   16  C9  UNL     1      16.858  10.562  -1.194  1.00  0.00     0.025 C
HETATM   17  C10 UNL     1      16.503   9.684  -2.342  1.00  0.00     0.009 C
HETATM   18  C11 UNL     1      15.086   9.674  -2.777  1.00  0.00     0.015 C
HETATM   19  C12 UNL     1      14.895  10.424  -4.086  1.00  0.00     0.237 C
HETATM   20  C15 UNL     1      14.056  10.048  -1.777  1.00  0.00    -0.005 C
HETATM   21  N3  UNL     1      13.680   9.950  -4.692  1.00  0.00    -0.075 N
HETATM   22  C13 UNL     1      12.594   9.825  -3.771  1.00  0.00     0.232 C
ATOM     23  H32 UNL     1      13.418  10.540  -5.482  1.00  0.00     0.277 HD
ATOM     24  H31 UNL     1      13.841   9.071  -5.183  1.00  0.00     0.277 HD
HETATM   25  C14 UNL     1      12.877  10.671  -2.535  1.00  0.00     0.032 C
HETATM   26  C16 UNL     1      14.546  11.038  -0.763  1.00  0.00     0.030 C
ENDBRANCH  13  15
ENDBRANCH   8  13
BRANCH  11  27
HETATM   27  C19 UNL     1      20.228   9.419   1.743  1.00  0.00     0.091 C
BRANCH  27  28
HETATM   28  N4  UNL     1      21.587   9.401   1.982  1.00  0.00    -0.393 N
HETATM   29  C20 UNL     1      22.482   8.452   1.512  1.00  0.00     0.148 C
BRANCH  28  30
HETATM   30  C21 UNL     1      22.163  10.578   2.578  1.00  0.00     0.153 C
BRANCH  30  31
HETATM   31  C22 UNL     1      23.064  10.285   3.742  1.00  0.00     0.139 C
HETATM   32  C23 UNL     1      22.316  10.260   5.057  1.00  0.00     0.035 C
HETATM   33  C24 UNL     1      23.461  10.522   6.035  1.00  0.00     0.029 C
HETATM   34  C25 UNL     1      24.377  11.366   5.194  1.00  0.00     0.168 C
HETATM   35  O2  UNL     1      23.898  11.383   3.912  1.00  0.00    -0.384 OA
ENDBRANCH  30  31
ENDBRANCH  28  30
ENDBRANCH  27  28
ENDBRANCH  11  27
TORSDOF 6
ENDMDL