MODEL 1
REMARK VINA RESULT: -8.641751999      0.000      0.000
REMARK  8 active torsions:
REMARK  status: ('A' for Active; 'I' for Inactive)
REMARK    1  A    between atoms: C2_2  and  O1_4
REMARK    2  A    between atoms: O1_4  and  C4_5
REMARK    3  A    between atoms: C4_5  and  C5_6
REMARK    4  A    between atoms: C13_16  and  C14_17
REMARK    5  A    between atoms: C14_17  and  O4_18
REMARK    6  A    between atoms: C16_22  and  C17_23
REMARK    7  A    between atoms: C17_23  and  O6_25
REMARK    8  A    between atoms: C17_23  and  C19_27
ROOT
HETATM    1  C5  UNL     1      15.256   8.514  -1.333  1.00  0.00     0.011 C
HETATM    2  C6  UNL     1      14.439   8.614  -0.040  1.00  0.00     0.013 C
HETATM    3  C7  UNL     1      15.391   9.433   0.786  1.00  0.00     0.011 C
HETATM    4  C8  UNL     1      15.696  10.547  -0.167  1.00  0.00     0.029 C
HETATM    5  C9  UNL     1      14.569  11.313  -0.737  1.00  0.00     0.024 C
HETATM    6  C10 UNL     1      16.237   9.680  -1.318  1.00  0.00     0.024 C
HETATM    7  C11 UNL     1      16.692  11.399   0.464  1.00  0.00     0.204 C
HETATM    8  O2  UNL     1      17.631  11.895  -0.193  1.00  0.00    -0.288 OA
HETATM    9  C12 UNL     1      16.579  11.670   1.885  1.00  0.00     0.209 C
HETATM   10  O3  UNL     1      16.863  12.783   2.383  1.00  0.00    -0.288 OA
HETATM   11  C13 UNL     1      16.104  10.574   2.801  1.00  0.00     0.078 C
HETATM   12  C15 UNL     1      15.583  11.237   4.086  1.00  0.00     0.189 C
HETATM   13  O5  UNL     1      15.567  10.485   5.177  1.00  0.00    -0.382 OA
HETATM   14  C16 UNL     1      14.991   9.302   5.336  1.00  0.00     0.155 C
HETATM   15  C22 UNL     1      14.140   8.710   4.276  1.00  0.00     0.036 C
HETATM   16  C23 UNL     1      14.710   8.537   2.928  1.00  0.00     0.013 C
HETATM   17  C24 UNL     1      15.010   9.784   2.148  1.00  0.00    -0.020 C
HETATM   18  C25 UNL     1      13.714  10.584   2.141  1.00  0.00     0.017 C
ENDROOT
BRANCH  14  19
HETATM   19  C17 UNL     1      14.075   9.395   6.580  1.00  0.00     0.083 C
HETATM   20  C18 UNL     1      14.131  10.748   7.188  1.00  0.00     0.049 C
BRANCH  19  21
HETATM   21  O6  UNL     1      12.774   9.211   6.059  1.00  0.00    -0.387 OA
ATOM     22  H6  UNL     1      12.773   8.310   5.758  1.00  0.00     0.210 HD
ENDBRANCH  19  21
BRANCH  19  23
HETATM   23  C19 UNL     1      14.323   8.262   7.522  1.00  0.00     0.014 C
HETATM   24  C20 UNL     1      15.820   8.124   7.685  1.00  0.00     0.012 C
HETATM   25  C21 UNL     1      13.770   6.951   7.092  1.00  0.00     0.012 C
ENDBRANCH  19  23
ENDBRANCH  14  19
BRANCH  11  26
HETATM   26  C14 UNL     1      17.326   9.839   3.205  1.00  0.00     0.184 C
BRANCH  26  27
HETATM   27  O4  UNL     1      18.414  10.606   3.593  1.00  0.00    -0.400 OA
ATOM     28  H4  UNL     1      19.245  10.411   3.174  1.00  0.00     0.209 HD
ENDBRANCH  26  27
ENDBRANCH  11  26
BRANCH   1  29
HETATM   29  C4  UNL     1      14.309   8.538  -2.477  1.00  0.00     0.172 C
BRANCH  29  30
HETATM   30  O1  UNL     1      14.909   8.867  -3.686  1.00  0.00    -0.386 OA
BRANCH  30  31
HETATM   31  C2  UNL     1      14.034   9.496  -4.533  1.00  0.00     0.113 C
HETATM   32  C1  UNL     1      14.748  10.712  -5.107  1.00  0.00     0.039 C
HETATM   33  C3  UNL     1      12.777   9.974  -3.874  1.00  0.00     0.039 C
ENDBRANCH  30  31
ENDBRANCH  29  30
ENDBRANCH   1  29
TORSDOF 8
ENDMDL