MODEL 1
REMARK VINA RESULT: -9.063876547      0.000      0.000
REMARK  8 active torsions:
REMARK  status: ('A' for Active; 'I' for Inactive)
REMARK    1  A    between atoms: C2_2  and  C3_3
REMARK    2  A    between atoms: C3_3  and  S1_4
REMARK    3  A    between atoms: S1_4  and  N1_7
REMARK    4  A    between atoms: N1_7  and  C4_9
REMARK    5  A    between atoms: C7_16  and  C8_17
REMARK    6  A    between atoms: C8_17  and  N3_18
REMARK       I    between atoms: N3_18  and  C9_19
REMARK    7  A    between atoms: C9_19  and  O5_21
REMARK    8  A    between atoms: O5_21  and  C10_22
ROOT
HETATM    1  C4  UNL     1      15.369   9.976  -1.184  1.00  0.00     0.161 A
HETATM    2  N2  UNL     1      16.098  10.828  -0.440  1.00  0.00    -0.337 N
ATOM      3  H2  UNL     1      16.703  11.517  -0.887  1.00  0.00     0.168 HD
HETATM    4  C5  UNL     1      16.022  10.762   0.857  1.00  0.00     0.052 A
HETATM    5  C6  UNL     1      15.200   9.826   1.411  1.00  0.00     0.136 A
HETATM    6  S2  UNL     1      14.549   9.063   0.036  1.00  0.00    -0.027 SA
HETATM    7  O3  UNL     1      15.041   9.659   2.824  1.00  0.00    -0.330 OA
HETATM    8  C7  UNL     1      16.090  10.163   3.623  1.00  0.00     0.182 C
HETATM    9  C18 UNL     1      16.211  11.635   3.175  1.00  0.00     0.045 C
HETATM   10  C19 UNL     1      16.782  11.666   1.812  1.00  0.00     0.063 C
ENDROOT
BRANCH   8  11
HETATM   11  C8  UNL     1      15.900  10.157   5.089  1.00  0.00     0.194 C
BRANCH  11  12
HETATM   12  N3  UNL     1      14.952   9.468   5.675  1.00  0.00    -0.360 NA
HETATM   13  C9  UNL     1      13.966   8.665   6.285  1.00  0.00     0.444 C
HETATM   14  O4  UNL     1      13.952   7.379   6.281  1.00  0.00    -0.221 OA
BRANCH  13  15
HETATM   15  O5  UNL     1      12.883   9.146   6.975  1.00  0.00    -0.254 OA
BRANCH  15  16
HETATM   16  C10 UNL     1      12.908   9.729   8.269  1.00  0.00     0.059 C
HETATM   17  C11 UNL     1      13.529  11.063   8.370  1.00  0.00     0.065 C
HETATM   18  C12 UNL     1      13.248  11.711   9.711  1.00  0.00     0.006 C
HETATM   19  C13 UNL     1      14.073  11.185  10.834  1.00  0.00     0.001 C
HETATM   20  C14 UNL     1      15.455  10.893  10.341  1.00  0.00     0.004 C
HETATM   21  C15 UNL     1      15.660   9.520   9.824  1.00  0.00     0.027 C
HETATM   22  C16 UNL     1      14.543   8.558   9.912  1.00  0.00    -0.024 C
HETATM   23  C17 UNL     1      13.254   8.720   9.316  1.00  0.00     0.029 C
ENDBRANCH  15  16
ENDBRANCH  13  15
ENDBRANCH  11  12
ENDBRANCH   8  11
BRANCH   1  24
HETATM   24  N1  UNL     1      15.403   9.889  -2.421  1.00  0.00    -0.264 N
ATOM     25  H1  UNL     1      16.330  10.183  -2.727  1.00  0.00     0.180 HD
BRANCH  24  26
HETATM   26  S1  UNL     1      14.546   9.489  -3.744  1.00  0.00     0.232 S
HETATM   27  O1  UNL     1      14.413   7.977  -3.878  1.00  0.00    -0.206 OA
HETATM   28  O2  UNL     1      15.083   9.992  -5.065  1.00  0.00    -0.206 OA
BRANCH  26  29
HETATM   29  C3  UNL     1      12.843  10.092  -3.684  1.00  0.00     0.163 C
BRANCH  29  30
HETATM   30  C2  UNL     1      12.135   9.700  -4.961  1.00  0.00     0.012 C
HETATM   31  C1  UNL     1      10.642   9.696  -4.849  1.00  0.00     0.006 C
ENDBRANCH  29  30
ENDBRANCH  26  29
ENDBRANCH  24  26
ENDBRANCH   1  24
TORSDOF 8
ENDMDL