MODEL 5
REMARK VINA RESULT: -8.366114981      3.986      6.330
REMARK  8 active torsions:
REMARK  status: ('A' for Active; 'I' for Inactive)
REMARK    1  A    between atoms: C10_10  and  O1_11
REMARK    2  A    between atoms: C11_13  and  O2_14
REMARK    3  A    between atoms: O2_14  and  S1_15
REMARK    4  A    between atoms: S1_15  and  C12_18
REMARK    5  A    between atoms: C12_18  and  C13_19
REMARK    6  A    between atoms: C13_19  and  C14_20
REMARK    7  A    between atoms: C14_20  and  N1_21
REMARK    8  A    between atoms: C19_26  and  O5_27
ROOT
HETATM    1  C1  UNL     1      15.360   9.755   7.784  1.00  0.00     0.010 C
HETATM    2  C2  UNL     1      15.759   8.645   6.875  1.00  0.00    -0.014 C
HETATM    3  C3  UNL     1      14.764   7.508   7.078  1.00  0.00     0.005 C
HETATM    4  C4  UNL     1      13.581   7.959   6.298  1.00  0.00     0.005 C
HETATM    5  C5  UNL     1      14.058   9.070   5.344  1.00  0.00    -0.010 C
HETATM    6  C6  UNL     1      13.384   8.815   4.054  1.00  0.00     0.005 C
HETATM    7  C7  UNL     1      13.900   9.467   2.832  1.00  0.00     0.006 C
HETATM    8  C8  UNL     1      15.364   9.754   2.814  1.00  0.00    -0.001 C
HETATM    9  C9  UNL     1      15.800  10.093   1.385  1.00  0.00     0.039 C
HETATM   10  C10 UNL     1      17.314   9.854   1.400  1.00  0.00     0.151 C
HETATM   11  C11 UNL     1      17.965  10.840   2.313  1.00  0.00     0.200 C
HETATM   12  C19 UNL     1      17.016  11.590   3.192  1.00  0.00     0.159 C
HETATM   13  C20 UNL     1      15.853  10.795   3.730  1.00  0.00    -0.011 C
HETATM   14  C21 UNL     1      14.829  11.793   4.193  1.00  0.00     0.018 C
HETATM   15  C22 UNL     1      16.349  10.078   4.997  1.00  0.00     0.017 C
HETATM   16  C23 UNL     1      15.517   8.928   5.396  1.00  0.00    -0.006 C
ENDROOT
BRANCH  11  17
HETATM   17  O2  UNL     1      19.036  10.306   3.020  1.00  0.00    -0.265 OA
BRANCH  17  18
HETATM   18  S1  UNL     1      20.517  10.510   2.340  1.00  0.00     0.265 S
HETATM   19  O3  UNL     1      21.314  11.588   3.062  1.00  0.00    -0.199 OA
HETATM   20  O4  UNL     1      20.362  11.040   0.920  1.00  0.00    -0.199 OA
BRANCH  18  21
HETATM   21  C12 UNL     1      21.523   9.083   2.243  1.00  0.00     0.172 C
BRANCH  21  22
HETATM   22  C13 UNL     1      20.824   7.949   2.965  1.00  0.00     0.047 C
BRANCH  22  23
HETATM   23  C14 UNL     1      21.882   6.862   3.160  1.00  0.00     0.273 C
BRANCH  23  24
HETATM   24  N1  UNL     1      21.499   5.946   4.189  1.00  0.00     0.088 N
HETATM   25  C15 UNL     1      20.082   5.782   4.254  1.00  0.00     0.272 C
HETATM   26  C16 UNL     1      19.823   4.279   4.174  1.00  0.00     0.032 C
HETATM   27  C17 UNL     1      21.089   3.726   3.512  1.00  0.00     0.032 C
HETATM   28  C18 UNL     1      22.126   4.664   4.065  1.00  0.00     0.272 C
ENDBRANCH  23  24
ENDBRANCH  22  23
ENDBRANCH  21  22
ENDBRANCH  18  21
ENDBRANCH  17  18
ENDBRANCH  11  17
BRANCH  10  29
HETATM   29  O1  UNL     1      17.850   9.816   0.138  1.00  0.00    -0.393 OA
ATOM     30  H1  UNL     1      18.449   9.088   0.021  1.00  0.00     0.210 HD
ENDBRANCH  10  29
BRANCH  12  31
HETATM   31  O5  UNL     1      16.611  12.765   2.552  1.00  0.00    -0.392 OA
ATOM     32  H5  UNL     1      17.124  13.497   2.873  1.00  0.00     0.210 HD
ENDBRANCH  12  31
TORSDOF 8
ENDMDL