MODEL 2
REMARK VINA RESULT: -9.427516387      2.789      8.477
REMARK  7 active torsions:
REMARK  status: ('A' for Active; 'I' for Inactive)
REMARK    1  A    between atoms: O1_1  and  C1_3
REMARK    2  A    between atoms: C1_3  and  C2_4
REMARK    3  A    between atoms: C5_7  and  O2_8
REMARK    4  A    between atoms: O2_8  and  C6_9
REMARK    5  A    between atoms: C8_11  and  C9_12
REMARK    6  A    between atoms: C12_15  and  C13_16
REMARK    7  A    between atoms: N3_29  and  C21_31
ROOT
HETATM    1  C6  UNL     1      16.628   8.908   4.512  1.00  0.00     0.114 A
HETATM    2  C7  UNL     1      16.334   9.166   3.159  1.00  0.00     0.055 A
HETATM    3  C8  UNL     1      15.073   9.451   2.715  1.00  0.00     0.009 A
HETATM    4  C19 UNL     1      14.074   9.479   3.656  1.00  0.00     0.103 A
HETATM    5  N2  UNL     1      14.347   9.236   4.939  1.00  0.00    -0.349 N
ATOM      6  H2  UNL     1      13.579   9.266   5.608  1.00  0.00     0.167 HD
HETATM    7  C20 UNL     1      15.577   8.953   5.400  1.00  0.00     0.135 A
HETATM    8  N3  UNL     1      15.748   8.735   6.670  1.00  0.00    -0.369 N
ATOM      9  H3  UNL     1      16.680   8.524   7.026  1.00  0.00     0.161 HD
ENDROOT
BRANCH   3  10
HETATM   10  C9  UNL     1      14.811   9.714   1.309  1.00  0.00     0.043 A
HETATM   11  C10 UNL     1      13.618  10.165   0.843  1.00  0.00     0.031 A
HETATM   12  C11 UNL     1      13.427  10.402  -0.522  1.00  0.00     0.011 A
HETATM   13  C12 UNL     1      14.464  10.173  -1.398  1.00  0.00    -0.038 A
HETATM   14  C18 UNL     1      15.654   9.719  -0.911  1.00  0.00     0.096 A
HETATM   15  N1  UNL     1      15.796   9.505   0.406  1.00  0.00    -0.365 N
ATOM     16  H1  UNL     1      16.696   9.166   0.745  1.00  0.00     0.165 HD
BRANCH  13  17
HETATM   17  C13 UNL     1      14.223  10.438  -2.842  1.00  0.00     0.024 C
HETATM   18  C14 UNL     1      13.182   9.518  -3.434  1.00  0.00     0.036 C
HETATM   19  C15 UNL     1      12.967   9.945  -4.864  1.00  0.00     0.168 C
HETATM   20  O3  UNL     1      14.107  10.460  -5.461  1.00  0.00    -0.391 OA
HETATM   21  C16 UNL     1      15.270   9.884  -5.005  1.00  0.00     0.168 C
HETATM   22  C17 UNL     1      15.540  10.262  -3.573  1.00  0.00     0.036 C
ENDBRANCH  13  17
ENDBRANCH   3  10
BRANCH   1  23
HETATM   23  O2  UNL     1      17.893   8.637   4.860  1.00  0.00    -0.342 OA
BRANCH  23  24
HETATM   24  C5  UNL     1      19.003   8.036   4.401  1.00  0.00     0.129 C
HETATM   25  C4  UNL     1      19.939   7.792   5.597  1.00  0.00     0.033 C
HETATM   26  C3  UNL     1      21.140   7.035   5.136  1.00  0.00     0.009 C
HETATM   27  C2  UNL     1      21.906   7.946   4.199  1.00  0.00     0.009 C
HETATM   28  C26 UNL     1      21.024   8.156   2.983  1.00  0.00     0.009 C
HETATM   29  C25 UNL     1      19.802   8.925   3.432  1.00  0.00     0.033 C
BRANCH  27  30
HETATM   30  C1  UNL     1      23.221   7.328   3.874  1.00  0.00     0.168 C
BRANCH  30  31
HETATM   31  O1  UNL     1      23.393   7.170   2.501  1.00  0.00    -0.400 OA
ATOM     32  H1  UNL     1      23.967   7.835   2.139  1.00  0.00     0.209 HD
ENDBRANCH  30  31
ENDBRANCH  27  30
ENDBRANCH  23  24
ENDBRANCH   1  23
BRANCH   8  33
HETATM   33  C21 UNL     1      14.643   8.788   7.570  1.00  0.00     0.083 C
HETATM   34  C22 UNL     1      14.888   7.963   8.831  1.00  0.00     0.025 C
HETATM   35  C23 UNL     1      14.135   9.074   9.574  1.00  0.00     0.004 C
HETATM   36  C24 UNL     1      14.674  10.014   8.485  1.00  0.00     0.025 C
ENDBRANCH   8  33
TORSDOF 7
ENDMDL