MODEL 1
REMARK VINA RESULT: -9.407555212      0.000      0.000
REMARK  8 active torsions:
REMARK  status: ('A' for Active; 'I' for Inactive)
REMARK    1  A    between atoms: C5_5  and  C6_6
REMARK    2  A    between atoms: C6_6  and  N1_7
REMARK    3  A    between atoms: N1_7  and  C7_9
REMARK    4  A    between atoms: C8_12  and  N3_13
REMARK    5  A    between atoms: N4_16  and  C11_17
REMARK    6  A    between atoms: C11_17  and  C12_18
REMARK    7  A    between atoms: C17_25  and  N6_26
REMARK    8  A    between atoms: N6_26  and  C18_28
ROOT
HETATM    1  C7  UNL     1      17.788   8.710   3.935  1.00  0.00     0.707 A
HETATM    2  N2  UNL     1      17.178   9.272   2.850  1.00  0.00    -0.021 N
ATOM      3  H2  UNL     1      17.725   9.440   2.006  1.00  0.00     0.203 HD
HETATM    4  C8  UNL     1      15.878   9.609   2.864  1.00  0.00     0.709 A
HETATM    5  N5  UNL     1      15.201   9.362   4.014  1.00  0.00    -0.021 N
ATOM      6  H5  UNL     1      14.212   9.610   4.047  1.00  0.00     0.203 HD
HETATM    7  C17 UNL     1      15.743   8.814   5.108  1.00  0.00     0.707 A
HETATM    8  N7  UNL     1      17.055   8.494   5.040  1.00  0.00    -0.021 N
ATOM      9  H7  UNL     1      17.503   8.075   5.855  1.00  0.00     0.203 HD
ENDROOT
BRANCH   4  10
HETATM   10  N3  UNL     1      15.211  10.203   1.741  1.00  0.00    -0.213 N
HETATM   11  C9  UNL     1      16.017  10.880   0.765  1.00  0.00     0.171 C
HETATM   12  C10 UNL     1      15.529  10.791  -0.643  1.00  0.00     0.293 C
HETATM   13  N4  UNL     1      14.077  10.898  -0.710  1.00  0.00     0.092 N
HETATM   14  C15 UNL     1      13.455   9.891   0.143  1.00  0.00     0.293 C
HETATM   15  C16 UNL     1      13.786  10.140   1.588  1.00  0.00     0.171 C
BRANCH  13  16
HETATM   16  C11 UNL     1      13.624  10.679  -2.052  1.00  0.00     0.277 C
BRANCH  16  17
HETATM   17  C12 UNL     1      14.699  10.136  -2.958  1.00  0.00     0.014 A
HETATM   18  C13 UNL     1      14.480  10.203  -4.439  1.00  0.00     0.007 A
HETATM   19  C14 UNL     1      14.340   8.883  -3.769  1.00  0.00     0.007 A
ENDBRANCH  16  17
ENDBRANCH  13  16
ENDBRANCH   4  10
BRANCH   1  20
HETATM   20  N1  UNL     1      19.029   8.439   3.797  1.00  0.00    -0.220 N
ATOM     21  H1  UNL     1      19.265   7.446   3.805  1.00  0.00     0.178 HD
BRANCH  20  22
HETATM   22  C6  UNL     1      20.125   9.325   3.633  1.00  0.00     0.184 C
BRANCH  22  23
HETATM   23  C5  UNL     1      20.874   9.001   2.365  1.00  0.00     0.001 A
HETATM   24  C4  UNL     1      20.477   9.261   1.084  1.00  0.00     0.017 A
HETATM   25  C3  UNL     1      21.298   8.890   0.096  1.00  0.00     0.015 A
HETATM   26  C2  UNL     1      22.474   8.280   0.452  1.00  0.00    -0.021 A
HETATM   27  C1  UNL     1      23.561   7.774  -0.468  1.00  0.00     0.056 C
HETATM   28  S1  UNL     1      22.385   8.247   2.154  1.00  0.00    -0.098 SA
ENDBRANCH  22  23
ENDBRANCH  20  22
ENDBRANCH   1  20
BRANCH   7  29
HETATM   29  N6  UNL     1      14.998   8.640   6.119  1.00  0.00    -0.220 N
ATOM     30  H6  UNL     1      15.259   7.872   6.739  1.00  0.00     0.178 HD
BRANCH  29  31
HETATM   31  C18 UNL     1      13.841   9.381   6.499  1.00  0.00     0.099 C
HETATM   32  C19 UNL     1      13.105   8.538   7.549  1.00  0.00     0.026 C
HETATM   33  C20 UNL     1      13.925   8.596   8.842  1.00  0.00     0.002 C
HETATM   34  C21 UNL     1      13.566   9.915   9.493  1.00  0.00     0.000 C
HETATM   35  C22 UNL     1      13.354  10.932   8.414  1.00  0.00     0.002 C
HETATM   36  C23 UNL     1      14.184  10.692   7.184  1.00  0.00     0.026 C
ENDBRANCH  29  31
ENDBRANCH   7  29
TORSDOF 8
ENDMDL