MODEL 3
REMARK VINA RESULT: -9.510231008      3.891      9.954
REMARK  6 active torsions:
REMARK  status: ('A' for Active; 'I' for Inactive)
REMARK    1  A    between atoms: C6_6  and  C7_7
REMARK    2  A    between atoms: C11_15  and  C12_16
REMARK    3  A    between atoms: C12_16  and  N3_17
REMARK    4  A    between atoms: C15_20  and  N4_21
REMARK    5  A    between atoms: C18_24  and  C19_25
REMARK    6  A    between atoms: C18_24  and  N6_28
ROOT
HETATM    1  C19 UNL     1      12.905   8.575   7.936  1.00  0.00     0.159 C
HETATM    2  C20 UNL     1      13.324   7.387   7.205  1.00  0.00     0.061 C
HETATM    3  N5  UNL     1      13.664   6.469   6.624  1.00  0.00    -0.197 NA
ENDROOT
BRANCH   1   4
HETATM    4  C18 UNL     1      14.014   9.585   7.879  1.00  0.00     0.096 C
HETATM    5  C17 UNL     1      15.305   8.906   8.314  1.00  0.00     0.056 C
HETATM    6  C16 UNL     1      16.342   9.628   7.483  1.00  0.00     0.120 C
HETATM    7  N4  UNL     1      15.699  10.177   6.342  1.00  0.00    -0.406 N
HETATM    8  C22 UNL     1      14.293  10.085   6.472  1.00  0.00     0.152 C
BRANCH   7   9
HETATM    9  C15 UNL     1      16.283   9.868   5.092  1.00  0.00     0.082 C
HETATM   10  C14 UNL     1      15.522   8.936   4.218  1.00  0.00     0.055 C
HETATM   11  C13 UNL     1      15.184   9.633   2.925  1.00  0.00     0.275 C
HETATM   12  N3  UNL     1      16.364   9.937   2.114  1.00  0.00     0.092 N
HETATM   13  C24 UNL     1      17.356  10.561   3.030  1.00  0.00     0.275 C
HETATM   14  C23 UNL     1      16.690  11.066   4.290  1.00  0.00     0.055 C
BRANCH  12  15
HETATM   15  C12 UNL     1      15.983  10.989   1.228  1.00  0.00     0.314 C
BRANCH  15  16
HETATM   16  C11 UNL     1      15.926  10.663  -0.206  1.00  0.00     0.005 A
HETATM   17  C2  UNL     1      17.131  10.554  -0.916  1.00  0.00    -0.052 A
HETATM   18  C1  UNL     1      18.444  10.729  -0.201  1.00  0.00     0.049 C
HETATM   19  C3  UNL     1      17.113  10.290  -2.258  1.00  0.00     0.008 A
HETATM   20  C4  UNL     1      15.956  10.118  -2.982  1.00  0.00     0.016 A
HETATM   21  C5  UNL     1      14.764  10.222  -2.300  1.00  0.00     0.017 A
HETATM   22  C6  UNL     1      13.453  10.117  -2.740  1.00  0.00     0.042 A
HETATM   23  C10 UNL     1      14.766  10.492  -0.923  1.00  0.00     0.069 A
HETATM   24  N1  UNL     1      12.688  10.319  -1.657  1.00  0.00    -0.303 N
HETATM   25  N2  UNL     1      13.461  10.533  -0.621  1.00  0.00    -0.299 N
ATOM     26  H1  UNL     1      11.668  10.308  -1.643  1.00  0.00     0.186 HD
ATOM     27  H2  UNL     1      13.106  10.713   0.318  1.00  0.00     0.187 HD
BRANCH  22  28
HETATM   28  C7  UNL     1      13.019   9.833  -4.151  1.00  0.00     0.030 C
HETATM   29  C8  UNL     1      13.557   8.488  -4.589  1.00  0.00     0.016 C
HETATM   30  C9  UNL     1      11.527   9.923  -4.295  1.00  0.00     0.016 C
ENDBRANCH  22  28
ENDBRANCH  15  16
ENDBRANCH  12  15
ENDBRANCH   7   9
BRANCH   4  31
HETATM   31  N6  UNL     1      13.777  10.679   8.797  1.00  0.00    -0.168 N
HETATM   32  O1  UNL     1      12.882  11.623   8.773  1.00  0.00    -0.145 OA
HETATM   33  N7  UNL     1      13.324  12.154   9.878  1.00  0.00    -0.189 N
HETATM   34  C21 UNL     1      14.252  11.194   9.922  1.00  0.00     0.370 A
ATOM     35  H7  UNL     1      13.071  12.955  10.458  1.00  0.00     0.202 HD
HETATM   36  O2  UNL     1      15.188  10.894  10.703  1.00  0.00    -0.243 OA
ENDBRANCH   4  31
ENDBRANCH   1   4
TORSDOF 6
ENDMDL