MODEL 4
REMARK VINA RESULT: -8.842999087      3.108      4.587
REMARK  6 active torsions:
REMARK  status: ('A' for Active; 'I' for Inactive)
REMARK    1  A    between atoms: N2_7  and  C5_9
REMARK    2  A    between atoms: C17_23  and  N4_24
REMARK    3  A    between atoms: C18_26  and  C19_27
REMARK    4  A    between atoms: C19_27  and  C20_28
REMARK    5  A    between atoms: C20_28  and  O1_29
REMARK    6  A    between atoms: O1_29  and  C21_30
ROOT
HETATM    1  C1  UNL     1      11.089   9.401   3.471  1.00  0.00     0.038 C
HETATM    2  C2  UNL     1      12.062   9.608   2.403  1.00  0.00    -0.001 C
HETATM    3  C3  UNL     1      13.380   9.764   2.632  1.00  0.00     0.037 A
HETATM    4  N1  UNL     1      13.795   9.718   3.979  1.00  0.00    -0.337 N
ATOM      5  H1  UNL     1      13.065   9.572   4.677  1.00  0.00     0.168 HD
HETATM    6  C4  UNL     1      15.117   9.852   4.463  1.00  0.00     0.146 A
HETATM    7  N2  UNL     1      15.458   9.811   5.676  1.00  0.00    -0.366 N
ATOM      8  H2  UNL     1      16.464   9.929   5.800  1.00  0.00     0.162 HD
HETATM    9  S1  UNL     1      16.403  10.106   3.212  1.00  0.00    -0.051 SA
HETATM   10  C11 UNL     1      15.587  10.120   1.633  1.00  0.00     0.044 A
HETATM   11  C12 UNL     1      14.304   9.966   1.508  1.00  0.00    -0.011 A
HETATM   12  C13 UNL     1      13.688   9.970   0.167  1.00  0.00     0.062 A
HETATM   13  C14 UNL     1      14.568  10.258  -0.965  1.00  0.00     0.139 A
HETATM   14  N3  UNL     1      15.968  10.385  -0.738  1.00  0.00    -0.298 N
HETATM   15  C15 UNL     1      16.485  10.339   0.483  1.00  0.00     0.060 A
HETATM   16  C16 UNL     1      17.836  10.481   0.646  1.00  0.00     0.080 A
HETATM   17  C17 UNL     1      18.730  10.674  -0.427  1.00  0.00     0.110 A
HETATM   18  N5  UNL     1      18.142  10.708  -1.627  1.00  0.00    -0.294 N
ATOM     19  H5  UNL     1      18.730  10.845  -2.450  1.00  0.00     0.172 HD
HETATM   20  C23 UNL     1      16.820  10.572  -1.806  1.00  0.00     0.328 A
HETATM   21  O2  UNL     1      16.274  10.607  -2.960  1.00  0.00    -0.246 OA
ENDROOT
BRANCH   7  22
HETATM   22  C5  UNL     1      14.789   9.642   6.898  1.00  0.00     0.083 C
HETATM   23  C6  UNL     1      15.635   9.148   8.052  1.00  0.00     0.025 C
HETATM   24  C7  UNL     1      14.719   8.505   9.102  1.00  0.00     0.002 C
HETATM   25  C8  UNL     1      13.559   9.452   9.298  1.00  0.00     0.000 C
HETATM   26  C9  UNL     1      13.938  10.847   8.853  1.00  0.00     0.002 C
HETATM   27  C10 UNL     1      14.050  10.868   7.340  1.00  0.00     0.025 C
ENDBRANCH   7  22
BRANCH  17  28
HETATM   28  N4  UNL     1      19.944  10.800  -0.253  1.00  0.00    -0.356 N
HETATM   29  C18 UNL     1      21.133  10.204   0.007  1.00  0.00     0.064 C
ATOM     30  H4  UNL     1      20.142  11.796  -0.347  1.00  0.00     0.166 HD
BRANCH  29  31
HETATM   31  C19 UNL     1      21.172   8.686   0.213  1.00  0.00     0.071 C
BRANCH  31  32
HETATM   32  C20 UNL     1      21.221   8.422   1.693  1.00  0.00     0.172 C
BRANCH  32  33
HETATM   33  O1  UNL     1      20.192   8.820   2.431  1.00  0.00    -0.391 OA
BRANCH  33  34
HETATM   34  C21 UNL     1      20.256   9.535   3.558  1.00  0.00     0.163 C
HETATM   35  C22 UNL     1      21.058  10.800   3.578  1.00  0.00     0.033 C
ENDBRANCH  33  34
ENDBRANCH  32  33
ENDBRANCH  31  32
ENDBRANCH  29  31
ENDBRANCH  17  28
TORSDOF 6
ENDMDL