MODEL 1
REMARK VINA RESULT: -9.691338732      0.000      0.000
REMARK  8 active torsions:
REMARK  status: ('A' for Active; 'I' for Inactive)
REMARK    1  A    between atoms: C2_2  and  O1_3
REMARK    2  A    between atoms: C2_2  and  C3_5
REMARK    3  A    between atoms: C3_5  and  N1_6
REMARK    4  A    between atoms: N1_6  and  C4_8
REMARK    5  A    between atoms: C6_12  and  C7_13
REMARK    6  A    between atoms: C7_13  and  C8_14
REMARK    7  A    between atoms: N4_19  and  C11_20
REMARK    8  A    between atoms: N5_23  and  C14_24
ROOT
HETATM    1  C8  UNL     1      16.092   9.591   2.347  1.00  0.00     0.088 A
HETATM    2  N3  UNL     1      17.129   9.579   3.208  1.00  0.00    -0.347 N
ATOM      3  H3  UNL     1      17.121   9.205   4.157  1.00  0.00     0.167 HD
HETATM    4  C9  UNL     1      18.163  10.143   2.598  1.00  0.00     0.033 A
HETATM    5  C10 UNL     1      17.736  10.511   1.315  1.00  0.00     0.036 A
HETATM    6  N4  UNL     1      16.436  10.159   1.175  1.00  0.00    -0.333 N
HETATM    7  C20 UNL     1      18.604  11.163   0.344  1.00  0.00     0.059 C
HETATM    8  C21 UNL     1      19.694  10.167  -0.068  1.00  0.00     0.006 C
HETATM    9  C22 UNL     1      20.449   9.607   1.085  1.00  0.00     0.001 C
HETATM   10  C23 UNL     1      20.593  10.516   2.258  1.00  0.00     0.006 C
HETATM   11  C24 UNL     1      19.487  10.297   3.267  1.00  0.00     0.059 C
ENDROOT
BRANCH   1  12
HETATM   12  C7  UNL     1      14.765   9.025   2.739  1.00  0.00     0.118 C
BRANCH  12  13
HETATM   13  C6  UNL     1      14.392   9.440   4.117  1.00  0.00    -0.019 A
HETATM   14  C5  UNL     1      13.617   8.609   4.919  1.00  0.00     0.115 A
HETATM   15  N2  UNL     1      13.245   8.908   6.157  1.00  0.00    -0.201 N
HETATM   16  C4  UNL     1      13.635  10.077   6.675  1.00  0.00     0.677 A
ATOM     17  H2  UNL     1      12.675   8.260   6.701  1.00  0.00     0.183 HD
HETATM   18  N6  UNL     1      14.393  10.924   5.933  1.00  0.00    -0.201 N
HETATM   19  C25 UNL     1      14.784  10.643   4.671  1.00  0.00     0.115 A
ATOM     20  H6  UNL     1      14.681  11.811   6.347  1.00  0.00     0.183 HD
BRANCH  16  21
HETATM   21  N1  UNL     1      13.285  10.377   7.867  1.00  0.00    -0.224 N
ATOM     22  H1  UNL     1      12.367  10.096   8.213  1.00  0.00     0.177 HD
BRANCH  21  23
HETATM   23  C3  UNL     1      14.177  11.109   8.722  1.00  0.00     0.169 C
BRANCH  23  24
HETATM   24  C2  UNL     1      13.554  11.483  10.050  1.00  0.00     0.132 C
HETATM   25  C1  UNL     1      14.568  11.277  11.162  1.00  0.00     0.041 C
BRANCH  24  26
HETATM   26  O1  UNL     1      13.267  12.846  10.023  1.00  0.00    -0.394 OA
ATOM     27  H1  UNL     1      12.335  12.929  10.184  1.00  0.00     0.210 HD
ENDBRANCH  24  26
ENDBRANCH  23  24
ENDBRANCH  21  23
ENDBRANCH  16  21
ENDBRANCH  12  13
ENDBRANCH   1  12
BRANCH   6  28
HETATM   28  C11 UNL     1      15.629  10.365   0.019  1.00  0.00     0.097 C
HETATM   29  C12 UNL     1      14.171  10.618   0.284  1.00  0.00     0.045 C
HETATM   30  C13 UNL     1      13.590  11.084  -1.051  1.00  0.00     0.124 C
HETATM   31  N5  UNL     1      13.734  10.099  -2.052  1.00  0.00    -0.389 N
HETATM   32  C18 UNL     1      14.595   9.023  -1.805  1.00  0.00     0.060 C
HETATM   33  C19 UNL     1      15.861   9.343  -1.075  1.00  0.00     0.070 C
BRANCH  31  34
HETATM   34  C14 UNL     1      13.588  10.528  -3.392  1.00  0.00     0.083 C
HETATM   35  C15 UNL     1      13.355   9.362  -4.331  1.00  0.00     0.025 C
HETATM   36  C16 UNL     1      14.303  10.037  -5.300  1.00  0.00     0.004 C
HETATM   37  C17 UNL     1      14.894  10.794  -4.105  1.00  0.00     0.025 C
ENDBRANCH  31  34
ENDBRANCH   6  28
TORSDOF 8
ENDMDL