MODEL 2
REMARK VINA RESULT: -6.506485427      2.911      6.740
REMARK  8 active torsions:
REMARK  status: ('A' for Active; 'I' for Inactive)
REMARK    1  A    between atoms: C3_3  and  O1_4
REMARK    2  A    between atoms: O1_4  and  C4_5
REMARK    3  A    between atoms: C4_5  and  C5_7
REMARK    4  A    between atoms: C10_13  and  O4_14
REMARK    5  A    between atoms: C12_16  and  O5_17
REMARK    6  A    between atoms: C17_23  and  C18_24
REMARK    7  A    between atoms: C18_24  and  O6_25
REMARK    8  A    between atoms: C23_31  and  C24_32
ROOT
HETATM    1  C1  UNL     1      19.704   7.729   5.815  1.00  0.00     0.022 C
HETATM    2  C2  UNL     1      20.251   7.723   4.626  1.00  0.00    -0.024 C
HETATM    3  C3  UNL     1      19.711   8.760   3.609  1.00  0.00     0.073 C
HETATM    4  C6  UNL     1      20.863   9.064   2.794  1.00  0.00     0.022 C
HETATM    5  C7  UNL     1      22.006   9.806   3.373  1.00  0.00    -0.000 C
HETATM    6  C8  UNL     1      21.811  11.326   3.248  1.00  0.00     0.011 C
HETATM    7  C9  UNL     1      22.526   9.505   4.707  1.00  0.00     0.040 C
HETATM    8  C10 UNL     1      23.322   8.229   4.772  1.00  0.00     0.157 C
HETATM    9  C12 UNL     1      22.582   6.961   4.713  1.00  0.00     0.100 C
HETATM   10  C13 UNL     1      23.575   5.875   4.512  1.00  0.00     0.020 C
HETATM   11  C14 UNL     1      24.574   5.951   3.433  1.00  0.00     0.013 C
HETATM   12  C15 UNL     1      22.978   4.479   4.524  1.00  0.00     0.008 C
HETATM   13  C16 UNL     1      21.907   4.483   3.489  1.00  0.00     0.008 C
HETATM   14  C17 UNL     1      20.833   5.484   3.718  1.00  0.00     0.026 C
HETATM   15  C19 UNL     1      21.298   6.906   3.939  1.00  0.00     0.033 C
HETATM   16  C20 UNL     1      21.282   7.569   2.639  1.00  0.00     0.018 C
HETATM   17  C21 UNL     1      22.197   7.498   1.576  1.00  0.00     0.007 C
HETATM   18  C22 UNL     1      21.327   8.229   0.523  1.00  0.00     0.006 C
HETATM   19  C23 UNL     1      20.752   9.404   1.358  1.00  0.00     0.005 C
ENDROOT
BRANCH   3  20
HETATM   20  O1  UNL     1      18.794   9.586   4.087  1.00  0.00    -0.276 OA
BRANCH  20  21
HETATM   21  C4  UNL     1      17.456   9.708   3.892  1.00  0.00     0.326 C
HETATM   22  O2  UNL     1      16.956   8.585   3.721  1.00  0.00    -0.256 OA
BRANCH  21  23
HETATM   23  C5  UNL     1      16.743  10.968   3.887  1.00  0.00     0.341 C
HETATM   24  O3  UNL     1      17.321  12.084   3.931  1.00  0.00    -0.296 OA
ENDBRANCH  21  23
ENDBRANCH  20  21
ENDBRANCH   3  20
BRANCH  19  25
HETATM   25  C24 UNL     1      19.598  10.006   0.716  1.00  0.00    -0.017 C
HETATM   26  C25 UNL     1      19.195  11.398   1.074  1.00  0.00     0.010 C
HETATM   27  C26 UNL     1      19.824  10.062  -0.821  1.00  0.00     0.010 C
ENDBRANCH  19  25
BRANCH   9  28
HETATM   28  O5  UNL     1      22.153   6.758   6.065  1.00  0.00    -0.386 OA
ATOM     29  H5  UNL     1      21.257   7.075   6.064  1.00  0.00     0.210 HD
ENDBRANCH   9  28
BRANCH  14  30
HETATM   30  C18 UNL     1      19.847   4.863   4.638  1.00  0.00     0.170 C
BRANCH  30  31
HETATM   31  O6  UNL     1      19.257   3.703   4.253  1.00  0.00    -0.400 OA
ATOM     32  H6  UNL     1      19.364   2.941   4.809  1.00  0.00     0.209 HD
ENDBRANCH  30  31
ENDBRANCH  14  30
BRANCH   8  33
HETATM   33  O4  UNL     1      23.916   8.301   6.066  1.00  0.00    -0.388 OA
HETATM   34  C11 UNL     1      24.206   9.568   6.477  1.00  0.00     0.202 C
ENDBRANCH   8  33
TORSDOF 8
ENDMDL