MODEL 2
REMARK VINA RESULT: -7.898366150      2.724      6.819
REMARK  9 active torsions:
REMARK  status: ('A' for Active; 'I' for Inactive)
REMARK    1  A    between atoms: O1_2  and  C2_3
REMARK    2  A    between atoms: C10_11  and  O2_12
REMARK    3  A    between atoms: C14_18  and  C15_19
REMARK    4  A    between atoms: C15_19  and  C16_20
REMARK    5  A    between atoms: C15_19  and  O4_26
REMARK    6  A    between atoms: C16_20  and  C17_21
REMARK    7  A    between atoms: C17_21  and  C18_22
REMARK    8  A    between atoms: O4_26  and  C22_27
REMARK    9  A    between atoms: C25_31  and  O6_32
ROOT
HETATM    1  C2  UNL     1      15.841   9.786   1.404  1.00  0.00     0.090 C
HETATM    2  C3  UNL     1      16.554  10.042   0.062  1.00  0.00     0.042 C
HETATM    3  C4  UNL     1      17.360  11.272   0.303  1.00  0.00     0.014 C
HETATM    4  C5  UNL     1      17.679  11.450   1.820  1.00  0.00    -0.025 A
HETATM    5  C6  UNL     1      17.493  12.858   2.102  1.00  0.00     0.025 A
HETATM    6  C7  UNL     1      16.629  11.674   2.651  1.00  0.00    -0.011 A
HETATM    7  C8  UNL     1      16.091  12.050   3.886  1.00  0.00    -0.014 C
HETATM    8  C9  UNL     1      15.976  11.127   5.049  1.00  0.00     0.029 C
HETATM    9  C10 UNL     1      15.618   9.732   4.931  1.00  0.00     0.050 C
HETATM   10  C11 UNL     1      16.759   8.756   4.582  1.00  0.00     0.079 C
HETATM   11  C12 UNL     1      17.498   8.517   5.878  1.00  0.00     0.020 C
HETATM   12  C13 UNL     1      17.470   9.210   3.398  1.00  0.00     0.137 A
HETATM   13  O3  UNL     1      18.302  10.095   4.008  1.00  0.00    -0.352 OA
HETATM   14  C14 UNL     1      18.779   9.460   3.015  1.00  0.00     0.146 A
HETATM   15  C24 UNL     1      18.871  10.623   1.987  1.00  0.00     0.059 C
HETATM   16  C25 UNL     1      16.692   8.946   2.226  1.00  0.00     0.191 C
HETATM   17  C26 UNL     1      15.447  11.171   1.821  1.00  0.00     0.055 C
ENDROOT
BRANCH  14  18
HETATM   18  C15 UNL     1      20.026   8.579   2.951  1.00  0.00     0.091 C
BRANCH  18  19
HETATM   19  C16 UNL     1      20.703   8.488   4.253  1.00  0.00     0.013 C
BRANCH  19  20
HETATM   20  C17 UNL     1      20.891   7.221   4.968  1.00  0.00     0.057 C
BRANCH  20  21
HETATM   21  C18 UNL     1      20.117   6.051   4.578  1.00  0.00    -0.021 C
HETATM   22  C19 UNL     1      20.746   4.929   4.255  1.00  0.00    -0.091 C
HETATM   23  C20 UNL     1      22.227   4.767   4.261  1.00  0.00     0.042 C
HETATM   24  C21 UNL     1      19.930   3.741   3.854  1.00  0.00     0.042 C
ENDBRANCH  20  21
ENDBRANCH  19  20
ENDBRANCH  18  19
BRANCH  18  25
HETATM   25  O4  UNL     1      20.798   8.702   1.823  1.00  0.00    -0.281 OA
BRANCH  25  26
HETATM   26  C22 UNL     1      22.156   8.507   1.696  1.00  0.00     0.259 C
HETATM   27  C23 UNL     1      22.685   7.164   1.420  1.00  0.00     0.126 C
HETATM   28  O5  UNL     1      22.814   9.550   1.838  1.00  0.00    -0.265 OA
ENDBRANCH  25  26
ENDBRANCH  18  25
ENDBRANCH  14  18
BRANCH  16  29
HETATM   29  O6  UNL     1      15.888   7.778   2.505  1.00  0.00    -0.389 OA
ATOM     30  H6  UNL     1      15.560   7.919   3.386  1.00  0.00     0.210 HD
ENDBRANCH  16  29
BRANCH   9  31
HETATM   31  O2  UNL     1      14.414   9.375   4.378  1.00  0.00    -0.364 OA
ATOM     32  H2  UNL     1      14.311   9.357   3.433  1.00  0.00     0.217 HD
ENDBRANCH   9  31
BRANCH   1  33
HETATM   33  O1  UNL     1      14.650   9.168   1.039  1.00  0.00    -0.382 OA
HETATM   34  C1  UNL     1      13.621   9.899   0.600  1.00  0.00     0.202 C
ENDBRANCH   1  33
TORSDOF 9
ENDMDL