MODEL 4
REMARK VINA RESULT: -5.806537168      2.319      4.764
REMARK  8 active torsions:
REMARK  status: ('A' for Active; 'I' for Inactive)
REMARK    1  A    between atoms: C14_14  and  O1_15
REMARK    2  A    between atoms: C15_17  and  O2_19
REMARK    3  A    between atoms: O2_19  and  C17_20
REMARK    4  A    between atoms: C17_20  and  N1_21
REMARK    5  A    between atoms: N1_21  and  C19_23
REMARK    6  A    between atoms: C19_23  and  C20_24
REMARK    7  A    between atoms: C21_26  and  O4_27
REMARK    8  A    between atoms: C22_29  and  O5_30
ROOT
HETATM    1  C1  UNL     1      18.312   9.289  -0.457  1.00  0.00     0.044 C
HETATM    2  C2  UNL     1      17.978  10.764  -0.362  1.00  0.00    -0.075 C
HETATM    3  C3  UNL     1      16.550  11.075  -0.595  1.00  0.00    -0.023 C
HETATM    4  C4  UNL     1      15.545  10.982   0.448  1.00  0.00     0.034 C
HETATM    5  C5  UNL     1      16.044  10.757   1.884  1.00  0.00     0.012 C
HETATM    6  C6  UNL     1      17.002  11.763   2.358  1.00  0.00    -0.015 C
HETATM    7  C7  UNL     1      17.022  12.341   3.689  1.00  0.00     0.020 C
HETATM    8  C8  UNL     1      17.061  13.006   1.445  1.00  0.00     0.015 C
HETATM    9  C9  UNL     1      18.291  12.915   0.638  1.00  0.00     0.019 C
HETATM   10  C10 UNL     1      18.680  11.487   0.731  1.00  0.00     0.003 C
HETATM   11  C11 UNL     1      20.162  11.373   0.505  1.00  0.00     0.025 C
HETATM   12  C12 UNL     1      18.346  11.106   2.113  1.00  0.00    -0.056 C
HETATM   13  C13 UNL     1      18.966  10.360   2.997  1.00  0.00     0.040 C
HETATM   14  C14 UNL     1      18.670   9.931   4.340  1.00  0.00     0.080 C
HETATM   15  C15 UNL     1      17.699   9.013   4.917  1.00  0.00     0.135 C
HETATM   16  C16 UNL     1      18.372   7.654   5.295  1.00  0.00     0.056 C
HETATM   17  C21 UNL     1      16.537   8.575   4.004  1.00  0.00     0.188 C
HETATM   18  C22 UNL     1      15.370   9.433   3.941  1.00  0.00     0.158 C
HETATM   19  C23 UNL     1      14.968  10.281   2.813  1.00  0.00    -0.014 C
HETATM   20  C24 UNL     1      14.205  11.471   3.433  1.00  0.00     0.018 C
HETATM   21  C25 UNL     1      13.867   9.608   2.007  1.00  0.00     0.018 C
ENDROOT
BRANCH  15  22
HETATM   22  O2  UNL     1      17.185   9.360   6.149  1.00  0.00    -0.342 OA
BRANCH  22  23
HETATM   23  C17 UNL     1      16.756   8.494   7.039  1.00  0.00     0.441 C
BRANCH  23  24
HETATM   24  N1  UNL     1      15.836   9.181   7.997  1.00  0.00     0.113 N
HETATM   25  C18 UNL     1      15.061   8.250   8.746  1.00  0.00     0.313 C
BRANCH  24  26
HETATM   26  C19 UNL     1      15.038  10.140   7.259  1.00  0.00     0.343 C
BRANCH  26  27
HETATM   27  C20 UNL     1      13.627  10.124   7.667  1.00  0.00     0.261 C
HETATM   28  O3  UNL     1      13.148  11.083   8.249  1.00  0.00    -0.305 OA
ENDBRANCH  26  27
ENDBRANCH  24  26
ENDBRANCH  23  24
ENDBRANCH  22  23
ENDBRANCH  15  22
BRANCH  14  29
HETATM   29  O1  UNL     1      19.439  10.482   5.234  1.00  0.00    -0.362 OA
ATOM     30  H1  UNL     1      19.374  10.069   6.087  1.00  0.00     0.217 HD
ENDBRANCH  14  29
BRANCH  17  31
HETATM   31  O4  UNL     1      16.918   7.821   2.934  1.00  0.00    -0.390 OA
ATOM     32  H4  UNL     1      17.806   7.984   2.638  1.00  0.00     0.210 HD
ENDBRANCH  17  31
BRANCH  18  33
HETATM   33  O5  UNL     1      14.190   8.648   4.178  1.00  0.00    -0.392 OA
ATOM     34  H5  UNL     1      13.445   9.072   3.769  1.00  0.00     0.210 HD
ENDBRANCH  18  33
TORSDOF 8
ENDMDL