MODEL 2
REMARK VINA RESULT: -8.260799425      1.774      2.336
REMARK  8 active torsions:
REMARK  status: ('A' for Active; 'I' for Inactive)
REMARK    1  A    between atoms: C3_5  and  C4_6
REMARK    2  A    between atoms: C4_6  and  N2_7
REMARK    3  A    between atoms: C6_9  and  O1_10
REMARK    4  A    between atoms: C8_13  and  C9_14
REMARK    5  A    between atoms: C9_14  and  N3_15
REMARK    6  A    between atoms: C12_19  and  C13_20
REMARK       I    between atoms: C13_20  and  N4_22
REMARK    7  A    between atoms: N4_22  and  C14_24
REMARK    8  A    between atoms: C18_28  and  C19_29
ROOT
HETATM    1  C1  UNL     1      17.021   8.452   3.598  1.00  0.00     0.070 C
HETATM    2  C2  UNL     1      18.208   9.252   3.081  1.00  0.00     0.028 A
HETATM    3  N1  UNL     1      19.393   9.039   3.575  1.00  0.00    -0.355 N
ATOM      4  H1  UNL     1      19.512   8.337   4.306  1.00  0.00     0.166 HD
HETATM    5  C3  UNL     1      20.434   9.710   3.152  1.00  0.00     0.080 A
HETATM    6  S1  UNL     1      19.750  10.723   1.974  1.00  0.00    -0.068 SA
HETATM    7  C12 UNL     1      18.077  10.193   2.108  1.00  0.00     0.096 A
ENDROOT
BRANCH   7   8
HETATM    8  C13 UNL     1      16.977  10.718   1.320  1.00  0.00     0.260 C
HETATM    9  O2  UNL     1      16.523  11.866   1.695  1.00  0.00    -0.267 OA
HETATM   10  N4  UNL     1      16.411  10.078   0.230  1.00  0.00    -0.352 N
ATOM     11  H4  UNL     1      16.766   9.171  -0.071  1.00  0.00     0.163 HD
BRANCH  10  12
HETATM   12  C14 UNL     1      15.279  10.720  -0.505  1.00  0.00     0.085 C
HETATM   13  C15 UNL     1      14.020  10.271   0.180  1.00  0.00     0.025 C
HETATM   14  C16 UNL     1      12.794  10.704  -0.559  1.00  0.00     0.002 C
HETATM   15  C17 UNL     1      13.052  10.871  -2.058  1.00  0.00     0.005 C
HETATM   16  C18 UNL     1      14.032   9.823  -2.468  1.00  0.00    -0.005 C
HETATM   17  C23 UNL     1      15.387  10.194  -1.916  1.00  0.00     0.030 C
BRANCH  16  18
HETATM   18  C19 UNL     1      14.139   9.614  -3.943  1.00  0.00    -0.048 C
HETATM   19  C20 UNL     1      15.228  10.436  -4.556  1.00  0.00     0.015 C
HETATM   20  C21 UNL     1      14.341   8.131  -4.195  1.00  0.00     0.015 C
HETATM   21  C22 UNL     1      12.787   9.982  -4.555  1.00  0.00     0.015 C
ENDBRANCH  16  18
ENDBRANCH  10  12
ENDBRANCH   7   8
BRANCH   5  22
HETATM   22  C4  UNL     1      21.874   9.613   3.601  1.00  0.00     0.337 C
BRANCH  22  23
HETATM   23  N2  UNL     1      22.679   8.769   2.802  1.00  0.00     0.103 N
HETATM   24  C5  UNL     1      22.424   8.780   1.391  1.00  0.00     0.305 C
HETATM   25  C6  UNL     1      22.533   7.384   0.863  1.00  0.00     0.148 C
HETATM   26  C7  UNL     1      22.906   6.548   2.041  1.00  0.00     0.071 C
HETATM   27  C8  UNL     1      22.656   7.427   3.254  1.00  0.00     0.254 C
BRANCH  25  28
HETATM   28  O1  UNL     1      23.555   7.258  -0.085  1.00  0.00    -0.394 OA
ATOM     29  H1  UNL     1      23.688   6.355  -0.349  1.00  0.00     0.210 HD
ENDBRANCH  25  28
BRANCH  27  30
HETATM   30  C9  UNL     1      23.669   7.207   4.326  1.00  0.00     0.307 C
BRANCH  30  31
HETATM   31  N3  UNL     1      24.456   6.025   4.233  1.00  0.00     0.082 N
HETATM   32  C10 UNL     1      24.070   5.207   5.412  1.00  0.00     0.309 C
HETATM   33  C11 UNL     1      25.881   6.211   4.358  1.00  0.00     0.309 C
ENDBRANCH  30  31
ENDBRANCH  27  30
ENDBRANCH  22  23
ENDBRANCH   5  22
TORSDOF 8
ENDMDL