MODEL 4
REMARK VINA RESULT: -8.079450499      2.094      5.011
REMARK  8 active torsions:
REMARK  status: ('A' for Active; 'I' for Inactive)
REMARK    1  A    between atoms: C2_2  and  C3_3
REMARK       I    between atoms: N3_9  and  C5_11
REMARK       I    between atoms: C5_11  and  N4_13
REMARK    2  A    between atoms: N4_13  and  C6_15
REMARK    3  A    between atoms: C10_19  and  S1_20
REMARK    4  A    between atoms: S1_20  and  C11_21
REMARK    5  A    between atoms: C11_21  and  N5_23
REMARK    6  A    between atoms: N5_23  and  C12_24
REMARK    7  A    between atoms: N5_23  and  C14_26
REMARK    8  A    between atoms: C14_26  and  C15_27
ROOT
HETATM    1  C15 UNL     1      19.032   8.878   3.590  1.00  0.00     0.143 C
HETATM    2  C16 UNL     1      17.650   8.620   3.881  1.00  0.00     0.060 C
HETATM    3  N6  UNL     1      16.528   8.384   4.147  1.00  0.00    -0.197 NA
ENDROOT
BRANCH   1   4
HETATM    4  C14 UNL     1      19.391  10.283   3.346  1.00  0.00     0.138 C
BRANCH   4   5
HETATM    5  N5  UNL     1      19.421  10.780   2.006  1.00  0.00    -0.366 N
BRANCH   5   6
HETATM    6  C11 UNL     1      18.252  11.446   1.456  1.00  0.00     0.137 C
HETATM    7  S2  UNL     1      17.379  12.395   2.433  1.00  0.00    -0.053 SA
BRANCH   6   8
HETATM    8  S1  UNL     1      17.782  11.231  -0.220  1.00  0.00    -0.090 SA
BRANCH   8   9
HETATM    9  C10 UNL     1      16.327  10.302  -0.545  1.00  0.00     0.018 C
HETATM   10  C9  UNL     1      15.193  11.080  -1.186  1.00  0.00     0.026 C
HETATM   11  C8  UNL     1      14.191   9.947  -1.414  1.00  0.00    -0.006 C
HETATM   12  C7  UNL     1      13.473   9.790  -0.065  1.00  0.00     0.036 C
HETATM   13  C18 UNL     1      14.992   8.686  -1.567  1.00  0.00    -0.006 C
HETATM   14  C6  UNL     1      14.536   9.014   0.696  1.00  0.00     0.036 C
HETATM   15  C19 UNL     1      14.791   7.879  -0.277  1.00  0.00     0.036 C
HETATM   16  C20 UNL     1      15.778   9.825   0.791  1.00  0.00     0.052 C
HETATM   17  C17 UNL     1      16.460   9.140  -1.496  1.00  0.00     0.026 C
BRANCH  14  18
HETATM   18  N4  UNL     1      14.130   8.583   1.987  1.00  0.00    -0.333 N
HETATM   19  C5  UNL     1      13.498   9.388   2.972  1.00  0.00     0.323 C
HETATM   20  N3  UNL     1      13.123   8.875   4.239  1.00  0.00    -0.273 N
HETATM   21  O1  UNL     1      13.233  10.611   2.773  1.00  0.00    -0.247 OA
HETATM   22  C4  UNL     1      13.540   9.417   5.319  1.00  0.00     0.248 A
ATOM     23  H3  UNL     1      12.511   8.061   4.289  1.00  0.00     0.174 HD
HETATM   24  N2  UNL     1      14.339  10.481   5.458  1.00  0.00    -0.263 N
HETATM   25  O2  UNL     1      13.236   8.998   6.532  1.00  0.00    -0.264 OA
HETATM   26  N1  UNL     1      14.502  10.682   6.754  1.00  0.00    -0.280 N
ATOM     27  H2  UNL     1      14.746  11.033   4.703  1.00  0.00     0.190 HD
HETATM   28  C3  UNL     1      13.809   9.750   7.427  1.00  0.00     0.141 A
ATOM     29  H1  UNL     1      15.062  11.424   7.174  1.00  0.00     0.189 HD
ATOM     30  H4  UNL     1      14.309   7.608   2.229  1.00  0.00     0.165 HD
BRANCH  28  31
HETATM   31  C2  UNL     1      13.712   9.604   8.922  1.00  0.00     0.081 C
HETATM   32  C1  UNL     1      14.180  10.895   9.560  1.00  0.00     0.013 C
ENDBRANCH  28  31
ENDBRANCH  14  18
ENDBRANCH   8   9
ENDBRANCH   6   8
ENDBRANCH   5   6
BRANCH   5  33
HETATM   33  C12 UNL     1      20.563  10.662   1.145  1.00  0.00     0.120 C
HETATM   34  C13 UNL     1      21.863  10.603   1.925  1.00  0.00     0.026 C
ENDBRANCH   5  33
ENDBRANCH   4   5
ENDBRANCH   1   4
TORSDOF 8
ENDMDL