MODEL 1
REMARK VINA RESULT: -8.847536050      0.000      0.000
REMARK  9 active torsions:
REMARK  status: ('A' for Active; 'I' for Inactive)
REMARK    1  A    between atoms: C3_3  and  C5_5
REMARK    2  A    between atoms: C5_5  and  O2_7
REMARK    3  A    between atoms: O2_7  and  C6_8
REMARK    4  A    between atoms: C8_10  and  C9_11
REMARK    5  A    between atoms: C13_16  and  O4_17
REMARK    6  A    between atoms: N1_24  and  O5_26
REMARK    7  A    between atoms: O5_26  and  C19_27
REMARK    8  A    between atoms: C19_27  and  C20_28
REMARK    9  A    between atoms: C20_28  and  O6_29
ROOT
HETATM    1  C6  UNL     1      13.995   9.374  -0.309  1.00  0.00     0.133 C
HETATM    2  C7  UNL     1      15.473   9.330  -0.521  1.00  0.00     0.044 C
HETATM    3  C8  UNL     1      16.206   9.822   0.673  1.00  0.00     0.054 C
HETATM    4  C10 UNL     1      15.548   9.396   2.004  1.00  0.00     0.010 C
HETATM    5  C11 UNL     1      16.565   9.421   3.045  1.00  0.00     0.007 C
HETATM    6  C12 UNL     1      17.215   8.022   3.181  1.00  0.00     0.038 C
HETATM    7  C13 UNL     1      18.591   8.077   3.734  1.00  0.00     0.118 C
HETATM    8  C14 UNL     1      18.547   8.893   5.009  1.00  0.00     0.033 C
HETATM    9  C15 UNL     1      17.117   9.054   5.448  1.00  0.00     0.018 C
HETATM   10  C16 UNL     1      16.365   9.912   4.404  1.00  0.00     0.001 C
HETATM   11  C17 UNL     1      17.018  11.301   4.622  1.00  0.00     0.022 C
HETATM   12  C18 UNL     1      15.020  10.096   4.917  1.00  0.00     0.018 C
HETATM   13  N1  UNL     1      14.668   9.369   5.944  1.00  0.00    -0.274 N
ATOM     14  H1  UNL     1      15.360   8.721   6.318  1.00  0.00     0.193 HD
HETATM   15  C21 UNL     1      14.001  11.004   4.443  1.00  0.00     0.056 C
HETATM   16  C22 UNL     1      13.963  11.120   2.989  1.00  0.00     0.015 C
HETATM   17  C23 UNL     1      14.204   9.918   2.148  1.00  0.00    -0.037 C
HETATM   18  C24 UNL     1      13.215   8.787   2.482  1.00  0.00     0.015 C
HETATM   19  C25 UNL     1      13.690  10.356   0.777  1.00  0.00     0.042 C
ENDROOT
BRANCH   1  20
HETATM   20  O2  UNL     1      13.247   9.678  -1.434  1.00  0.00    -0.312 OA
BRANCH  20  21
HETATM   21  C5  UNL     1      13.645  10.563  -2.416  1.00  0.00     0.289 C
HETATM   22  O1  UNL     1      13.613  11.763  -2.056  1.00  0.00    -0.260 OA
BRANCH  21  23
HETATM   23  C3  UNL     1      14.047  10.063  -3.709  1.00  0.00     0.009 C
HETATM   24  C2  UNL     1      13.174   9.692  -4.597  1.00  0.00    -0.018 C
HETATM   25  C1  UNL     1      11.735   9.741  -4.385  1.00  0.00     0.036 C
HETATM   26  C4  UNL     1      15.491   9.972  -4.030  1.00  0.00     0.054 C
ENDBRANCH  21  23
ENDBRANCH  20  21
ENDBRANCH   1  20
BRANCH   3  27
HETATM   27  C9  UNL     1      16.625  11.211   0.636  1.00  0.00     0.236 C
HETATM   28  O3  UNL     1      16.563  11.864  -0.390  1.00  0.00    -0.306 OA
ENDBRANCH   3  27
BRANCH   7  29
HETATM   29  O4  UNL     1      18.924   6.758   4.110  1.00  0.00    -0.396 OA
ATOM     30  H4  UNL     1      19.425   6.825   4.914  1.00  0.00     0.210 HD
ENDBRANCH   7  29
BRANCH  13  31
HETATM   31  O5  UNL     1      13.463   9.407   6.550  1.00  0.00    -0.278 OA
BRANCH  31  32
HETATM   32  C19 UNL     1      13.237   9.478   7.925  1.00  0.00     0.227 C
BRANCH  32  33
HETATM   33  C20 UNL     1      13.867  10.730   8.531  1.00  0.00     0.192 C
BRANCH  33  34
HETATM   34  O6  UNL     1      12.887  11.685   8.813  1.00  0.00    -0.399 OA
ATOM     35  H6  UNL     1      13.132  12.199   9.574  1.00  0.00     0.209 HD
ENDBRANCH  33  34
ENDBRANCH  32  33
ENDBRANCH  31  32
ENDBRANCH  13  31
TORSDOF 9
ENDMDL