MODEL 1
REMARK VINA RESULT: -9.240650560      0.000      0.000
REMARK  7 active torsions:
REMARK  status: ('A' for Active; 'I' for Inactive)
REMARK    1  A    between atoms: C6_8  and  C7_9
REMARK    2  A    between atoms: C7_9  and  C8_10
REMARK    3  A    between atoms: C7_9  and  C10_14
REMARK    4  A    between atoms: C9_11  and  O3_12
REMARK    5  A    between atoms: C10_14  and  C11_15
REMARK    6  A    between atoms: C18_23  and  O5_24
REMARK    7  A    between atoms: C18_23  and  C19_26
ROOT
HETATM    1  C7  UNL     1      17.221  11.321   2.042  1.00  0.00    -0.035 C
ENDROOT
BRANCH   1   2
HETATM    2  C6  UNL     1      18.559  10.847   2.366  1.00  0.00    -0.067 C
HETATM    3  C5  UNL     1      19.827  11.287   1.808  1.00  0.00     0.068 C
HETATM    4  C4  UNL     1      20.784  10.297   1.324  1.00  0.00     0.145 C
HETATM    5  O2  UNL     1      21.879  10.808   0.590  1.00  0.00    -0.311 OA
HETATM    6  C26 UNL     1      21.515   9.451   2.333  1.00  0.00     0.057 C
HETATM    7  C3  UNL     1      22.678   9.665   0.365  1.00  0.00     0.289 C
HETATM    8  C2  UNL     1      22.283   8.637   1.371  1.00  0.00     0.015 C
HETATM    9  O1  UNL     1      23.554   9.570  -0.535  1.00  0.00    -0.260 OA
HETATM   10  C1  UNL     1      22.633   7.404   1.236  1.00  0.00     0.025 C
HETATM   11  C24 UNL     1      20.595   8.757   3.249  1.00  0.00    -0.007 C
HETATM   12  C23 UNL     1      20.002   9.804   4.167  1.00  0.00     0.009 C
HETATM   13  C25 UNL     1      21.214   7.705   4.118  1.00  0.00     0.011 C
HETATM   14  C22 UNL     1      18.638  10.262   3.791  1.00  0.00     0.035 C
ENDBRANCH   1   2
BRANCH   1  15
HETATM   15  C8  UNL     1      16.565  12.408   2.850  1.00  0.00     0.035 C
HETATM   16  C9  UNL     1      17.101  13.555   3.473  1.00  0.00     0.132 C
BRANCH  16  17
HETATM   17  O3  UNL     1      17.643  14.513   2.632  1.00  0.00    -0.373 OA
ATOM     18  H3  UNL     1      18.517  14.815   2.848  1.00  0.00     0.216 HD
ENDBRANCH  16  17
ENDBRANCH   1  15
BRANCH   1  19
HETATM   19  C10 UNL     1      16.191  10.472   1.380  1.00  0.00     0.005 C
BRANCH  19  20
HETATM   20  C11 UNL     1      14.929   9.946   1.766  1.00  0.00     0.067 C
HETATM   21  C12 UNL     1      13.885  10.915   2.274  1.00  0.00     0.031 C
HETATM   22  C13 UNL     1      14.882   8.759   2.622  1.00  0.00     0.142 C
HETATM   23  O4  UNL     1      15.743   8.338   3.351  1.00  0.00    -0.297 OA
HETATM   24  C14 UNL     1      13.643   7.868   2.677  1.00  0.00     0.084 C
HETATM   25  C15 UNL     1      13.673   7.074   1.397  1.00  0.00    -0.009 C
HETATM   26  C16 UNL     1      14.478   5.788   1.623  1.00  0.00     0.010 C
HETATM   27  C17 UNL     1      14.468   7.878   0.387  1.00  0.00     0.044 C
HETATM   28  C18 UNL     1      14.181   9.357   0.499  1.00  0.00     0.079 C
BRANCH  28  29
HETATM   29  O5  UNL     1      12.807   9.472   0.704  1.00  0.00    -0.388 OA
ATOM     30  H5  UNL     1      12.365   8.838   0.151  1.00  0.00     0.210 HD
ENDBRANCH  28  29
BRANCH  28  31
HETATM   31  C19 UNL     1      14.439   9.994  -0.791  1.00  0.00     0.013 C
HETATM   32  C20 UNL     1      14.938   8.837  -1.704  1.00  0.00     0.012 C
HETATM   33  C21 UNL     1      13.173  10.424  -1.561  1.00  0.00     0.012 C
ENDBRANCH  28  31
ENDBRANCH  19  20
ENDBRANCH   1  19
TORSDOF 7
ENDMDL