MODEL 4
REMARK VINA RESULT: -8.246142674      2.604      7.380
REMARK  10 active torsions:
REMARK  status: ('A' for Active; 'I' for Inactive)
REMARK    1  A    between atoms: C2_2  and  O2_4
REMARK    2  A    between atoms: O2_4  and  C3_5
REMARK    3  A    between atoms: C3_5  and  C4_6
REMARK    4  A    between atoms: C4_6  and  C5_7
REMARK    5  A    between atoms: C10_12  and  C22_30
REMARK    6  A    between atoms: C11_13  and  O3_14
REMARK    7  A    between atoms: O3_14  and  C12_15
REMARK    8  A    between atoms: C12_15  and  C13_17
REMARK    9  A    between atoms: C13_17  and  O5_18
REMARK   10  A    between atoms: C21_27  and  O6_28
ROOT
HETATM    1  C5  UNL     1      16.778  10.448  -0.153  1.00  0.00    -0.077 C
HETATM    2  C6  UNL     1      17.784  10.398   0.713  1.00  0.00     0.006 C
HETATM    3  C7  UNL     1      17.315  10.960   1.981  1.00  0.00    -0.070 C
HETATM    4  C8  UNL     1      15.849  11.110   1.948  1.00  0.00     0.026 C
HETATM    5  C9  UNL     1      15.558  11.034   0.490  1.00  0.00     0.043 C
HETATM    6  C10 UNL     1      15.050  10.143   2.826  1.00  0.00     0.030 C
HETATM    7  C11 UNL     1      15.422   8.742   2.616  1.00  0.00     0.138 C
HETATM    8  C14 UNL     1      16.749   8.257   3.029  1.00  0.00     0.042 C
HETATM    9  C15 UNL     1      17.741   9.106   3.698  1.00  0.00    -0.034 C
HETATM   10  C16 UNL     1      19.106   8.383   3.498  1.00  0.00     0.016 C
HETATM   11  C17 UNL     1      17.668   9.052   5.258  1.00  0.00     0.015 C
HETATM   12  C18 UNL     1      16.350   9.526   5.574  1.00  0.00    -0.009 C
HETATM   13  C19 UNL     1      15.756   9.668   6.922  1.00  0.00     0.007 C
HETATM   14  C20 UNL     1      14.401  10.326   6.613  1.00  0.00     0.032 C
HETATM   15  C21 UNL     1      13.951  10.266   5.163  1.00  0.00     0.123 C
HETATM   16  C22 UNL     1      14.924  10.759   4.155  1.00  0.00     0.026 C
HETATM   17  C23 UNL     1      16.189  10.895   4.959  1.00  0.00    -0.003 C
HETATM   18  C24 UNL     1      17.381  11.425   4.295  1.00  0.00     0.015 C
HETATM   19  C25 UNL     1      17.943  10.476   3.223  1.00  0.00     0.023 C
ENDROOT
BRANCH   1  20
HETATM   20  C4  UNL     1      16.793   9.986  -1.583  1.00  0.00     0.061 C
BRANCH  20  21
HETATM   21  C3  UNL     1      15.462  10.109  -2.232  1.00  0.00     0.183 C
BRANCH  21  22
HETATM   22  O2  UNL     1      15.092   8.910  -2.852  1.00  0.00    -0.321 OA
BRANCH  22  23
HETATM   23  C2  UNL     1      14.408   8.729  -4.012  1.00  0.00     0.254 C
HETATM   24  C1  UNL     1      14.188   9.843  -5.006  1.00  0.00     0.126 C
HETATM   25  O1  UNL     1      13.943   7.590  -4.263  1.00  0.00    -0.266 OA
ENDBRANCH  22  23
ENDBRANCH  21  22
ENDBRANCH  20  21
ENDBRANCH   1  20
BRANCH   7  26
HETATM   26  O3  UNL     1      15.082   8.367   1.287  1.00  0.00    -0.314 OA
BRANCH  26  27
HETATM   27  C12 UNL     1      14.594   7.161   0.882  1.00  0.00     0.282 C
HETATM   28  O4  UNL     1      14.957   6.717  -0.257  1.00  0.00    -0.263 OA
BRANCH  27  29
HETATM   29  C13 UNL     1      13.663   6.333   1.686  1.00  0.00     0.275 C
BRANCH  29  30
HETATM   30  O5  UNL     1      14.042   4.998   1.668  1.00  0.00    -0.391 OA
ATOM     31  H5  UNL     1      13.395   4.466   1.219  1.00  0.00     0.210 HD
ENDBRANCH  29  30
ENDBRANCH  27  29
ENDBRANCH  26  27
ENDBRANCH   7  26
BRANCH  15  32
HETATM   32  O6  UNL     1      13.263   9.102   4.881  1.00  0.00    -0.395 OA
ATOM     33  H6  UNL     1      13.848   8.387   4.660  1.00  0.00     0.210 HD
ENDBRANCH  15  32
TORSDOF 10
ENDMDL