MODEL 1
REMARK VINA RESULT: -9.166387197      0.000      0.000
REMARK  7 active torsions:
REMARK  status: ('A' for Active; 'I' for Inactive)
REMARK    1  A    between atoms: C3_4  and  S1_5
REMARK    2  A    between atoms: S1_5  and  O2_7
REMARK    3  A    between atoms: O2_7  and  C4_8
REMARK    4  A    between atoms: C4_8  and  C5_9
REMARK    5  A    between atoms: C5_9  and  N2_10
REMARK    6  A    between atoms: C9_14  and  C10_15
REMARK    7  A    between atoms: C21_31  and  N5_32
ROOT
HETATM    1  N2  UNL     1      21.373   9.834   2.980  1.00  0.00     0.091 N
HETATM    2  C6  UNL     1      22.149   8.886   3.686  1.00  0.00     0.272 C
HETATM    3  C7  UNL     1      21.474   7.506   3.731  1.00  0.00     0.031 C
HETATM    4  C8  UNL     1      19.986   7.700   3.910  1.00  0.00     0.015 C
HETATM    5  C9  UNL     1      19.806   9.051   4.607  1.00  0.00     0.071 C
HETATM    6  C19 UNL     1      20.099  10.123   3.609  1.00  0.00     0.283 C
ENDROOT
BRANCH   1   7
HETATM    7  C5  UNL     1      21.276   9.613   1.583  1.00  0.00     0.299 C
BRANCH   7   8
HETATM    8  C4  UNL     1      20.404  10.647   0.934  1.00  0.00     0.218 C
BRANCH   8   9
HETATM    9  O2  UNL     1      19.408  10.056   0.143  1.00  0.00    -0.290 OA
BRANCH   9  10
HETATM   10  S1  UNL     1      17.912  10.701   0.463  1.00  0.00     0.192 S
HETATM   11  O1  UNL     1      18.014  12.302   0.982  1.00  0.00    -0.223 OA
BRANCH  10  12
HETATM   12  C3  UNL     1      16.814  10.519  -0.862  1.00  0.00     0.091 A
HETATM   13  C2  UNL     1      15.492  10.867  -0.690  1.00  0.00     0.133 A
HETATM   14  N1  UNL     1      14.631  10.730  -1.713  1.00  0.00    -0.197 N
HETATM   15  C1  UNL     1      13.217  11.097  -1.538  1.00  0.00     0.175 C
HETATM   16  C21 UNL     1      14.985  10.264  -2.922  1.00  0.00     0.677 A
HETATM   17  N4  UNL     1      16.274   9.918  -3.108  1.00  0.00    -0.201 N
HETATM   18  C20 UNL     1      17.178  10.042  -2.099  1.00  0.00     0.130 A
ATOM     19  H4  UNL     1      16.576   9.560  -4.015  1.00  0.00     0.183 HD
BRANCH  16  20
HETATM   20  N5  UNL     1      14.103  10.156  -3.867  1.00  0.00    -0.234 N
ATOM     21  H52 UNL     1      13.640   9.271  -4.074  1.00  0.00     0.174 HD
ATOM     22  H51 UNL     1      13.851  10.967  -4.431  1.00  0.00     0.174 HD
ENDBRANCH  16  20
ENDBRANCH  10  12
ENDBRANCH   9  10
ENDBRANCH   8   9
ENDBRANCH   7   8
ENDBRANCH   1   7
BRANCH   5  23
HETATM   23  C10 UNL     1      18.412   9.160   5.147  1.00  0.00     0.057 A
HETATM   24  N3  UNL     1      17.890   8.497   6.160  1.00  0.00    -0.356 N
HETATM   25  C11 UNL     1      16.658   8.708   6.502  1.00  0.00     0.023 A
ATOM     26  H3  UNL     1      18.454   7.820   6.673  1.00  0.00     0.166 HD
HETATM   27  C12 UNL     1      15.946   9.630   5.777  1.00  0.00     0.007 A
HETATM   28  C18 UNL     1      16.206   7.873   7.677  1.00  0.00     0.058 C
HETATM   29  S2  UNL     1      17.117  10.141   4.631  1.00  0.00    -0.079 SA
HETATM   30  C13 UNL     1      14.568  10.219   5.755  1.00  0.00     0.048 C
HETATM   31  C14 UNL     1      13.486   9.192   5.762  1.00  0.00     0.005 C
HETATM   32  C15 UNL     1      12.943   8.952   7.153  1.00  0.00     0.000 C
HETATM   33  C16 UNL     1      13.776   7.827   7.753  1.00  0.00     0.000 C
HETATM   34  C17 UNL     1      15.011   8.450   8.358  1.00  0.00     0.006 C
ENDBRANCH   5  23
TORSDOF 7
ENDMDL