MODEL 2
REMARK VINA RESULT: -8.831222856      2.063      2.987
REMARK  7 active torsions:
REMARK  status: ('A' for Active; 'I' for Inactive)
REMARK    1  A    between atoms: C2_2  and  C3_3
REMARK    2  A    between atoms: C2_2  and  C8_11
REMARK    3  A    between atoms: C3_3  and  N1_4
REMARK    4  A    between atoms: C11_14  and  N2_15
REMARK       I    between atoms: N2_15  and  C12_17
REMARK    5  A    between atoms: C12_17  and  C13_19
REMARK    6  A    between atoms: C13_19  and  O4_21
REMARK    7  A    between atoms: C13_19  and  C15_23
ROOT
HETATM    1  C15 UNL     1      20.809   8.354   3.539  1.00  0.00     0.088 C
HETATM    2  C16 UNL     1      20.660   8.869   2.178  1.00  0.00     0.072 C
HETATM    3  N3  UNL     1      20.534   9.263   1.075  1.00  0.00    -0.196 NA
HETATM    4  C17 UNL     1      22.272   8.044   3.747  1.00  0.00     0.028 C
HETATM    5  C18 UNL     1      22.680   6.708   3.203  1.00  0.00     0.002 C
HETATM    6  C19 UNL     1      23.124   5.783   4.331  1.00  0.00     0.000 C
HETATM    7  C20 UNL     1      22.233   4.591   4.437  1.00  0.00     0.000 C
HETATM    8  C21 UNL     1      20.774   4.895   4.219  1.00  0.00     0.000 C
HETATM    9  C22 UNL     1      20.365   6.227   4.809  1.00  0.00     0.002 C
HETATM   10  C23 UNL     1      19.931   7.157   3.704  1.00  0.00     0.028 C
ENDROOT
BRANCH   1  11
HETATM   11  C13 UNL     1      20.430   9.473   4.489  1.00  0.00     0.155 C
HETATM   12  C14 UNL     1      21.087   9.273   5.842  1.00  0.00     0.058 C
BRANCH  11  13
HETATM   13  C12 UNL     1      18.963   9.517   4.705  1.00  0.00     0.254 C
HETATM   14  N2  UNL     1      18.085  10.205   3.814  1.00  0.00    -0.354 N
ATOM     15  H2  UNL     1      18.482  10.681   3.004  1.00  0.00     0.162 HD
HETATM   16  O3  UNL     1      18.438   8.943   5.692  1.00  0.00    -0.270 OA
BRANCH  14  17
HETATM   17  C11 UNL     1      16.664  10.252   4.016  1.00  0.00     0.084 C
HETATM   18  C10 UNL     1      16.116  11.619   3.689  1.00  0.00     0.025 C
HETATM   19  C9  UNL     1      14.641  11.344   3.489  1.00  0.00     0.007 C
HETATM   20  C8  UNL     1      14.519   9.908   3.123  1.00  0.00    -0.008 C
HETATM   21  C24 UNL     1      15.930   9.376   2.995  1.00  0.00     0.030 C
BRANCH  20  22
HETATM   22  C2  UNL     1      13.712   9.664   1.875  1.00  0.00     0.001 C
HETATM   23  C1  UNL     1      12.352   9.111   2.235  1.00  0.00     0.011 C
BRANCH  22  24
HETATM   24  C3  UNL     1      14.370   8.719   0.921  1.00  0.00     0.125 C
BRANCH  24  25
HETATM   25  N1  UNL     1      14.093   9.221  -0.432  1.00  0.00    -0.195 NA
HETATM   26  C4  UNL     1      15.000   8.677  -1.385  1.00  0.00     0.146 C
HETATM   27  C5  UNL     1      15.842   9.655  -2.111  1.00  0.00     0.184 C
HETATM   28  O1  UNL     1      15.197  10.776  -2.564  1.00  0.00    -0.388 OA
HETATM   29  C6  UNL     1      13.841  10.637  -2.721  1.00  0.00     0.195 C
HETATM   30  C7  UNL     1      13.194  11.004  -1.387  1.00  0.00     0.220 C
HETATM   31  O2  UNL     1      14.065  10.562  -0.391  1.00  0.00    -0.301 OA
ENDBRANCH  24  25
ENDBRANCH  22  24
ENDBRANCH  20  22
ENDBRANCH  14  17
ENDBRANCH  11  13
BRANCH  11  32
HETATM   32  O4  UNL     1      20.897  10.702   3.982  1.00  0.00    -0.379 OA
ATOM     33  H4  UNL     1      21.293  10.584   3.126  1.00  0.00     0.211 HD
ENDBRANCH  11  32
ENDBRANCH   1  11
TORSDOF 7
ENDMDL