MODEL 1
REMARK VINA RESULT: -9.532605302      0.000      0.000
REMARK  9 active torsions:
REMARK  status: ('A' for Active; 'I' for Inactive)
REMARK    1  A    between atoms: C2_2  and  O2_4
REMARK    2  A    between atoms: O2_4  and  C3_5
REMARK    3  A    between atoms: C3_5  and  C4_6
REMARK    4  A    between atoms: C7_9  and  C8_10
REMARK    5  A    between atoms: C12_14  and  C13_15
REMARK    6  A    between atoms: C14_16  and  C15_17
REMARK    7  A    between atoms: N1_24  and  C22_25
REMARK    8  A    between atoms: C24_29  and  O4_30
REMARK    9  A    between atoms: C25_32  and  O5_33
ROOT
HETATM    1  C22 UNL     1      13.814  10.299  -0.216  1.00  0.00     0.247 C
HETATM    2  C23 UNL     1      13.884   8.960   0.408  1.00  0.00     0.079 C
HETATM    3  N2  UNL     1      13.961   7.907   0.894  1.00  0.00    -0.196 NA
ENDROOT
BRANCH   1   4
HETATM    4  N1  UNL     1      14.302  10.345  -1.554  1.00  0.00    -0.368 N
HETATM    5  C15 UNL     1      15.643  10.006  -1.839  1.00  0.00     0.026 C
HETATM    6  C16 UNL     1      15.814   9.126  -2.857  1.00  0.00     0.003 C
HETATM    7  C17 UNL     1      14.591   8.659  -3.554  1.00  0.00     0.040 C
HETATM    8  C18 UNL     1      13.790   9.893  -3.915  1.00  0.00    -0.028 C
HETATM    9  C19 UNL     1      14.647  10.712  -4.858  1.00  0.00     0.016 C
HETATM   10  C20 UNL     1      12.528   9.382  -4.598  1.00  0.00     0.016 C
HETATM   11  C21 UNL     1      13.471  10.733  -2.714  1.00  0.00     0.133 C
BRANCH   5  12
HETATM   12  C14 UNL     1      16.773  10.502  -1.119  1.00  0.00     0.027 C
HETATM   13  C13 UNL     1      18.003  10.688  -1.419  1.00  0.00     0.007 C
BRANCH  13  14
HETATM   14  C12 UNL     1      18.946  11.243  -0.396  1.00  0.00     0.148 C
HETATM   15  C10 UNL     1      18.314  11.623   0.891  1.00  0.00     0.017 C
HETATM   16  C9  UNL     1      19.356  11.122   1.915  1.00  0.00     0.039 C
HETATM   17  C11 UNL     1      18.106  13.105   1.046  1.00  0.00     0.013 C
HETATM   18  C8  UNL     1      20.551  10.959   1.002  1.00  0.00     0.133 C
HETATM   19  O3  UNL     1      19.958  10.334  -0.093  1.00  0.00    -0.376 OA
BRANCH  18  20
HETATM   20  C7  UNL     1      21.560  10.087   1.719  1.00  0.00     0.068 C
HETATM   21  C6  UNL     1      21.988  10.659   2.997  1.00  0.00    -0.020 C
HETATM   22  C5  UNL     1      22.515   9.839   3.939  1.00  0.00    -0.021 C
HETATM   23  C4  UNL     1      22.606   8.430   3.586  1.00  0.00     0.064 C
HETATM   24  C25 UNL     1      21.165   8.046   3.119  1.00  0.00     0.157 C
HETATM   25  C24 UNL     1      20.951   8.707   1.809  1.00  0.00     0.157 C
BRANCH  23  26
HETATM   26  C3  UNL     1      23.037   7.438   4.595  1.00  0.00     0.190 C
BRANCH  26  27
HETATM   27  O2  UNL     1      22.399   6.261   4.635  1.00  0.00    -0.321 OA
BRANCH  27  28
HETATM   28  C2  UNL     1      22.566   4.956   4.530  1.00  0.00     0.254 C
HETATM   29  C1  UNL     1      21.808   4.187   3.480  1.00  0.00     0.126 C
HETATM   30  O1  UNL     1      23.345   4.360   5.294  1.00  0.00    -0.266 OA
ENDBRANCH  27  28
ENDBRANCH  26  27
ENDBRANCH  23  26
BRANCH  24  31
HETATM   31  O5  UNL     1      20.304   8.527   4.093  1.00  0.00    -0.392 OA
ATOM     32  H5  UNL     1      20.468   9.461   4.152  1.00  0.00     0.210 HD
ENDBRANCH  24  31
BRANCH  25  33
HETATM   33  O4  UNL     1      21.520   7.874   0.819  1.00  0.00    -0.392 OA
ATOM     34  H4  UNL     1      22.408   7.646   1.068  1.00  0.00     0.210 HD
ENDBRANCH  25  33
ENDBRANCH  18  20
ENDBRANCH  13  14
ENDBRANCH   5  12
ENDBRANCH   1   4
TORSDOF 9
ENDMDL