MODEL 4
REMARK VINA RESULT: -4.994126048      2.628      4.472
REMARK  6 active torsions:
REMARK  status: ('A' for Active; 'I' for Inactive)
REMARK    1  A    between atoms: C5_7  and  O2_8
REMARK    2  A    between atoms: O2_8  and  C6_9
REMARK    3  A    between atoms: C6_9  and  N2_11
REMARK    4  A    between atoms: N2_11  and  N3_13
REMARK    5  A    between atoms: C11_22  and  C12_23
REMARK    6  A    between atoms: C12_23  and  O5_24
ROOT
HETATM    1  C1  UNL     1      21.744 -13.127  87.132  1.00  0.00     0.058 C
HETATM    2  C2  UNL     1      21.957 -11.802  86.479  1.00  0.00     0.152 C
HETATM    3  C3  UNL     1      20.871 -10.806  86.756  1.00  0.00     0.088 C
HETATM    4  C4  UNL     1      21.656  -9.650  87.331  1.00  0.00     0.217 C
HETATM    5  O1  UNL     1      22.806 -10.236  87.857  1.00  0.00    -0.273 OA
HETATM    6  N1  UNL     1      23.133 -11.187  87.000  1.00  0.00    -0.070 NA
HETATM    7  C5  UNL     1      21.916  -8.547  86.392  1.00  0.00     0.239 A
HETATM    8  O3  UNL     1      23.345  -8.489  85.925  1.00  0.00    -0.327 OA
HETATM    9  C7  UNL     1      22.136  -8.639  85.076  1.00  0.00     0.187 A
HETATM   10  C8  UNL     1      22.239  -9.787  84.203  1.00  0.00     0.193 C
HETATM   11  C9  UNL     1      23.091  -9.231  83.048  1.00  0.00     0.072 C
HETATM   12  C10 UNL     1      22.664  -7.822  82.862  1.00  0.00     0.165 A
HETATM   13  O4  UNL     1      23.047  -6.823  83.743  1.00  0.00    -0.363 OA
HETATM   14  C11 UNL     1      21.916  -7.475  84.130  1.00  0.00     0.147 A
HETATM   15  O6  UNL     1      22.880 -10.900  84.642  1.00  0.00    -0.276 OA
HETATM   16  N4  UNL     1      22.063 -11.912  85.019  1.00  0.00    -0.071 NA
ENDROOT
BRANCH   7  17
HETATM   17  O2  UNL     1      21.658  -7.241  86.948  1.00  0.00    -0.281 OA
BRANCH  17  18
HETATM   18  C6  UNL     1      21.227  -7.208  88.260  1.00  0.00     0.231 C
HETATM   19  S1  UNL     1      19.697  -6.708  88.539  1.00  0.00    -0.032 SA
BRANCH  18  20
HETATM   20  N2  UNL     1      22.055  -7.587  89.352  1.00  0.00    -0.277 N
ATOM     21  H2  UNL     1      23.066  -7.640  89.230  1.00  0.00     0.189 HD
BRANCH  20  22
HETATM   22  N3  UNL     1      21.483  -7.887  90.592  1.00  0.00    -0.343 N
ATOM     23  H32 UNL     1      20.496  -8.142  90.634  1.00  0.00     0.176 HD
ATOM     24  H31 UNL     1      22.051  -7.850  91.439  1.00  0.00     0.176 HD
ENDBRANCH  20  22
ENDBRANCH  18  20
ENDBRANCH  17  18
ENDBRANCH   7  17
BRANCH  14  25
HETATM   25  C12 UNL     1      20.552  -6.936  83.924  1.00  0.00     0.208 C
BRANCH  25  26
HETATM   26  O5  UNL     1      20.204  -5.957  84.864  1.00  0.00    -0.398 OA
ATOM     27  H5  UNL     1      19.835  -6.322  85.659  1.00  0.00     0.209 HD
ENDBRANCH  25  26
ENDBRANCH  14  25
TORSDOF 6
ENDMDL