MODEL 5
REMARK VINA RESULT: -6.533840651      1.418      1.734
REMARK  1 active torsions:
REMARK  status: ('A' for Active; 'I' for Inactive)
REMARK    1  A    between atoms: N5_22  and  N6_24
ROOT
HETATM    1  C1  UNL     1      20.876  -6.806  83.827  1.00  0.00     0.161 C
HETATM    2  N1  UNL     1      20.695  -6.906  85.242  1.00  0.00    -0.302 N
HETATM    3  C2  UNL     1      20.139  -5.778  85.840  1.00  0.00     0.329 A
HETATM    4  O1  UNL     1      19.549  -4.966  85.040  1.00  0.00    -0.246 OA
HETATM    5  N2  UNL     1      20.192  -5.519  87.142  1.00  0.00    -0.274 N
ATOM      6  H2  UNL     1      19.761  -4.673  87.515  1.00  0.00     0.173 HD
HETATM    7  C3  UNL     1      20.810  -6.371  87.956  1.00  0.00     0.265 A
HETATM    8  O2  UNL     1      20.902  -6.180  89.202  1.00  0.00    -0.267 OA
HETATM    9  C4  UNL     1      21.368  -7.503  87.434  1.00  0.00     0.104 A
HETATM   10  C5  UNL     1      22.078  -8.351  88.269  1.00  0.00     0.120 A
HETATM   11  N3  UNL     1      22.071  -8.035  89.495  1.00  0.00    -0.384 N
ATOM     12  H31 UNL     1      22.593  -8.659  90.109  1.00  0.00     0.157 HD
ATOM     13  H32 UNL     1      21.592  -7.197  89.827  1.00  0.00     0.157 HD
HETATM   14  N4  UNL     1      22.715  -9.462  87.828  1.00  0.00    -0.322 N
HETATM   15  C6  UNL     1      23.530 -10.224  88.711  1.00  0.00     0.159 C
HETATM   16  C7  UNL     1      22.619  -9.744  86.514  1.00  0.00     0.129 A
HETATM   17  C8  UNL     1      21.902  -8.909  85.603  1.00  0.00     0.088 A
HETATM   18  C9  UNL     1      21.683  -9.288  84.326  1.00  0.00     0.206 A
HETATM   19  O3  UNL     1      21.058  -8.724  83.481  1.00  0.00    -0.286 OA
HETATM   20  C10 UNL     1      22.207 -10.520  83.877  1.00  0.00     0.107 A
HETATM   21  C11 UNL     1      22.151 -11.127  82.631  1.00  0.00     0.152 A
HETATM   22  N5  UNL     1      21.654 -10.851  81.523  1.00  0.00    -0.290 N
ATOM     23  H5  UNL     1      21.855 -11.595  80.855  1.00  0.00     0.188 HD
HETATM   24  N7  UNL     1      22.850 -12.307  82.793  1.00  0.00    -0.282 N
ATOM     25  H7  UNL     1      23.011 -13.010  82.071  1.00  0.00     0.188 HD
HETATM   26  N8  UNL     1      23.280 -12.370  84.059  1.00  0.00    -0.283 N
ATOM     27  H8  UNL     1      23.825 -13.139  84.449  1.00  0.00     0.188 HD
HETATM   28  C12 UNL     1      22.897 -11.284  84.744  1.00  0.00     0.141 A
HETATM   29  N9  UNL     1      23.108 -10.920  86.051  1.00  0.00    -0.321 N
HETATM   30  C13 UNL     1      23.795 -11.807  86.920  1.00  0.00     0.159 C
HETATM   31  C14 UNL     1      21.294  -7.767  86.064  1.00  0.00     0.076 A
ENDROOT
BRANCH  22  32
HETATM   32  N6  UNL     1      20.939  -9.885  80.933  1.00  0.00    -0.344 N
ATOM     33  H62 UNL     1      19.979 -10.212  80.826  1.00  0.00     0.176 HD
ATOM     34  H61 UNL     1      21.058  -8.941  80.566  1.00  0.00     0.176 HD
ENDBRANCH  22  32
TORSDOF 1
ENDMDL