MODEL 3
REMARK VINA RESULT: -7.949721841      2.944      5.892
REMARK  6 active torsions:
REMARK  status: ('A' for Active; 'I' for Inactive)
REMARK    1  A    between atoms: N1_1  and  C1_4
REMARK    2  A    between atoms: C4_15  and  N6_16
REMARK    3  A    between atoms: N6_16  and  C5_18
REMARK    4  A    between atoms: N9_27  and  O1_28
REMARK    5  A    between atoms: O1_28  and  S1_29
REMARK    6  A    between atoms: S1_29  and  N10_30
ROOT
HETATM    1  C1  UNL     1      17.587  -4.619  90.390  1.00  0.00     0.692 A
HETATM    2  N2  UNL     1      18.759  -5.096  89.916  1.00  0.00    -0.169 N
ATOM      3  H2  UNL     1      19.418  -5.510  90.576  1.00  0.00     0.186 HD
HETATM    4  C2  UNL     1      19.098  -5.049  88.615  1.00  0.00     0.214 A
HETATM    5  C3  UNL     1      18.171  -4.477  87.761  1.00  0.00     0.184 A
HETATM    6  N3  UNL     1      17.012  -4.012  88.259  1.00  0.00    -0.268 N
ATOM      7  H3  UNL     1      16.342  -3.595  87.613  1.00  0.00     0.189 HD
HETATM    8  N4  UNL     1      16.692  -4.064  89.540  1.00  0.00    -0.131 N
ATOM      9  H4  UNL     1      15.801  -3.698  89.877  1.00  0.00     0.205 HD
HETATM   10  N5  UNL     1      18.725  -4.544  86.537  1.00  0.00    -0.169 N
ATOM     11  H5  UNL     1      18.297  -4.207  85.676  1.00  0.00     0.186 HD
HETATM   12  C4  UNL     1      19.935  -5.127  86.628  1.00  0.00     0.728 A
HETATM   13  N9  UNL     1      20.174  -5.439  87.893  1.00  0.00    -0.010 N
ENDROOT
BRANCH  12  14
HETATM   14  N6  UNL     1      20.768  -5.364  85.653  1.00  0.00    -0.020 N
ATOM     15  H6  UNL     1      21.307  -4.601  85.244  1.00  0.00     0.203 HD
BRANCH  14  16
HETATM   16  C5  UNL     1      20.926  -6.702  85.157  1.00  0.00     0.688 C
HETATM   17  N7  UNL     1      20.164  -7.075  84.193  1.00  0.00    -0.226 N
HETATM   18  C6  UNL     1      20.043  -8.312  83.461  1.00  0.00     0.138 C
ATOM     19  H7  UNL     1      19.515  -6.351  83.882  1.00  0.00     0.177 HD
HETATM   20  C7  UNL     1      21.355  -9.019  83.318  1.00  0.00     0.022 C
HETATM   21  C8  UNL     1      21.762  -9.625  84.650  1.00  0.00     0.022 C
HETATM   22  C9  UNL     1      22.662  -8.615  85.330  1.00  0.00     0.138 C
HETATM   23  N8  UNL     1      21.927  -7.468  85.809  1.00  0.00    -0.226 N
ATOM     24  H8  UNL     1      22.162  -7.164  86.755  1.00  0.00     0.177 HD
ENDBRANCH  14  16
ENDBRANCH  12  14
BRANCH  13  25
HETATM   25  O1  UNL     1      21.302  -6.049  88.396  1.00  0.00    -0.111 OA
BRANCH  25  26
HETATM   26  S1  UNL     1      21.145  -7.656  88.941  1.00  0.00     0.377 S
HETATM   27  O2  UNL     1      22.362  -8.461  88.627  1.00  0.00    -0.174 OA
HETATM   28  O3  UNL     1      19.989  -8.262  88.192  1.00  0.00    -0.174 OA
BRANCH  26  29
HETATM   29  N10 UNL     1      20.900  -7.724  90.649  1.00  0.00    -0.304 N
ATOM     30 2H10 UNL     1      20.632  -8.573  91.145  1.00  0.00     0.171 HD
ATOM     31 1H10 UNL     1      21.058  -6.815  91.086  1.00  0.00     0.171 HD
ENDBRANCH  26  29
ENDBRANCH  25  26
ENDBRANCH  13  25
BRANCH   1  32
HETATM   32  N1  UNL     1      17.312  -4.690  91.651  1.00  0.00    -0.233 N
ATOM     33  H12 UNL     1      17.982  -5.118  92.290  1.00  0.00     0.174 HD
ATOM     34  H11 UNL     1      16.431  -4.321  92.010  1.00  0.00     0.174 HD
ENDBRANCH   1  32
TORSDOF 6
ENDMDL