MODEL 5
REMARK VINA RESULT: -4.575741892      1.451      4.955
REMARK  6 active torsions:
REMARK  status: ('A' for Active; 'I' for Inactive)
REMARK    1  A    between atoms: C4_5  and  O2_6
REMARK    2  A    between atoms: C6_11  and  O5_13
REMARK    3  A    between atoms: C11_19  and  O7_20
REMARK    4  A    between atoms: C11_19  and  C12_22
REMARK    5  A    between atoms: C12_22  and  O8_23
REMARK    6  A    between atoms: C14_27  and  O10_28
ROOT
HETATM    1  C1  UNL     1      25.421  -9.578  84.815  1.00  0.00     0.078 C
HETATM    2  C2  UNL     1      24.501  -9.343  86.021  1.00  0.00     0.164 C
HETATM    3  C3  UNL     1      25.337  -8.632  87.052  1.00  0.00     0.078 C
HETATM    4  O1  UNL     1      23.954 -10.520  86.451  1.00  0.00    -0.321 OA
HETATM    5  C4  UNL     1      22.759 -10.121  87.096  1.00  0.00     0.327 C
HETATM    6  C5  UNL     1      22.369  -8.799  86.476  1.00  0.00     0.263 C
HETATM    7  O3  UNL     1      23.430  -8.628  85.574  1.00  0.00    -0.312 OA
HETATM    8  O4  UNL     1      22.522  -7.735  87.340  1.00  0.00    -0.311 OA
HETATM    9  C6  UNL     1      21.468  -7.165  87.927  1.00  0.00     0.170 C
HETATM   10  C7  UNL     1      21.780  -5.714  88.266  1.00  0.00     0.079 C
HETATM   11  C8  UNL     1      20.147  -7.289  87.151  1.00  0.00     0.115 C
HETATM   12  C9  UNL     1      19.877  -6.152  86.270  1.00  0.00     0.042 C
HETATM   13  C10 UNL     1      20.797  -5.802  85.178  1.00  0.00     0.172 C
HETATM   14  O6  UNL     1      21.751  -6.751  84.841  1.00  0.00    -0.351 OA
HETATM   15  C11 UNL     1      21.040  -7.905  84.534  1.00  0.00     0.227 C
HETATM   16  C13 UNL     1      21.143  -8.842  85.675  1.00  0.00     0.240 A
HETATM   17  O9  UNL     1      20.002  -9.525  85.790  1.00  0.00    -0.323 OA
HETATM   18  C14 UNL     1      20.052  -8.670  86.754  1.00  0.00     0.215 A
ENDROOT
BRANCH   5  19
HETATM   19  O2  UNL     1      23.058 -10.044  88.436  1.00  0.00    -0.366 OA
ATOM     20  H2  UNL     1      23.355  -9.155  88.589  1.00  0.00     0.212 HD
ENDBRANCH   5  19
BRANCH   9  21
HETATM   21  O5  UNL     1      21.290  -7.780  89.190  1.00  0.00    -0.365 OA
ATOM     22  H5  UNL     1      22.138  -8.088  89.486  1.00  0.00     0.213 HD
ENDBRANCH   9  21
BRANCH  15  23
HETATM   23  O7  UNL     1      19.702  -7.578  84.181  1.00  0.00    -0.361 OA
ATOM     24  H7  UNL     1      19.603  -7.580  83.235  1.00  0.00     0.213 HD
ENDBRANCH  15  23
BRANCH  15  25
HETATM   25  C12 UNL     1      21.560  -8.600  83.283  1.00  0.00     0.236 C
BRANCH  25  26
HETATM   26  O8  UNL     1      21.525  -9.997  83.449  1.00  0.00    -0.395 OA
ATOM     27  H8  UNL     1      22.329 -10.388  83.129  1.00  0.00     0.209 HD
ENDBRANCH  25  26
ENDBRANCH  15  25
BRANCH  18  28
HETATM   28  O10 UNL     1      20.277  -9.489  87.918  1.00  0.00    -0.362 OA
ATOM     29  H10 UNL     1      19.667 -10.218  87.890  1.00  0.00     0.213 HD
ENDBRANCH  18  28
TORSDOF 6
ENDMDL