MODEL 4
REMARK VINA RESULT: -7.248903649      3.435      7.282
REMARK  7 active torsions:
REMARK  status: ('A' for Active; 'I' for Inactive)
REMARK    1  A    between atoms: C2_3  and  O1_4
REMARK    2  A    between atoms: C3_6  and  C4_7
REMARK    3  A    between atoms: N3_18  and  C11_19
REMARK    4  A    between atoms: C11_19  and  O4_25
REMARK    5  A    between atoms: N4_20  and  N5_22
REMARK    6  A    between atoms: O4_25  and  N6_26
REMARK    7  A    between atoms: N7_28  and  N8_30
ROOT
HETATM    1  C1  UNL     1      18.484  -3.580  85.648  1.00  0.00     0.163 C
HETATM    2  N1  UNL     1      19.156  -4.632  86.401  1.00  0.00    -0.282 N
HETATM    3  C2  UNL     1      20.017  -5.525  85.856  1.00  0.00     0.174 A
HETATM    4  C3  UNL     1      20.422  -6.335  86.882  1.00  0.00     0.099 A
HETATM    5  N3  UNL     1      19.818  -5.932  88.013  1.00  0.00    -0.222 N
HETATM    6  C12 UNL     1      19.041  -4.885  87.710  1.00  0.00     0.338 A
HETATM    7  O5  UNL     1      18.314  -4.246  88.556  1.00  0.00    -0.246 OA
ENDROOT
BRANCH   5   8
HETATM    8  C11 UNL     1      19.955  -6.500  89.328  1.00  0.00     0.274 C
HETATM    9  N4  UNL     1      20.880  -7.328  89.583  1.00  0.00    -0.270 N
ATOM     10  H4  UNL     1      21.528  -7.585  88.839  1.00  0.00     0.190 HD
BRANCH   9  11
HETATM   11  N5  UNL     1      21.045  -7.898  90.841  1.00  0.00    -0.342 N
ATOM     12  H52 UNL     1      20.641  -7.409  91.640  1.00  0.00     0.176 HD
ATOM     13  H51 UNL     1      21.549  -8.774  90.983  1.00  0.00     0.176 HD
ENDBRANCH   9  11
BRANCH   8  14
HETATM   14  O4  UNL     1      19.063  -6.136  90.323  1.00  0.00    -0.182 OA
BRANCH  14  15
HETATM   15  N6  UNL     1      17.742  -6.500  90.194  1.00  0.00    -0.184 N
HETATM   16  N7  UNL     1      16.806  -5.820  90.674  1.00  0.00    -0.229 N
ATOM     17  H7  UNL     1      15.839  -6.122  90.558  1.00  0.00     0.209 HD
ATOM     18  H6  UNL     1      17.516  -7.357  89.689  1.00  0.00     0.218 HD
BRANCH  16  19
HETATM   19  N8  UNL     1      17.101  -4.632  91.376  1.00  0.00    -0.329 N
ATOM     20  H82 UNL     1      17.968  -4.570  91.909  1.00  0.00     0.178 HD
ATOM     21  H81 UNL     1      16.444  -3.853  91.341  1.00  0.00     0.178 HD
ENDBRANCH  16  19
ENDBRANCH  14  15
ENDBRANCH   8  14
ENDBRANCH   5   8
BRANCH   4  22
HETATM   22  C4  UNL     1      21.326  -7.472  86.789  1.00  0.00     0.048 C
HETATM   23  C5  UNL     1      21.350  -8.427  85.923  1.00  0.00     0.029 C
HETATM   24  C6  UNL     1      20.519  -8.718  84.777  1.00  0.00     0.255 C
HETATM   25  C8  UNL     1      22.376  -9.525  85.920  1.00  0.00     0.066 C
HETATM   26  O2  UNL     1      19.358  -8.289  84.564  1.00  0.00    -0.268 OA
HETATM   27  N2  UNL     1      21.224  -9.592  83.894  1.00  0.00    -0.293 N
HETATM   28  C7  UNL     1      22.506  -9.867  84.474  1.00  0.00     0.237 C
ATOM     29  H2  UNL     1      20.877  -9.957  83.008  1.00  0.00     0.172 HD
HETATM   30  O3  UNL     1      23.523 -10.294  83.924  1.00  0.00    -0.272 OA
HETATM   31  C9  UNL     1      21.810 -10.658  86.739  1.00  0.00     0.030 C
HETATM   32  C10 UNL     1      23.651  -8.965  86.491  1.00  0.00     0.030 C
ENDBRANCH   4  22
BRANCH   3  33
HETATM   33  O1  UNL     1      20.382  -5.555  84.491  1.00  0.00    -0.344 OA
ATOM     34  H1  UNL     1      20.393  -4.797  83.920  1.00  0.00     0.219 HD
ENDBRANCH   3  33
TORSDOF 7
ENDMDL