MODEL 1
REMARK VINA RESULT: -9.882241961      0.000      0.000
REMARK  2 active torsions:
REMARK  status: ('A' for Active; 'I' for Inactive)
REMARK    1  A    between atoms: N1_1  and  C1_4
REMARK    2  A    between atoms: C3_12  and  C4_13
ROOT
HETATM    1  C4  UNL     1      18.080  -3.947  87.143  1.00  0.00     0.170 A
HETATM    2  N5  UNL     1      18.148  -3.440  85.883  1.00  0.00    -0.281 N
ATOM      3  H5  UNL     1      18.840  -3.698  85.180  1.00  0.00     0.188 HD
HETATM    4  N6  UNL     1      17.176  -2.563  85.715  1.00  0.00    -0.287 N
ATOM      5  H6  UNL     1      17.001  -2.035  84.859  1.00  0.00     0.188 HD
HETATM    6  C5  UNL     1      16.453  -2.471  86.844  1.00  0.00     0.103 A
HETATM    7  N7  UNL     1      17.033  -3.343  87.721  1.00  0.00    -0.317 N
HETATM    8  C6  UNL     1      16.456  -3.463  89.063  1.00  0.00     0.136 C
HETATM    9  C7  UNL     1      16.240  -2.013  89.511  1.00  0.00     0.082 C
HETATM   10  C8  UNL     1      15.212  -1.321  88.688  1.00  0.00     0.208 C
HETATM   11  C9  UNL     1      15.263  -1.664  87.223  1.00  0.00     0.139 C
HETATM   12  N8  UNL     1      15.369   0.112  88.802  1.00  0.00    -0.040 N
ATOM     13  H81 UNL     1      16.002   0.493  88.099  1.00  0.00     0.280 HD
ATOM     14  H82 UNL     1      15.899   0.383  89.630  1.00  0.00     0.280 HD
HETATM   15  C10 UNL     1      14.080   0.713  88.759  1.00  0.00     0.337 C
HETATM   16  C11 UNL     1      13.112  -0.407  88.825  1.00  0.00     0.245 C
HETATM   17  O2  UNL     1      11.864  -0.371  88.591  1.00  0.00    -0.272 OA
HETATM   18  N9  UNL     1      13.858  -1.554  89.208  1.00  0.00    -0.327 N
ATOM     19  H9  UNL     1      13.525  -2.364  89.730  1.00  0.00     0.165 HD
ENDROOT
BRANCH   1  20
HETATM   20  C3  UNL     1      18.975  -4.949  87.729  1.00  0.00     0.182 A
HETATM   21  N4  UNL     1      19.877  -5.652  87.026  1.00  0.00    -0.256 N
HETATM   22  N3  UNL     1      20.527  -6.470  87.831  1.00  0.00    -0.029 N
ATOM     23  H4  UNL     1      20.037  -5.565  86.022  1.00  0.00     0.190 HD
HETATM   24  C2  UNL     1      21.508  -7.370  87.640  1.00  0.00     0.374 A
HETATM   25  C12 UNL     1      20.047  -6.304  89.074  1.00  0.00     0.724 A
HETATM   26  N2  UNL     1      21.998  -8.087  88.662  1.00  0.00    -0.139 N
HETATM   27  O1  UNL     1      21.982  -7.554  86.494  1.00  0.00    -0.244 OA
HETATM   28  C1  UNL     1      21.532  -7.936  89.909  1.00  0.00     0.694 A
ATOM     29  H2  UNL     1      22.743  -8.763  88.485  1.00  0.00     0.189 HD
HETATM   30  N11 UNL     1      20.555  -7.038  90.089  1.00  0.00    -0.020 N
ATOM     31  H11 UNL     1      20.181  -6.901  91.028  1.00  0.00     0.203 HD
HETATM   32  N10 UNL     1      19.086  -5.359  88.995  1.00  0.00    -0.169 N
ATOM     33  H10 UNL     1      18.533  -5.013  89.778  1.00  0.00     0.186 HD
BRANCH  28  34
HETATM   34  N1  UNL     1      22.014  -8.635  90.889  1.00  0.00    -0.234 N
ATOM     35  H12 UNL     1      21.567  -8.664  91.805  1.00  0.00     0.174 HD
ATOM     36  H11 UNL     1      22.866  -9.184  90.773  1.00  0.00     0.174 HD
ENDBRANCH  28  34
ENDBRANCH   1  20
TORSDOF 2
ENDMDL