MODEL 3
REMARK VINA RESULT: -8.191750862      2.134      7.792
REMARK  3 active torsions:
REMARK  status: ('A' for Active; 'I' for Inactive)
REMARK    1  A    between atoms: C3_10  and  C4_11
REMARK       I    between atoms: C4_11  and  N5_13
REMARK    2  A    between atoms: N5_13  and  C5_15
REMARK    3  A    between atoms: C6_18  and  N7_19
ROOT
HETATM    1  C5  UNL     1      21.295  -7.495  85.936  1.00  0.00     0.148 A
HETATM    2  N6  UNL     1      21.188  -7.868  84.649  1.00  0.00    -0.173 N
ATOM      3  H6  UNL     1      21.008  -7.153  83.945  1.00  0.00     0.186 HD
HETATM    4  C6  UNL     1      21.310  -9.149  84.254  1.00  0.00     0.700 A
HETATM    5  N8  UNL     1      21.548 -10.117  85.162  1.00  0.00    -0.064 N
HETATM    6  N9  UNL     1      21.707 -11.415  85.053  1.00  0.00    -0.228 N
ATOM      7  H9  UNL     1      21.674 -11.958  84.189  1.00  0.00     0.193 HD
HETATM    8  C7  UNL     1      21.922 -11.899  86.286  1.00  0.00     0.341 A
HETATM    9  O2  UNL     1      22.122 -13.113  86.606  1.00  0.00    -0.245 OA
HETATM   10  N10 UNL     1      21.900 -10.907  87.187  1.00  0.00    -0.290 N
ATOM     11  H10 UNL     1      22.032 -10.978  88.196  1.00  0.00     0.172 HD
HETATM   12  C8  UNL     1      21.663  -9.788  86.456  1.00  0.00     0.174 A
HETATM   13  C9  UNL     1      21.537  -8.464  86.877  1.00  0.00     0.135 A
HETATM   14  C10 UNL     1      21.662  -8.126  88.270  1.00  0.00     0.107 C
HETATM   15  N11 UNL     1      21.769  -7.836  89.396  1.00  0.00    -0.191 NA
ENDROOT
BRANCH   1  16
HETATM   16  N5  UNL     1      21.175  -6.248  86.309  1.00  0.00    -0.305 N
HETATM   17  C4  UNL     1      19.963  -5.531  86.118  1.00  0.00     0.291 C
HETATM   18  O1  UNL     1      19.650  -5.206  84.942  1.00  0.00    -0.264 OA
ATOM     19  H5  UNL     1      21.968  -5.780  86.746  1.00  0.00     0.170 HD
BRANCH  17  20
HETATM   20  C3  UNL     1      19.142  -5.203  87.269  1.00  0.00     0.180 A
HETATM   21  N4  UNL     1      19.105  -5.868  88.435  1.00  0.00    -0.320 N
HETATM   22  C2  UNL     1      18.237  -5.304  89.295  1.00  0.00     0.169 A
ATOM     23  H4  UNL     1      19.664  -6.695  88.642  1.00  0.00     0.169 HD
HETATM   24  N3  UNL     1      17.678  -5.348  90.516  1.00  0.00    -0.268 N
HETATM   25  C12 UNL     1      17.693  -4.222  88.635  1.00  0.00     0.173 A
HETATM   26  N2  UNL     1      16.819  -4.354  90.652  1.00  0.00    -0.238 N
ATOM     27  H3  UNL     1      17.887  -6.044  91.232  1.00  0.00     0.190 HD
HETATM   28  N1  UNL     1      16.834  -3.685  89.520  1.00  0.00    -0.263 N
ATOM     29  H2  UNL     1      16.254  -4.146  91.475  1.00  0.00     0.208 HD
HETATM   30  C1  UNL     1      16.031  -2.506  89.233  1.00  0.00     0.181 C
HETATM   31  N12 UNL     1      18.259  -4.188  87.415  1.00  0.00    -0.315 N
HETATM   32  C11 UNL     1      17.977  -3.210  86.389  1.00  0.00     0.159 C
ENDBRANCH  17  20
ENDBRANCH   1  16
BRANCH   4  33
HETATM   33  N7  UNL     1      21.196  -9.432  83.006  1.00  0.00    -0.233 N
ATOM     34  H72 UNL     1      21.763  -8.951  82.308  1.00  0.00     0.174 HD
ATOM     35  H71 UNL     1      20.529 -10.148  82.718  1.00  0.00     0.174 HD
ENDBRANCH   4  33
TORSDOF 3
ENDMDL