MODEL 4
REMARK VINA RESULT: -5.191753637      2.641      4.812
REMARK  5 active torsions:
REMARK  status: ('A' for Active; 'I' for Inactive)
REMARK    1  A    between atoms: O1_2  and  C2_3
REMARK       I    between atoms: C2_3  and  N1_5
REMARK    2  A    between atoms: N1_5  and  C3_7
REMARK    3  A    between atoms: C5_14  and  N4_15
REMARK    4  A    between atoms: C6_19  and  C7_20
REMARK    5  A    between atoms: C10_24  and  O4_25
ROOT
HETATM    1  C7  UNL     1      18.913  -4.498  89.940  1.00  0.00    -0.078 C
HETATM    2  C8  UNL     1      18.683  -4.437  91.121  1.00  0.00     0.013 C
HETATM    3  C9  UNL     1      18.403  -4.386  92.509  1.00  0.00     0.152 C
HETATM    4  N5  UNL     1      18.170  -4.365  93.653  1.00  0.00    -0.182 NA
ENDROOT
BRANCH   1   5
HETATM    5  C6  UNL     1      19.184  -4.532  88.534  1.00  0.00     0.162 C
HETATM    6  C5  UNL     1      17.893  -4.290  87.733  1.00  0.00     0.279 C
HETATM    7  C4  UNL     1      18.386  -3.918  86.358  1.00  0.00     0.166 C
HETATM    8  O3  UNL     1      19.492  -4.700  85.943  1.00  0.00    -0.241 OA
HETATM    9  N3  UNL     1      17.866  -2.995  85.640  1.00  0.00    -0.380 N
HETATM   10  N2  UNL     1      19.515  -5.901  86.531  1.00  0.00    -0.121 NA
HETATM   11  C3  UNL     1      20.523  -6.839  86.197  1.00  0.00     0.235 C
HETATM   12  C10 UNL     1      19.897  -5.664  87.965  1.00  0.00     0.198 C
HETATM   13  C12 UNL     1      20.556  -7.790  87.420  1.00  0.00     0.214 C
HETATM   14  C11 UNL     1      19.670  -7.033  88.394  1.00  0.00     0.074 C
HETATM   15  C13 UNL     1      21.905  -7.857  87.962  1.00  0.00     0.094 C
HETATM   16  C14 UNL     1      20.023  -9.084  87.101  1.00  0.00     0.094 C
HETATM   17  N6  UNL     1      18.982  -7.554  89.253  1.00  0.00    -0.400 N
ATOM     18  H62 UNL     1      18.387  -7.045  89.908  1.00  0.00     0.155 HD
ATOM     19  H61 UNL     1      18.822  -8.515  89.555  1.00  0.00     0.155 HD
HETATM   20  N7  UNL     1      22.990  -7.907  88.379  1.00  0.00    -0.195 NA
HETATM   21  N8  UNL     1      19.615 -10.131  86.845  1.00  0.00    -0.195 NA
ATOM     22  H32 UNL     1      18.199  -2.743  84.710  1.00  0.00     0.158 HD
ATOM     23  H31 UNL     1      17.069  -2.432  85.939  1.00  0.00     0.158 HD
BRANCH   6  24
HETATM   24  N4  UNL     1      17.153  -3.184  88.252  1.00  0.00    -0.066 N
ATOM     25  H43 UNL     1      17.495  -2.286  87.911  1.00  0.00     0.275 HD
ATOM     26  H42 UNL     1      16.210  -3.127  87.867  1.00  0.00     0.275 HD
ATOM     27  H41 UNL     1      17.161  -3.249  89.269  1.00  0.00     0.275 HD
ENDBRANCH   6  24
BRANCH  11  28
HETATM   28  N1  UNL     1      20.044  -7.644  85.074  1.00  0.00    -0.315 N
HETATM   29  C2  UNL     1      20.810  -7.805  83.908  1.00  0.00     0.361 C
HETATM   30  O2  UNL     1      21.926  -7.255  83.811  1.00  0.00    -0.238 OA
ATOM     31  H1  UNL     1      19.134  -8.100  85.139  1.00  0.00     0.166 HD
BRANCH  29  32
HETATM   32  O1  UNL     1      20.322  -8.576  82.870  1.00  0.00    -0.309 OA
HETATM   33  C1  UNL     1      20.318  -8.114  81.523  1.00  0.00     0.215 C
ENDBRANCH  29  32
ENDBRANCH  11  28
BRANCH  12  34
HETATM   34  O4  UNL     1      21.290  -5.387  87.840  1.00  0.00    -0.367 OA
ATOM     35  H4  UNL     1      21.636  -5.823  88.610  1.00  0.00     0.212 HD
ENDBRANCH  12  34
ENDBRANCH   1   5
TORSDOF 5
ENDMDL