MODEL 5
REMARK VINA RESULT: -8.781775960      3.213      8.035
REMARK  6 active torsions:
REMARK  status: ('A' for Active; 'I' for Inactive)
REMARK    1  A    between atoms: N1_1  and  C1_4
REMARK    2  A    between atoms: N6_15  and  C4_16
REMARK    3  A    between atoms: C4_16  and  O2_17
REMARK    4  A    between atoms: C4_16  and  N7_19
REMARK    5  A    between atoms: N7_19  and  N8_21
REMARK    6  A    between atoms: C9_27  and  N9_28
ROOT
HETATM    1  C1  UNL     1      15.242  -1.938  88.594  1.00  0.00     0.163 A
HETATM    2  N2  UNL     1      15.445  -1.587  87.311  1.00  0.00    -0.268 N
ATOM      3  H2  UNL     1      14.889  -0.903  86.799  1.00  0.00     0.190 HD
HETATM    4  N3  UNL     1      16.480  -2.266  86.801  1.00  0.00    -0.231 N
ATOM      5  H3  UNL     1      16.844  -2.187  85.852  1.00  0.00     0.209 HD
HETATM    6  N4  UNL     1      16.945  -3.054  87.750  1.00  0.00    -0.201 N
HETATM    7  C2  UNL     1      17.968  -3.928  87.697  1.00  0.00     0.167 A
HETATM    8  N5  UNL     1      18.726  -4.177  86.631  1.00  0.00    -0.290 N
ATOM      9  H5  UNL     1      18.545  -3.658  85.773  1.00  0.00     0.172 HD
HETATM   10  C3  UNL     1      19.741  -5.104  86.638  1.00  0.00     0.337 A
HETATM   11  O1  UNL     1      20.389  -5.252  85.563  1.00  0.00    -0.246 OA
HETATM   12  N6  UNL     1      20.046  -5.829  87.716  1.00  0.00    -0.210 N
HETATM   13  C9  UNL     1      19.281  -5.596  88.847  1.00  0.00     0.145 A
HETATM   14  C10 UNL     1      18.263  -4.695  88.905  1.00  0.00     0.139 A
HETATM   15  N10 UNL     1      17.499  -4.476  89.982  1.00  0.00    -0.292 N
ATOM     16  H10 UNL     1      17.689  -5.000  90.837  1.00  0.00     0.187 HD
HETATM   17  N11 UNL     1      16.507  -3.604  89.974  1.00  0.00    -0.280 N
ATOM     18  H11 UNL     1      15.955  -3.476  90.822  1.00  0.00     0.188 HD
HETATM   19  C11 UNL     1      16.201  -2.881  88.889  1.00  0.00     0.190 A
ENDROOT
BRANCH  12  20
HETATM   20  C4  UNL     1      21.034  -6.834  87.780  1.00  0.00     0.249 C
BRANCH  20  21
HETATM   21  O2  UNL     1      22.113  -6.551  88.470  1.00  0.00    -0.331 OA
ATOM     22  H2  UNL     1      22.472  -7.251  89.002  1.00  0.00     0.221 HD
ENDBRANCH  20  21
BRANCH  20  23
HETATM   23  N7  UNL     1      20.997  -8.102  87.198  1.00  0.00    -0.259 N
ATOM     24  H7  UNL     1      20.629  -8.879  87.746  1.00  0.00     0.191 HD
BRANCH  23  25
HETATM   25  N8  UNL     1      21.439  -8.355  85.901  1.00  0.00    -0.279 N
HETATM   26  C5  UNL     1      22.784  -8.669  85.710  1.00  0.00     0.114 C
HETATM   27  C6  UNL     1      23.165  -8.948  84.270  1.00  0.00     0.214 C
HETATM   28  O3  UNL     1      22.159  -9.602  83.571  1.00  0.00    -0.381 OA
HETATM   29  C7  UNL     1      21.070  -8.734  83.519  1.00  0.00     0.214 C
HETATM   30  C8  UNL     1      20.499  -8.626  84.913  1.00  0.00     0.114 C
ENDBRANCH  23  25
ENDBRANCH  20  23
ENDBRANCH  12  20
BRANCH  13  31
HETATM   31  N9  UNL     1      19.537  -6.263  89.910  1.00  0.00    -0.383 N
ATOM     32  H92 UNL     1      19.377  -5.798  90.803  1.00  0.00     0.157 HD
ATOM     33  H91 UNL     1      19.886  -7.216  89.817  1.00  0.00     0.157 HD
ENDBRANCH  13  31
BRANCH   1  34
HETATM   34  N1  UNL     1      14.338  -1.508  89.412  1.00  0.00    -0.381 N
ATOM     35  H12 UNL     1      14.290  -0.565  89.797  1.00  0.00     0.157 HD
ATOM     36  H11 UNL     1      13.548  -2.016  89.808  1.00  0.00     0.157 HD
ENDBRANCH   1  34
TORSDOF 6
ENDMDL