MODEL 5
REMARK VINA RESULT: -6.844601319      2.129      3.085
REMARK  16 active torsions:
REMARK  status: ('A' for Active; 'I' for Inactive)
REMARK    1  A    between atoms: N1_1  and  C1_4
REMARK    2  A    between atoms: N4_13  and  C5_14
REMARK    3  A    between atoms: C5_14  and  O2_15
REMARK    4  A    between atoms: O2_15  and  C6_16
REMARK    5  A    between atoms: C6_16  and  C7_17
REMARK    6  A    between atoms: C7_17  and  O3_18
REMARK    7  A    between atoms: O3_18  and  C8_19
REMARK    8  A    between atoms: C8_19  and  C9_20
REMARK    9  A    between atoms: C9_20  and  S1_21
REMARK   10  A    between atoms: S1_21  and  C10_22
REMARK   11  A    between atoms: C10_22  and  C11_23
REMARK   12  A    between atoms: C11_23  and  C12_24
REMARK   13  A    between atoms: C12_24  and  C13_25
REMARK   14  A    between atoms: C14_28  and  N6_29
REMARK   15  A    between atoms: C19_38  and  N9_39
REMARK   16  A    between atoms: C20_42  and  C21_43
ROOT
HETATM    1  S1  UNL     1     -35.181  -0.197 -12.346  1.00  0.00    -0.167 SA
ENDROOT
BRANCH   1   2
HETATM    2  C9  UNL     1     -34.338   1.408 -12.205  1.00  0.00     0.100 C
BRANCH   2   3
HETATM    3  C8  UNL     1     -33.176   1.399 -13.194  1.00  0.00     0.178 C
BRANCH   3   4
HETATM    4  O3  UNL     1     -32.015   0.935 -12.851  1.00  0.00    -0.388 OA
BRANCH   4   5
HETATM    5  C7  UNL     1     -31.427  -0.199 -13.116  1.00  0.00     0.193 C
BRANCH   5   6
HETATM    6  C6  UNL     1     -31.864  -1.052 -14.272  1.00  0.00     0.196 C
BRANCH   6   7
HETATM    7  O2  UNL     1     -32.324  -2.291 -13.842  1.00  0.00    -0.369 OA
BRANCH   7   8
HETATM    8  C5  UNL     1     -32.546  -3.143 -14.871  1.00  0.00     0.301 C
BRANCH   8   9
HETATM    9  N4  UNL     1     -31.508  -4.193 -14.898  1.00  0.00    -0.305 N
HETATM   10  C4  UNL     1     -31.299  -5.065 -15.896  1.00  0.00     0.187 A
HETATM   11  N3  UNL     1     -30.274  -5.878 -15.578  1.00  0.00    -0.345 N
HETATM   12  C3  UNL     1     -29.801  -5.537 -14.360  1.00  0.00     0.147 A
ATOM     13  H3  UNL     1     -29.913  -6.631 -16.164  1.00  0.00     0.167 HD
HETATM   14  C2  UNL     1     -28.781  -6.036 -13.581  1.00  0.00     0.290 A
HETATM   15  C22 UNL     1     -30.601  -4.468 -13.953  1.00  0.00     0.158 A
HETATM   16  N2  UNL     1     -28.561  -5.459 -12.389  1.00  0.00    -0.154 N
HETATM   17  O1  UNL     1     -28.062  -6.992 -13.940  1.00  0.00    -0.265 OA
HETATM   18  C1  UNL     1     -29.337  -4.415 -11.983  1.00  0.00     0.680 A
ATOM     19  H2  UNL     1     -27.814  -5.803 -11.787  1.00  0.00     0.187 HD
HETATM   20  N10 UNL     1     -30.333  -3.929 -12.744  1.00  0.00    -0.174 N
ATOM     21  H10 UNL     1     -30.891  -3.145 -12.406  1.00  0.00     0.186 HD
BRANCH  18  22
HETATM   22  N1  UNL     1     -29.096  -3.886 -10.831  1.00  0.00    -0.234 N
ATOM     23  H12 UNL     1     -28.238  -3.352 -10.690  1.00  0.00     0.174 HD
ATOM     24  H11 UNL     1     -29.778  -4.021 -10.085  1.00  0.00     0.174 HD
ENDBRANCH  18  22
ENDBRANCH   8   9
ENDBRANCH   7   8
ENDBRANCH   6   7
ENDBRANCH   5   6
ENDBRANCH   4   5
ENDBRANCH   3   4
ENDBRANCH   2   3
ENDBRANCH   1   2
BRANCH   1  25
HETATM   25  C10 UNL     1     -36.929  -0.103 -12.116  1.00  0.00     0.074 C
BRANCH  25  26
HETATM   26  C11 UNL     1     -37.435  -0.418 -10.751  1.00  0.00     0.016 C
BRANCH  26  27
HETATM   27  C12 UNL     1     -36.357  -0.546  -9.747  1.00  0.00     0.059 C
BRANCH  27  28
HETATM   28  C13 UNL     1     -36.693   0.134  -8.450  1.00  0.00     0.047 A
HETATM   29  N5  UNL     1     -37.648   1.093  -8.372  1.00  0.00    -0.194 N
HETATM   30  C14 UNL     1     -37.978   1.679  -7.219  1.00  0.00     0.682 A
ATOM     31  H5  UNL     1     -38.131   1.377  -9.224  1.00  0.00     0.184 HD
HETATM   32  N8  UNL     1     -37.343   1.306  -6.099  1.00  0.00    -0.176 N
HETATM   33  C19 UNL     1     -36.392   0.376  -6.073  1.00  0.00     0.133 A
ATOM     34  H8  UNL     1     -37.604   1.759  -5.222  1.00  0.00     0.186 HD
HETATM   35  C20 UNL     1     -36.059  -0.230  -7.302  1.00  0.00     0.107 A
BRANCH  30  36
HETATM   36  N6  UNL     1     -38.977   2.680  -7.126  1.00  0.00    -0.214 N
HETATM   37  C15 UNL     1     -38.671   3.890  -6.355  1.00  0.00     0.160 C
HETATM   38  C16 UNL     1     -38.939   5.051  -7.314  1.00  0.00     0.134 C
HETATM   39  N7  UNL     1     -40.330   5.058  -7.655  1.00  0.00    -0.418 N
HETATM   40  C17 UNL     1     -41.036   3.853  -7.332  1.00  0.00     0.134 C
ATOM     41  H7  UNL     1     -40.784   5.859  -8.094  1.00  0.00     0.153 HD
HETATM   42  C18 UNL     1     -40.265   2.594  -7.735  1.00  0.00     0.160 C
ENDBRANCH  30  36
BRANCH  33  43
HETATM   43  N9  UNL     1     -35.802   0.039  -4.989  1.00  0.00    -0.384 N
ATOM     44  H92 UNL     1     -35.976   0.540  -4.117  1.00  0.00     0.157 HD
ATOM     45  H91 UNL     1     -35.140  -0.735  -4.952  1.00  0.00     0.157 HD
ENDBRANCH  33  43
BRANCH  35  46
HETATM   46  C21 UNL     1     -35.009  -1.212  -7.228  1.00  0.00     0.215 C
HETATM   47  O4  UNL     1     -35.265  -2.428  -7.147  1.00  0.00    -0.644 OA
HETATM   48  O5  UNL     1     -33.670  -0.802  -7.248  1.00  0.00    -0.644 OA
ENDBRANCH  35  46
ENDBRANCH  27  28
ENDBRANCH  26  27
ENDBRANCH  25  26
ENDBRANCH   1  25
TORSDOF 16
ENDMDL