MODEL 1
REMARK VINA RESULT: -7.247186977      0.000      0.000
REMARK  16 active torsions:
REMARK  status: ('A' for Active; 'I' for Inactive)
REMARK    1  A    between atoms: C2_3  and  C3_4
REMARK    2  A    between atoms: C3_4  and  O1_5
REMARK    3  A    between atoms: C3_4  and  C4_7
REMARK    4  A    between atoms: C4_7  and  N2_8
REMARK    5  A    between atoms: N2_8  and  C5_10
REMARK    6  A    between atoms: C5_10  and  C6_11
REMARK    7  A    between atoms: N4_16  and  C9_17
REMARK    8  A    between atoms: C9_17  and  N5_18
REMARK       I    between atoms: N5_18  and  C10_20
REMARK    9  A    between atoms: C10_20  and  C11_22
REMARK   10  A    between atoms: C11_22  and  N6_23
REMARK   11  A    between atoms: C11_22  and  C12_27
REMARK   12  A    between atoms: C12_27  and  C13_28
REMARK   13  A    between atoms: C16_31  and  O3_32
REMARK   14  A    between atoms: O3_32  and  C17_33
REMARK   15  A    between atoms: C17_33  and  C18_34
REMARK   16  A    between atoms: C26_49  and  O5_50
ROOT
HETATM    1  C9  UNL     1     -37.248  -2.180  -8.702  1.00  0.00     0.187 C
ENDROOT
BRANCH   1   2
HETATM    2  N4  UNL     1     -36.687  -1.825  -7.438  1.00  0.00    -0.331 N
HETATM    3  C6  UNL     1     -35.527  -0.948  -7.339  1.00  0.00     0.126 C
HETATM    4  C7  UNL     1     -34.877  -1.434  -6.070  1.00  0.00     0.147 C
HETATM    5  N3  UNL     1     -36.023  -1.941  -5.320  1.00  0.00    -0.384 N
HETATM    6  C8  UNL     1     -37.028  -2.155  -6.100  1.00  0.00     0.179 C
ATOM      7  H3  UNL     1     -36.029  -2.104  -4.314  1.00  0.00     0.160 HD
BRANCH   3   8
HETATM    8  C5  UNL     1     -35.991   0.461  -7.199  1.00  0.00     0.141 C
BRANCH   8   9
HETATM    9  N2  UNL     1     -35.563   1.301  -8.277  1.00  0.00    -0.416 N
ATOM     10  H2  UNL     1     -34.611   1.282  -8.644  1.00  0.00     0.153 HD
BRANCH   9  11
HETATM   11  C4  UNL     1     -36.574   2.172  -8.800  1.00  0.00     0.152 C
BRANCH  11  12
HETATM   12  C3  UNL     1     -37.966   1.751  -8.330  1.00  0.00     0.187 C
BRANCH  12  13
HETATM   13  C2  UNL     1     -38.731   2.959  -7.899  1.00  0.00     0.072 A
HETATM   14  C1  UNL     1     -40.077   2.937  -7.622  1.00  0.00     0.122 A
HETATM   15  N1  UNL     1     -40.799   1.730  -7.736  1.00  0.00    -0.096 NA
HETATM   16  C26 UNL     1     -40.742   4.075  -7.233  1.00  0.00     0.170 A
HETATM   17  N9  UNL     1     -40.060   5.220  -7.125  1.00  0.00    -0.287 N
HETATM   18  C25 UNL     1     -38.727   5.237  -7.399  1.00  0.00     0.326 A
ATOM     19  H9  UNL     1     -40.535   6.075  -6.839  1.00  0.00     0.172 HD
HETATM   20  N8  UNL     1     -38.078   4.127  -7.779  1.00  0.00    -0.308 N
HETATM   21  O4  UNL     1     -38.065   6.300  -7.304  1.00  0.00    -0.247 OA
ATOM     22  H8  UNL     1     -37.079   4.170  -7.979  1.00  0.00     0.170 HD
BRANCH  16  23
HETATM   23  O5  UNL     1     -42.086   4.034  -6.961  1.00  0.00    -0.345 OA
ATOM     24  H5  UNL     1     -42.594   3.259  -7.170  1.00  0.00     0.219 HD
ENDBRANCH  16  23
ENDBRANCH  12  13
BRANCH  12  25
HETATM   25  O1  UNL     1     -38.617   1.238  -9.438  1.00  0.00    -0.388 OA
ATOM     26  H1  UNL     1     -39.276   0.635  -9.116  1.00  0.00     0.210 HD
ENDBRANCH  12  25
ENDBRANCH  11  12
ENDBRANCH   9  11
ENDBRANCH   8   9
ENDBRANCH   3   8
ENDBRANCH   1   2
BRANCH   1  27
HETATM   27  N5  UNL     1     -37.079  -1.272  -9.775  1.00  0.00    -0.321 N
HETATM   28  C10 UNL     1     -36.238  -1.426 -10.881  1.00  0.00     0.253 C
HETATM   29  O2  UNL     1     -35.540  -2.438 -11.029  1.00  0.00    -0.271 OA
ATOM     30  H5  UNL     1     -37.630  -0.414  -9.738  1.00  0.00     0.169 HD
BRANCH  28  31
HETATM   31  C11 UNL     1     -36.169  -0.338 -11.914  1.00  0.00     0.279 C
BRANCH  31  32
HETATM   32  N6  UNL     1     -37.450   0.316 -12.094  1.00  0.00    -0.066 N
ATOM     33  H63 UNL     1     -37.617   0.544 -13.074  1.00  0.00     0.275 HD
ATOM     34  H62 UNL     1     -38.223  -0.333 -11.948  1.00  0.00     0.275 HD
ATOM     35  H61 UNL     1     -37.542   1.141 -11.501  1.00  0.00     0.275 HD
ENDBRANCH  31  32
BRANCH  31  36
HETATM   36  C12 UNL     1     -35.789  -0.990 -13.209  1.00  0.00     0.081 C
BRANCH  36  37
HETATM   37  C13 UNL     1     -34.373  -0.953 -13.537  1.00  0.00    -0.056 A
HETATM   38  C14 UNL     1     -33.535  -0.092 -12.872  1.00  0.00     0.010 A
HETATM   39  C15 UNL     1     -32.181  -0.011 -13.107  1.00  0.00     0.037 A
HETATM   40  C16 UNL     1     -31.595  -0.844 -14.074  1.00  0.00     0.069 A
HETATM   41  C23 UNL     1     -32.426  -1.710 -14.748  1.00  0.00     0.037 A
HETATM   42  C24 UNL     1     -33.792  -1.774 -14.494  1.00  0.00     0.010 A
BRANCH  40  43
HETATM   43  O3  UNL     1     -30.247  -0.743 -14.283  1.00  0.00    -0.347 OA
BRANCH  43  44
HETATM   44  C17 UNL     1     -29.351  -1.773 -14.550  1.00  0.00     0.214 C
BRANCH  44  45
HETATM   45  C18 UNL     1     -29.286  -2.766 -13.454  1.00  0.00    -0.032 A
HETATM   46  C19 UNL     1     -29.471  -4.106 -13.704  1.00  0.00     0.026 A
HETATM   47  C20 UNL     1     -29.413  -5.051 -12.696  1.00  0.00     0.088 A
HETATM   48  N7  UNL     1     -29.170  -4.642 -11.446  1.00  0.00    -0.375 N
HETATM   49  C21 UNL     1     -28.984  -3.342 -11.171  1.00  0.00     0.088 A
ATOM     50  H7  UNL     1     -29.125  -5.328 -10.692  1.00  0.00     0.164 HD
HETATM   51  C22 UNL     1     -29.036  -2.372 -12.160  1.00  0.00     0.026 A
ENDBRANCH  44  45
ENDBRANCH  43  44
ENDBRANCH  40  43
ENDBRANCH  36  37
ENDBRANCH  31  36
ENDBRANCH  28  31
ENDBRANCH   1  27
TORSDOF 16
ENDMDL