MODEL 1
REMARK VINA RESULT: -7.445842105      0.000      0.000
REMARK  14 active torsions:
REMARK  status: ('A' for Active; 'I' for Inactive)
REMARK    1  A    between atoms: C2_2  and  C3_3
REMARK    2  A    between atoms: C3_3  and  N1_4
REMARK    3  A    between atoms: C3_3  and  C13_19
REMARK       I    between atoms: N1_4  and  C4_6
REMARK    4  A    between atoms: C4_6  and  C5_8
REMARK    5  A    between atoms: C5_8  and  C6_9
REMARK       I    between atoms: C13_19  and  N3_21
REMARK    6  A    between atoms: N3_21  and  C14_23
REMARK    7  A    between atoms: C14_23  and  C16_26
REMARK    8  A    between atoms: C16_26  and  N5_27
REMARK    9  A    between atoms: C16_26  and  C23_45
REMARK   10  A    between atoms: N5_27  and  C17_29
REMARK   11  A    between atoms: C17_29  and  C18_30
REMARK   12  A    between atoms: C17_29  and  C22_38
REMARK   13  A    between atoms: C18_30  and  C19_31
REMARK       I    between atoms: C22_38  and  N8_40
REMARK   14  A    between atoms: N8_40  and  N9_42
ROOT
HETATM    1  C14 UNL     1     -36.971   3.231  -6.045  1.00  0.00     0.222 C
HETATM    2  C15 UNL     1     -37.438   1.870  -5.693  1.00  0.00     0.087 C
HETATM    3  N4  UNL     1     -37.781   0.804  -5.415  1.00  0.00    -0.195 NA
ENDROOT
BRANCH   1   4
HETATM    4  N3  UNL     1     -36.576   3.215  -7.427  1.00  0.00    -0.340 N
HETATM    5  C13 UNL     1     -35.449   3.907  -7.935  1.00  0.00     0.241 C
HETATM    6  O3  UNL     1     -34.700   4.591  -7.209  1.00  0.00    -0.271 OA
ATOM      7  H3  UNL     1     -37.140   2.672  -8.082  1.00  0.00     0.164 HD
BRANCH   5   8
HETATM    8  C3  UNL     1     -35.112   3.829  -9.401  1.00  0.00     0.176 C
BRANCH   8   9
HETATM    9  C2  UNL     1     -33.783   4.428  -9.710  1.00  0.00     0.030 C
HETATM   10  C1  UNL     1     -33.671   4.699 -11.174  1.00  0.00     0.007 C
ENDBRANCH   8   9
BRANCH   8  11
HETATM   11  N1  UNL     1     -35.133   2.390  -9.691  1.00  0.00    -0.347 N
HETATM   12  C4  UNL     1     -36.237   1.861 -10.385  1.00  0.00     0.225 C
HETATM   13  O1  UNL     1     -37.197   2.614 -10.743  1.00  0.00    -0.273 OA
ATOM     14  H1  UNL     1     -34.365   1.787  -9.396  1.00  0.00     0.163 HD
BRANCH  12  15
HETATM   15  C5  UNL     1     -36.268   0.397 -10.693  1.00  0.00     0.187 C
BRANCH  15  16
HETATM   16  C6  UNL     1     -36.108  -0.284  -9.354  1.00  0.00     0.133 A
HETATM   17  N2  UNL     1     -37.075  -0.937  -8.686  1.00  0.00    -0.338 N
HETATM   18  C7  UNL     1     -36.602  -1.427  -7.531  1.00  0.00     0.068 A
ATOM     19  H2  UNL     1     -38.036  -1.045  -9.013  1.00  0.00     0.168 HD
HETATM   20  C8  UNL     1     -37.125  -2.156  -6.485  1.00  0.00     0.032 A
HETATM   21  C12 UNL     1     -35.264  -1.043  -7.504  1.00  0.00     0.104 A
HETATM   22  C9  UNL     1     -36.360  -2.524  -5.394  1.00  0.00     0.002 A
HETATM   23  C10 UNL     1     -35.039  -2.128  -5.394  1.00  0.00     0.003 A
HETATM   24  C11 UNL     1     -34.495  -1.409  -6.411  1.00  0.00     0.040 A
HETATM   25  O2  UNL     1     -35.032  -0.369  -8.608  1.00  0.00    -0.295 OA
ENDBRANCH  15  16
ENDBRANCH  12  15
ENDBRANCH   8  11
ENDBRANCH   5   8
ENDBRANCH   1   4
BRANCH   1  26
HETATM   26  C16 UNL     1     -38.181   4.147  -5.833  1.00  0.00     0.185 C
BRANCH  26  27
HETATM   27  N5  UNL     1     -38.883   4.330  -7.055  1.00  0.00    -0.396 N
ATOM     28  H5  UNL     1     -38.438   4.801  -7.842  1.00  0.00     0.155 HD
BRANCH  27  29
HETATM   29  C17 UNL     1     -40.215   3.846  -7.164  1.00  0.00     0.177 C
BRANCH  29  30
HETATM   30  C18 UNL     1     -41.296   4.813  -7.466  1.00  0.00     0.093 C
BRANCH  30  31
HETATM   31  C19 UNL     1     -41.953   5.361  -6.248  1.00  0.00     0.028 A
HETATM   32  C20 UNL     1     -43.147   6.032  -6.264  1.00  0.00     0.114 A
HETATM   33  N6  UNL     1     -43.481   6.394  -5.010  1.00  0.00    -0.360 N
HETATM   34  C21 UNL     1     -42.506   5.955  -4.224  1.00  0.00     0.180 A
ATOM     35  H6  UNL     1     -44.317   6.903  -4.722  1.00  0.00     0.166 HD
HETATM   36  N7  UNL     1     -41.568   5.326  -4.955  1.00  0.00    -0.354 N
ATOM     37  H7  UNL     1     -40.715   4.898  -4.595  1.00  0.00     0.166 HD
ENDBRANCH  30  31
ENDBRANCH  29  30
BRANCH  29  38
HETATM   38  C22 UNL     1     -40.292   2.616  -8.014  1.00  0.00     0.258 C
HETATM   39  O4  UNL     1     -40.837   1.599  -7.536  1.00  0.00    -0.269 OA
HETATM   40  N8  UNL     1     -39.767   2.599  -9.318  1.00  0.00    -0.275 N
ATOM     41  H8  UNL     1     -39.324   3.428  -9.714  1.00  0.00     0.189 HD
BRANCH  40  42
HETATM   42  N9  UNL     1     -39.868   1.394 -10.070  1.00  0.00    -0.343 N
ATOM     43  H92 UNL     1     -39.950   0.498  -9.589  1.00  0.00     0.176 HD
ATOM     44  H91 UNL     1     -39.857   1.457 -11.088  1.00  0.00     0.176 HD
ENDBRANCH  40  42
ENDBRANCH  29  38
ENDBRANCH  27  29
ENDBRANCH  26  27
BRANCH  26  45
HETATM   45  C23 UNL     1     -37.774   5.339  -5.074  1.00  0.00     0.139 A
HETATM   46  N10 UNL     1     -38.341   5.801  -3.910  1.00  0.00    -0.270 N
HETATM   47  N11 UNL     1     -37.657   6.856  -3.532  1.00  0.00    -0.227 N
ATOM     48  H10 UNL     1     -39.145   5.398  -3.429  1.00  0.00     0.190 HD
HETATM   49  N12 UNL     1     -36.686   7.097  -4.386  1.00  0.00    -0.227 N
ATOM     50  H11 UNL     1     -37.851   7.409  -2.697  1.00  0.00     0.210 HD
HETATM   51  N13 UNL     1     -36.753   6.179  -5.321  1.00  0.00    -0.270 N
ATOM     52  H12 UNL     1     -36.007   7.856  -4.332  1.00  0.00     0.210 HD
ATOM     53  H13 UNL     1     -36.122   6.113  -6.120  1.00  0.00     0.190 HD
ENDBRANCH  26  45
ENDBRANCH   1  26
TORSDOF 14
ENDMDL