MODEL 3
REMARK VINA RESULT: -7.635263963      1.677      2.114
REMARK  18 active torsions:
REMARK  status: ('A' for Active; 'I' for Inactive)
REMARK    1  A    between atoms: C1_4  and  C2_6
REMARK    2  A    between atoms: C2_6  and  C3_7
REMARK    3  A    between atoms: C3_7  and  N3_8
REMARK    4  A    between atoms: N3_8  and  C4_9
REMARK    5  A    between atoms: N3_8  and  C6_15
REMARK    6  A    between atoms: C4_9  and  C5_10
REMARK    7  A    between atoms: C5_10  and  N4_11
REMARK    8  A    between atoms: C9_18  and  N5_19
REMARK    9  A    between atoms: N5_19  and  C10_21
REMARK   10  A    between atoms: C10_21  and  C11_22
REMARK   11  A    between atoms: C11_22  and  S1_23
REMARK   12  A    between atoms: S1_23  and  C12_24
REMARK   13  A    between atoms: C13_27  and  N7_28
REMARK   14  A    between atoms: N10_39  and  C16_41
REMARK   15  A    between atoms: C16_41  and  C17_42
REMARK   16  A    between atoms: C17_42  and  O3_43
REMARK   17  A    between atoms: O3_43  and  N11_44
REMARK   18  A    between atoms: C18_47  and  N12_48
ROOT
HETATM    1  C10 UNL     1     -36.954  -0.706  -8.840  1.00  0.00     0.087 C
HETATM    2  N10 UNL     1     -37.016  -0.894  -7.582  1.00  0.00    -0.377 N
ATOM      3  H10 UNL     1     -37.394  -0.140  -7.008  1.00  0.00     0.160 HD
ENDROOT
BRANCH   1   4
HETATM    4  N5  UNL     1     -37.434   0.558  -9.382  1.00  0.00    -0.344 N
ATOM      5  H5  UNL     1     -37.786   0.592 -10.338  1.00  0.00     0.167 HD
BRANCH   4   6
HETATM    6  C9  UNL     1     -37.420   1.722  -8.619  1.00  0.00     0.067 A
HETATM    7  C8  UNL     1     -36.188   2.265  -8.212  1.00  0.00     0.034 A
HETATM    8  C7  UNL     1     -36.174   3.418  -7.472  1.00  0.00     0.031 A
HETATM    9  C6  UNL     1     -37.308   4.098  -7.093  1.00  0.00     0.032 A
HETATM   10  C19 UNL     1     -38.509   3.528  -7.517  1.00  0.00     0.067 A
HETATM   11  C18 UNL     1     -38.581   2.360  -8.267  1.00  0.00     0.131 A
BRANCH   9  12
HETATM   12  N3  UNL     1     -37.304   5.278  -6.293  1.00  0.00    -0.379 N
BRANCH  12  13
HETATM   13  C3  UNL     1     -38.452   6.095  -6.210  1.00  0.00     0.130 C
BRANCH  13  14
HETATM   14  C2  UNL     1     -39.395   5.894  -5.096  1.00  0.00     0.092 C
BRANCH  14  15
HETATM   15  C1  UNL     1     -38.854   5.741  -3.744  1.00  0.00     0.088 C
HETATM   16  N1  UNL     1     -38.426   6.727  -3.034  1.00  0.00    -0.391 N
ATOM     17  H12 UNL     1     -38.050   6.621  -2.092  1.00  0.00     0.157 HD
ATOM     18  H11 UNL     1     -38.441   7.672  -3.417  1.00  0.00     0.157 HD
HETATM   19  N2  UNL     1     -38.833   4.409  -3.205  1.00  0.00    -0.088 NA
ENDBRANCH  14  15
ENDBRANCH  13  14
ENDBRANCH  12  13
BRANCH  12  20
HETATM   20  C4  UNL     1     -36.076   5.508  -5.537  1.00  0.00     0.150 C
BRANCH  20  21
HETATM   21  C5  UNL     1     -35.663   6.943  -5.483  1.00  0.00     0.249 C
BRANCH  21  22
HETATM   22  N4  UNL     1     -34.803   7.307  -4.406  1.00  0.00    -0.078 N
ATOM     23  H43 UNL     1     -34.079   7.943  -4.741  1.00  0.00     0.274 HD
ATOM     24  H42 UNL     1     -35.300   7.919  -3.759  1.00  0.00     0.274 HD
ATOM     25  H41 UNL     1     -34.376   6.535  -3.893  1.00  0.00     0.274 HD
ENDBRANCH  21  22
ENDBRANCH  20  21
ENDBRANCH  12  20
ENDBRANCH   9  12
BRANCH  11  26
HETATM   26  N12 UNL     1     -39.889   1.930  -8.614  1.00  0.00    -0.113 N
HETATM   27  O6  UNL     1     -40.177   1.618  -9.764  1.00  0.00    -0.532 OA
HETATM   28  O7  UNL     1     -40.820   1.847  -7.579  1.00  0.00    -0.532 OA
ENDBRANCH  11  26
ENDBRANCH   4   6
ENDBRANCH   1   4
BRANCH   1  29
HETATM   29  C11 UNL     1     -36.372  -1.655  -9.782  1.00  0.00     0.158 C
BRANCH  29  30
HETATM   30  S1  UNL     1     -36.514  -1.041 -11.478  1.00  0.00    -0.086 SA
BRANCH  30  31
HETATM   31  C12 UNL     1     -35.380  -2.030 -12.478  1.00  0.00     0.162 C
HETATM   32  N6  UNL     1     -35.799  -3.214 -12.942  1.00  0.00    -0.170 N
HETATM   33  C13 UNL     1     -35.049  -4.302 -13.315  1.00  0.00     0.680 C
ATOM     34  H6  UNL     1     -36.809  -3.322 -13.031  1.00  0.00     0.186 HD
HETATM   35  N8  UNL     1     -33.698  -4.436 -13.304  1.00  0.00    -0.152 N
HETATM   36  C14 UNL     1     -32.761  -3.478 -13.187  1.00  0.00     0.328 C
ATOM     37  H8  UNL     1     -33.347  -5.390 -13.396  1.00  0.00     0.188 HD
HETATM   38  O1  UNL     1     -31.583  -3.882 -13.349  1.00  0.00    -0.261 OA
HETATM   39  C15 UNL     1     -32.991  -2.148 -12.913  1.00  0.00     0.316 C
HETATM   40  O2  UNL     1     -31.956  -1.446 -12.872  1.00  0.00    -0.262 OA
HETATM   41  N9  UNL     1     -34.156  -1.485 -12.682  1.00  0.00    -0.299 N
ATOM     42  H9  UNL     1     -34.103  -0.467 -12.660  1.00  0.00     0.171 HD
BRANCH  33  43
HETATM   43  N7  UNL     1     -35.670  -5.335 -13.726  1.00  0.00    -0.234 N
ATOM     44  H72 UNL     1     -36.683  -5.227 -13.752  1.00  0.00     0.174 HD
ATOM     45  H71 UNL     1     -35.113  -6.150 -13.985  1.00  0.00     0.174 HD
ENDBRANCH  33  43
ENDBRANCH  30  31
ENDBRANCH  29  30
ENDBRANCH   1  29
BRANCH   2  46
HETATM   46  C16 UNL     1     -36.582  -2.121  -6.900  1.00  0.00     0.150 C
BRANCH  46  47
HETATM   47  C17 UNL     1     -36.248  -1.818  -5.450  1.00  0.00     0.227 C
BRANCH  47  48
HETATM   48  O3  UNL     1     -35.346  -2.822  -5.040  1.00  0.00    -0.220 OA
BRANCH  48  49
HETATM   49  N11 UNL     1     -34.042  -2.912  -5.419  1.00  0.00     0.004 N
HETATM   50  O4  UNL     1     -33.224  -2.032  -5.114  1.00  0.00    -0.511 OA
HETATM   51  O5  UNL     1     -33.626  -3.989  -6.152  1.00  0.00    -0.511 OA
ENDBRANCH  48  49
ENDBRANCH  47  48
ENDBRANCH  46  47
ENDBRANCH   2  46
TORSDOF 18
ENDMDL