MODEL 1
REMARK VINA RESULT: -7.558964238      0.000      0.000
REMARK  15 active torsions:
REMARK  status: ('A' for Active; 'I' for Inactive)
REMARK       I    between atoms: C2_2  and  N1_4
REMARK    1  A    between atoms: N1_4  and  C3_6
REMARK    2  A    between atoms: C3_6  and  N2_7
REMARK    3  A    between atoms: C3_6  and  C4_11
REMARK       I    between atoms: C4_11  and  N3_13
REMARK    4  A    between atoms: N3_13  and  C5_15
REMARK    5  A    between atoms: C5_15  and  C6_16
REMARK    6  A    between atoms: C5_15  and  C19_45
REMARK       I    between atoms: C6_16  and  N4_18
REMARK    7  A    between atoms: N4_18  and  C7_20
REMARK    8  A    between atoms: C7_20  and  C8_21
REMARK    9  A    between atoms: C7_20  and  C9_25
REMARK       I    between atoms: C9_25  and  N6_27
REMARK       I    between atoms: N6_27  and  C10_29
REMARK   10  A    between atoms: C10_29  and  C11_31
REMARK   11  A    between atoms: C11_31  and  O6_32
REMARK   12  A    between atoms: C11_31  and  O7_34
REMARK   13  A    between atoms: O7_34  and  C12_35
REMARK   14  A    between atoms: C12_35  and  C13_36
REMARK   15  A    between atoms: C16_39  and  N7_40
ROOT
HETATM    1  C6  UNL     1     -36.596  -1.728  -9.697  1.00  0.00     0.247 C
HETATM    2  O3  UNL     1     -37.757  -2.169  -9.575  1.00  0.00    -0.271 OA
HETATM    3  N4  UNL     1     -35.871  -1.380  -8.528  1.00  0.00    -0.341 N
ATOM      4  H4  UNL     1     -34.919  -1.020  -8.592  1.00  0.00     0.163 HD
ENDROOT
BRANCH   3   5
HETATM    5  C7  UNL     1     -36.515  -1.546  -7.243  1.00  0.00     0.215 C
BRANCH   5   6
HETATM    6  C8  UNL     1     -35.564  -2.112  -6.260  1.00  0.00     0.087 C
HETATM    7  N5  UNL     1     -35.626  -1.825  -5.016  1.00  0.00    -0.409 N
ATOM      8  H52 UNL     1     -36.358  -1.186  -4.708  1.00  0.00     0.155 HD
ATOM      9  H51 UNL     1     -34.971  -2.215  -4.338  1.00  0.00     0.155 HD
ENDBRANCH   5   6
BRANCH   5  10
HETATM   10  C9  UNL     1     -37.045  -0.219  -6.815  1.00  0.00     0.252 C
HETATM   11  O4  UNL     1     -38.165  -0.159  -6.277  1.00  0.00    -0.270 OA
HETATM   12  N6  UNL     1     -36.284   0.954  -7.017  1.00  0.00    -0.291 N
HETATM   13  C10 UNL     1     -36.593   2.270  -6.664  1.00  0.00     0.279 C
ATOM     14  H6  UNL     1     -35.387   0.822  -7.484  1.00  0.00     0.172 HD
HETATM   15  O5  UNL     1     -35.662   3.133  -6.874  1.00  0.00    -0.268 OA
BRANCH  13  16
HETATM   16  C11 UNL     1     -37.836   2.726  -6.097  1.00  0.00     0.351 C
BRANCH  16  17
HETATM   17  O6  UNL     1     -37.750   2.358  -4.678  1.00  0.00    -0.363 OA
ATOM     18  H6  UNL     1     -38.609   2.565  -4.327  1.00  0.00     0.213 HD
ENDBRANCH  16  17
BRANCH  16  19
HETATM   19  O7  UNL     1     -37.916   4.121  -5.966  1.00  0.00    -0.348 OA
BRANCH  19  20
HETATM   20  C12 UNL     1     -39.220   4.527  -6.132  1.00  0.00     0.210 C
BRANCH  20  21
HETATM   21  C13 UNL     1     -39.667   5.351  -4.969  1.00  0.00    -0.034 A
HETATM   22  C14 UNL     1     -38.711   5.886  -4.144  1.00  0.00     0.012 A
HETATM   23  C15 UNL     1     -39.077   6.658  -3.050  1.00  0.00     0.037 A
HETATM   24  C16 UNL     1     -40.408   6.869  -2.822  1.00  0.00     0.102 A
HETATM   25  C17 UNL     1     -41.380   6.330  -3.653  1.00  0.00     0.037 A
HETATM   26  C18 UNL     1     -40.994   5.564  -4.737  1.00  0.00     0.012 A
BRANCH  24  27
HETATM   27  N7  UNL     1     -40.826   7.647  -1.721  1.00  0.00    -0.116 N
HETATM   28  O8  UNL     1     -40.105   7.651  -0.693  1.00  0.00    -0.532 OA
HETATM   29  O9  UNL     1     -41.985   8.365  -1.804  1.00  0.00    -0.532 OA
ENDBRANCH  24  27
ENDBRANCH  20  21
ENDBRANCH  19  20
ENDBRANCH  16  19
ENDBRANCH  13  16
ENDBRANCH   5  10
ENDBRANCH   3   5
BRANCH   1  30
HETATM   30  C5  UNL     1     -35.922  -1.547 -11.009  1.00  0.00     0.227 C
BRANCH  30  31
HETATM   31  N3  UNL     1     -35.933  -2.735 -11.803  1.00  0.00    -0.339 N
HETATM   32  C4  UNL     1     -34.809  -3.177 -12.576  1.00  0.00     0.269 C
HETATM   33  O2  UNL     1     -33.768  -2.483 -12.549  1.00  0.00    -0.269 OA
ATOM     34  H3  UNL     1     -36.784  -3.297 -11.821  1.00  0.00     0.163 HD
BRANCH  32  35
HETATM   35  C3  UNL     1     -34.839  -4.401 -13.388  1.00  0.00     0.376 C
BRANCH  35  36
HETATM   36  N1  UNL     1     -36.137  -4.539 -13.998  1.00  0.00    -0.326 N
HETATM   37  C2  UNL     1     -36.390  -5.698 -14.793  1.00  0.00     0.215 C
HETATM   38  C1  UNL     1     -37.731  -5.825 -15.414  1.00  0.00     0.117 C
HETATM   39  O1  UNL     1     -35.530  -6.576 -14.968  1.00  0.00    -0.274 OA
ATOM     40  H1  UNL     1     -36.857  -3.828 -13.865  1.00  0.00     0.165 HD
ENDBRANCH  35  36
BRANCH  35  41
HETATM   41  N2  UNL     1     -33.839  -4.294 -14.467  1.00  0.00    -0.049 N
ATOM     42  H23 UNL     1     -33.223  -5.106 -14.515  1.00  0.00     0.277 HD
ATOM     43  H22 UNL     1     -34.250  -4.380 -15.396  1.00  0.00     0.277 HD
ATOM     44  H21 UNL     1     -33.331  -3.420 -14.339  1.00  0.00     0.277 HD
ENDBRANCH  35  41
ENDBRANCH  32  35
ENDBRANCH  30  31
BRANCH  30  45
HETATM   45  C19 UNL     1     -36.612  -0.410 -11.754  1.00  0.00     0.048 A
HETATM   46  C20 UNL     1     -35.850   0.627 -12.234  1.00  0.00     0.078 A
HETATM   47  S1  UNL     1     -37.040   1.616 -12.960  1.00  0.00    -0.095 SA
HETATM   48  C21 UNL     1     -38.414   0.662 -12.613  1.00  0.00     0.138 A
HETATM   49  N8  UNL     1     -37.886  -0.363 -11.959  1.00  0.00    -0.361 N
ATOM     50  H8  UNL     1     -38.485  -1.114 -11.618  1.00  0.00     0.165 HD
ENDBRANCH  30  45
ENDBRANCH   1  30
TORSDOF 15
ENDMDL