MODEL 1
REMARK VINA RESULT: -6.710829859      0.000      0.000
REMARK  17 active torsions:
REMARK  status: ('A' for Active; 'I' for Inactive)
REMARK    1  A    between atoms: N1_1  and  C1_4
REMARK    2  A    between atoms: N4_12  and  C5_13
REMARK    3  A    between atoms: C5_13  and  C6_14
REMARK    4  A    between atoms: C6_14  and  S1_15
REMARK    5  A    between atoms: S1_15  and  C7_18
REMARK    6  A    between atoms: C7_18  and  C8_19
REMARK    7  A    between atoms: C8_19  and  C9_20
REMARK    8  A    between atoms: C9_20  and  C10_21
REMARK    9  A    between atoms: C10_21  and  C11_22
REMARK   10  A    between atoms: C11_22  and  N5_23
REMARK   11  A    between atoms: C13_25  and  C14_26
REMARK   12  A    between atoms: C14_26  and  C15_27
REMARK   13  A    between atoms: C15_27  and  N6_28
REMARK       I    between atoms: N6_28  and  C16_30
REMARK   14  A    between atoms: C16_30  and  C17_32
REMARK   15  A    between atoms: C17_32  and  N7_33
REMARK   16  A    between atoms: C17_32  and  C18_37
REMARK   17  A    between atoms: C18_37  and  N8_38
ROOT
HETATM    1  C11 UNL     1     -30.481  -1.478 -12.072  1.00  0.00     0.133 C
ENDROOT
BRANCH   1   2
HETATM    2  C10 UNL     1     -31.088  -0.624 -13.137  1.00  0.00     0.020 C
BRANCH   2   3
HETATM    3  C9  UNL     1     -32.539  -0.329 -12.975  1.00  0.00     0.002 C
BRANCH   3   4
HETATM    4  C8  UNL     1     -33.429  -1.300 -13.700  1.00  0.00     0.015 C
BRANCH   4   5
HETATM    5  C7  UNL     1     -34.858  -0.845 -13.602  1.00  0.00     0.140 C
BRANCH   5   6
HETATM    6  S1  UNL     1     -35.833  -2.089 -12.709  1.00  0.00     0.146 S
HETATM    7  O1  UNL     1     -34.810  -3.064 -12.205  1.00  0.00    -0.228 OA
HETATM    8  O2  UNL     1     -36.668  -2.758 -13.743  1.00  0.00    -0.228 OA
BRANCH   6   9
HETATM    9  C6  UNL     1     -36.709  -1.251 -11.463  1.00  0.00     0.160 C
BRANCH   9  10
HETATM   10  C5  UNL     1     -36.355  -1.517 -10.056  1.00  0.00     0.146 C
BRANCH  10  11
HETATM   11  N4  UNL     1     -36.774  -0.591  -9.066  1.00  0.00    -0.326 N
HETATM   12  C2  UNL     1     -36.493  -0.610  -7.752  1.00  0.00     0.154 A
HETATM   13  N2  UNL     1     -35.786  -1.482  -6.977  1.00  0.00    -0.174 N
HETATM   14  C3  UNL     1     -37.058   0.472  -7.110  1.00  0.00     0.120 A
HETATM   15  C1  UNL     1     -35.664  -1.271  -5.663  1.00  0.00     0.678 A
ATOM     16  H2  UNL     1     -35.348  -2.300  -7.402  1.00  0.00     0.186 HD
HETATM   17  N11 UNL     1     -36.230  -0.196  -5.048  1.00  0.00    -0.177 N
HETATM   18  C21 UNL     1     -36.941   0.704  -5.757  1.00  0.00     0.162 A
ATOM     19  H11 UNL     1     -36.115  -0.070  -4.042  1.00  0.00     0.185 HD
HETATM   20  N10 UNL     1     -37.516   1.809  -5.093  1.00  0.00    -0.080 NA
HETATM   21  N3  UNL     1     -37.692   1.146  -8.084  1.00  0.00    -0.346 N
HETATM   22  C4  UNL     1     -37.530   0.523  -9.256  1.00  0.00     0.185 A
ATOM     23  H3  UNL     1     -38.220   2.008  -7.949  1.00  0.00     0.167 HD
BRANCH  15  24
HETATM   24  N1  UNL     1     -34.996  -2.099  -4.940  1.00  0.00    -0.234 N
ATOM     25  H12 UNL     1     -34.010  -1.900  -4.770  1.00  0.00     0.174 HD
ATOM     26  H11 UNL     1     -35.456  -2.925  -4.558  1.00  0.00     0.174 HD
ENDBRANCH  15  24
ENDBRANCH  10  11
ENDBRANCH   9  10
ENDBRANCH   6   9
ENDBRANCH   5   6
ENDBRANCH   4   5
ENDBRANCH   3   4
ENDBRANCH   2   3
ENDBRANCH   1   2
BRANCH   1  27
HETATM   27  N5  UNL     1     -29.963  -2.740 -12.507  1.00  0.00    -0.309 N
HETATM   28  C12 UNL     1     -30.428  -3.317 -13.635  1.00  0.00     0.106 A
HETATM   29  C13 UNL     1     -29.952  -4.553 -14.082  1.00  0.00    -0.003 A
HETATM   30  C19 UNL     1     -28.982  -5.196 -13.345  1.00  0.00     0.112 A
HETATM   31  S2  UNL     1     -28.376  -6.660 -13.810  1.00  0.00    -0.060 SA
HETATM   32  N9  UNL     1     -28.532  -4.595 -12.219  1.00  0.00    -0.299 N
HETATM   33  C20 UNL     1     -29.017  -3.386 -11.808  1.00  0.00     0.327 A
ATOM     34  H9  UNL     1     -27.813  -5.057 -11.663  1.00  0.00     0.171 HD
HETATM   35  O4  UNL     1     -28.509  -2.943 -10.747  1.00  0.00    -0.246 OA
BRANCH  29  36
HETATM   36  C14 UNL     1     -30.488  -5.148 -15.329  1.00  0.00     0.063 C
BRANCH  36  37
HETATM   37  C15 UNL     1     -31.772  -4.475 -15.751  1.00  0.00     0.127 C
BRANCH  37  38
HETATM   38  N6  UNL     1     -32.877  -5.359 -15.478  1.00  0.00    -0.359 N
HETATM   39  C16 UNL     1     -34.198  -4.880 -15.656  1.00  0.00     0.249 C
HETATM   40  O3  UNL     1     -34.396  -3.677 -16.049  1.00  0.00    -0.271 OA
ATOM     41  H6  UNL     1     -32.711  -6.314 -15.163  1.00  0.00     0.162 HD
BRANCH  39  42
HETATM   42  C17 UNL     1     -35.398  -5.727 -15.399  1.00  0.00     0.299 C
BRANCH  42  43
HETATM   43  N7  UNL     1     -35.810  -5.567 -14.010  1.00  0.00    -0.065 N
ATOM     44  H73 UNL     1     -36.685  -5.050 -13.923  1.00  0.00     0.275 HD
ATOM     45  H72 UNL     1     -36.120  -6.446 -13.594  1.00  0.00     0.275 HD
ATOM     46  H71 UNL     1     -35.051  -5.135 -13.483  1.00  0.00     0.275 HD
ENDBRANCH  42  43
BRANCH  42  47
HETATM   47  C18 UNL     1     -36.588  -5.225 -16.224  1.00  0.00     0.272 C
BRANCH  47  48
HETATM   48  N8  UNL     1     -36.363  -5.281 -17.637  1.00  0.00    -0.077 N
ATOM     49  H83 UNL     1     -37.087  -4.768 -18.140  1.00  0.00     0.274 HD
ATOM     50  H82 UNL     1     -35.550  -4.722 -17.897  1.00  0.00     0.274 HD
ATOM     51  H81 UNL     1     -36.278  -6.232 -17.996  1.00  0.00     0.274 HD
ENDBRANCH  47  48
ENDBRANCH  42  47
ENDBRANCH  39  42
ENDBRANCH  37  38
ENDBRANCH  36  37
ENDBRANCH  29  36
ENDBRANCH   1  27
TORSDOF 17
ENDMDL