MODEL 4
REMARK VINA RESULT: -7.133410598      2.201      3.007
REMARK  19 active torsions:
REMARK  status: ('A' for Active; 'I' for Inactive)
REMARK    1  A    between atoms: N2_6  and  N3_7
REMARK    2  A    between atoms: N3_7  and  C3_9
REMARK    3  A    between atoms: C3_9  and  C4_10
REMARK    4  A    between atoms: C4_10  and  O2_11
REMARK    5  A    between atoms: C4_10  and  C5_13
REMARK    6  A    between atoms: C5_13  and  O3_14
REMARK    7  A    between atoms: C5_13  and  C6_16
REMARK    8  A    between atoms: C6_16  and  C7_17
REMARK    9  A    between atoms: C6_16  and  O7_27
REMARK   10  A    between atoms: C7_17  and  C8_18
REMARK   11  A    between atoms: C8_18  and  O4_19
REMARK   12  A    between atoms: C8_18  and  C9_21
REMARK   13  A    between atoms: C9_21  and  O5_22
REMARK   14  A    between atoms: C9_21  and  C10_24
REMARK   15  A    between atoms: C10_24  and  O6_25
REMARK   16  A    between atoms: O7_27  and  C11_28
REMARK   17  A    between atoms: C11_28  and  N4_29
REMARK   18  A    between atoms: C14_35  and  C15_36
REMARK   19  A    between atoms: C18_39  and  C19_40
ROOT
HETATM    1  C3  UNL     1     -35.670   0.400 -10.351  1.00  0.00     0.142 C
ENDROOT
BRANCH   1   2
HETATM    2  N3  UNL     1     -35.624  -0.978 -10.600  1.00  0.00    -0.304 N
ATOM      3  H3  UNL     1     -35.372  -1.634  -9.861  1.00  0.00     0.186 HD
BRANCH   2   4
HETATM    4  N2  UNL     1     -35.935  -1.436 -11.894  1.00  0.00    -0.260 N
HETATM    5  C2  UNL     1     -37.370  -1.712 -11.964  1.00  0.00     0.207 C
HETATM    6  N1  UNL     1     -37.965  -2.309 -12.910  1.00  0.00    -0.303 N
HETATM    7  C1  UNL     1     -37.179  -2.757 -14.000  1.00  0.00     0.323 C
ATOM      8  H1  UNL     1     -38.973  -2.463 -12.888  1.00  0.00     0.171 HD
HETATM    9  O1  UNL     1     -37.702  -3.362 -14.984  1.00  0.00    -0.247 OA
HETATM   10  N8  UNL     1     -35.800  -2.537 -14.000  1.00  0.00    -0.316 N
HETATM   11  C14 UNL     1     -35.181  -1.579 -13.048  1.00  0.00     0.244 C
ATOM     12  H8  UNL     1     -35.210  -3.041 -14.661  1.00  0.00     0.166 HD
BRANCH  11  13
HETATM   13  C15 UNL     1     -33.749  -1.862 -13.032  1.00  0.00    -0.014 A
HETATM   14  C16 UNL     1     -32.882  -0.791 -12.955  1.00  0.00     0.012 A
HETATM   15  C17 UNL     1     -31.510  -0.926 -13.043  1.00  0.00     0.014 A
HETATM   16  C18 UNL     1     -30.938  -2.148 -13.217  1.00  0.00    -0.009 A
HETATM   17  C24 UNL     1     -31.776  -3.237 -13.294  1.00  0.00     0.014 A
HETATM   18  C25 UNL     1     -33.174  -3.084 -13.199  1.00  0.00     0.012 A
BRANCH  16  19
HETATM   19  C19 UNL     1     -29.472  -2.321 -13.352  1.00  0.00     0.042 A
HETATM   20  C20 UNL     1     -28.671  -2.762 -12.327  1.00  0.00     0.030 A
HETATM   21  C21 UNL     1     -27.307  -2.901 -12.507  1.00  0.00     0.004 A
HETATM   22  C22 UNL     1     -26.704  -2.605 -13.714  1.00  0.00     0.017 A
HETATM   23  C23 UNL     1     -27.545  -2.171 -14.713  1.00  0.00     0.088 A
HETATM   24  N7  UNL     1     -28.872  -2.037 -14.537  1.00  0.00    -0.365 N
ATOM     25  H7  UNL     1     -29.444  -1.712 -15.317  1.00  0.00     0.165 HD
ENDBRANCH  16  19
ENDBRANCH  11  13
ENDBRANCH   2   4
ENDBRANCH   1   2
BRANCH   1  26
HETATM   26  C4  UNL     1     -36.023   0.819  -8.949  1.00  0.00     0.091 C
BRANCH  26  27
HETATM   27  O2  UNL     1     -34.914   1.347  -8.329  1.00  0.00    -0.361 OA
ATOM     28  H2  UNL     1     -34.866   1.031  -7.434  1.00  0.00     0.217 HD
ENDBRANCH  26  27
BRANCH  26  29
HETATM   29  C5  UNL     1     -37.064   0.177  -8.181  1.00  0.00     0.205 C
BRANCH  29  30
HETATM   30  O3  UNL     1     -38.326   0.824  -8.465  1.00  0.00    -0.386 OA
ATOM     31  H3  UNL     1     -38.947   0.171  -8.766  1.00  0.00     0.210 HD
ENDBRANCH  29  30
BRANCH  29  32
HETATM   32  C6  UNL     1     -37.029   0.286  -6.653  1.00  0.00     0.167 C
BRANCH  32  33
HETATM   33  C7  UNL     1     -36.956  -1.077  -6.034  1.00  0.00     0.070 C
BRANCH  33  34
HETATM   34  C8  UNL     1     -35.797  -1.220  -5.088  1.00  0.00     0.151 C
BRANCH  34  35
HETATM   35  O4  UNL     1     -35.215  -0.023  -4.758  1.00  0.00    -0.393 OA
ATOM     36  H4  UNL     1     -34.275  -0.082  -4.633  1.00  0.00     0.210 HD
ENDBRANCH  34  35
BRANCH  34  37
HETATM   37  C9  UNL     1     -34.803  -2.255  -5.478  1.00  0.00     0.170 C
BRANCH  37  38
HETATM   38  O5  UNL     1     -33.701  -2.139  -4.587  1.00  0.00    -0.391 OA
ATOM     39  H5  UNL     1     -32.941  -1.905  -5.107  1.00  0.00     0.210 HD
ENDBRANCH  37  38
BRANCH  37  40
HETATM   40  C10 UNL     1     -34.280  -2.062  -6.867  1.00  0.00     0.198 C
BRANCH  40  41
HETATM   41  O6  UNL     1     -33.589  -0.878  -7.057  1.00  0.00    -0.398 OA
ATOM     42  H6  UNL     1     -32.651  -0.947  -6.926  1.00  0.00     0.209 HD
ENDBRANCH  40  41
ENDBRANCH  37  40
ENDBRANCH  34  37
ENDBRANCH  33  34
ENDBRANCH  32  33
BRANCH  32  43
HETATM   43  O7  UNL     1     -37.958   1.118  -6.147  1.00  0.00    -0.337 OA
BRANCH  43  44
HETATM   44  C11 UNL     1     -37.559   2.283  -5.550  1.00  0.00     0.248 C
BRANCH  44  45
HETATM   45  N4  UNL     1     -36.918   3.231  -6.424  1.00  0.00    -0.239 N
HETATM   46  C12 UNL     1     -37.499   4.005  -7.352  1.00  0.00     0.134 A
HETATM   47  C13 UNL     1     -36.522   4.782  -7.947  1.00  0.00     0.123 A
HETATM   48  N5  UNL     1     -35.369   4.437  -7.339  1.00  0.00    -0.293 N
HETATM   49  N6  UNL     1     -35.620   3.497  -6.422  1.00  0.00    -0.015 NA
ATOM     50  H5  UNL     1     -34.450   4.830  -7.546  1.00  0.00     0.183 HD
ENDBRANCH  44  45
ENDBRANCH  43  44
ENDBRANCH  32  43
ENDBRANCH  29  32
ENDBRANCH  26  29
ENDBRANCH   1  26
TORSDOF 19
ENDMDL