MODEL 5
REMARK VINA RESULT: -7.427986590      4.761     12.383
REMARK  20 active torsions:
REMARK  status: ('A' for Active; 'I' for Inactive)
REMARK    1  A    between atoms: C1_2  and  C2_4
REMARK    2  A    between atoms: C5_7  and  N2_8
REMARK    3  A    between atoms: N2_8  and  C6_10
REMARK    4  A    between atoms: C6_10  and  C7_11
REMARK    5  A    between atoms: C7_11  and  C8_12
REMARK    6  A    between atoms: C8_12  and  C9_13
REMARK    7  A    between atoms: C9_13  and  N3_14
REMARK    8  A    between atoms: N3_14  and  O2_15
REMARK    9  A    between atoms: N3_14  and  C10_17
REMARK   10  A    between atoms: C10_17  and  C11_18
REMARK   11  A    between atoms: C11_18  and  N4_19
REMARK   12  A    between atoms: N4_19  and  C12_20
REMARK   13  A    between atoms: N4_19  and  C14_24
REMARK   14  A    between atoms: C12_20  and  C13_21
REMARK   15  A    between atoms: C13_21  and  O3_22
REMARK   16  A    between atoms: C17_33  and  N8_34
REMARK   17  A    between atoms: N8_34  and  N9_36
REMARK   18  A    between atoms: C18_38  and  C19_39
REMARK   19  A    between atoms: C22_42  and  O4_43
REMARK   20  A    between atoms: C23_45  and  O5_46
ROOT
HETATM    1  C2  UNL     1     -34.758  -1.881  -6.484  1.00  0.00     0.143 A
HETATM    2  C3  UNL     1     -35.642  -0.899  -6.032  1.00  0.00     0.062 A
HETATM    3  C4  UNL     1     -36.260  -0.376  -7.149  1.00  0.00     0.063 A
HETATM    4  C5  UNL     1     -37.213   0.601  -7.359  1.00  0.00     0.135 A
HETATM    5  N7  UNL     1     -37.587   0.843  -8.654  1.00  0.00    -0.174 N
ATOM      6  H7  UNL     1     -38.291   1.560  -8.824  1.00  0.00     0.186 HD
HETATM    7  C17 UNL     1     -37.081   0.191  -9.710  1.00  0.00     0.700 A
HETATM    8  N10 UNL     1     -36.157  -0.755  -9.489  1.00  0.00    -0.168 N
ATOM      9  H10 UNL     1     -35.761  -1.263 -10.280  1.00  0.00     0.186 HD
HETATM   10  C25 UNL     1     -35.735  -1.052  -8.225  1.00  0.00     0.177 A
HETATM   11  O6  UNL     1     -34.853  -1.929  -7.783  1.00  0.00    -0.287 OA
ENDROOT
BRANCH   4  12
HETATM   12  N2  UNL     1     -37.722   1.292  -6.471  1.00  0.00    -0.355 N
ATOM     13  H2  UNL     1     -38.360   0.709  -5.930  1.00  0.00     0.166 HD
BRANCH  12  14
HETATM   14  C6  UNL     1     -37.737   2.562  -5.949  1.00  0.00     0.063 C
BRANCH  14  15
HETATM   15  C7  UNL     1     -38.428   3.651  -6.790  1.00  0.00     0.049 C
BRANCH  15  16
HETATM   16  C8  UNL     1     -39.786   3.079  -7.114  1.00  0.00     0.052 C
BRANCH  16  17
HETATM   17  C9  UNL     1     -40.724   4.062  -7.767  1.00  0.00     0.095 C
BRANCH  17  18
HETATM   18  N3  UNL     1     -41.440   4.889  -6.879  1.00  0.00    -0.253 N
BRANCH  18  19
HETATM   19  O2  UNL     1     -42.739   4.554  -6.744  1.00  0.00    -0.284 OA
ATOM     20  H2  UNL     1     -43.088   4.703  -5.873  1.00  0.00     0.245 HD
ENDBRANCH  18  19
BRANCH  18  21
HETATM   21  C10 UNL     1     -41.162   6.245  -6.811  1.00  0.00     0.114 C
BRANCH  21  22
HETATM   22  C11 UNL     1     -40.447   6.842  -5.668  1.00  0.00     0.173 C
BRANCH  22  23
HETATM   23  N4  UNL     1     -40.702   6.283  -4.371  1.00  0.00    -0.347 N
BRANCH  23  24
HETATM   24  C12 UNL     1     -39.774   5.400  -3.722  1.00  0.00     0.152 C
BRANCH  24  25
HETATM   25  C13 UNL     1     -38.424   6.117  -3.696  1.00  0.00     0.184 C
BRANCH  25  26
HETATM   26  O3  UNL     1     -37.420   5.184  -3.654  1.00  0.00    -0.399 OA
ATOM     27  H3  UNL     1     -37.033   5.182  -2.786  1.00  0.00     0.209 HD
ENDBRANCH  25  26
ENDBRANCH  24  25
ENDBRANCH  23  24
BRANCH  23  28
HETATM   28  C14 UNL     1     -41.922   6.594  -3.660  1.00  0.00     0.173 C
HETATM   29  N5  UNL     1     -42.095   7.480  -2.764  1.00  0.00    -0.361 N
HETATM   30  C15 UNL     1     -43.462   7.499  -2.281  1.00  0.00     0.142 C
ATOM     31  H5  UNL     1     -41.361   8.102  -2.426  1.00  0.00     0.162 HD
HETATM   32  C16 UNL     1     -44.241   6.630  -3.259  1.00  0.00     0.142 C
HETATM   33  N6  UNL     1     -43.162   5.907  -3.890  1.00  0.00    -0.361 N
ATOM     34  H6  UNL     1     -43.264   5.041  -4.418  1.00  0.00     0.162 HD
ENDBRANCH  23  28
ENDBRANCH  22  23
ENDBRANCH  21  22
ENDBRANCH  18  21
ENDBRANCH  17  18
ENDBRANCH  16  17
ENDBRANCH  15  16
ENDBRANCH  14  15
ENDBRANCH  12  14
ENDBRANCH   4  12
BRANCH   7  35
HETATM   35  N8  UNL     1     -37.492   0.496 -10.922  1.00  0.00    -0.132 N
ATOM     36  H8  UNL     1     -37.365   1.451 -11.255  1.00  0.00     0.205 HD
BRANCH  35  37
HETATM   37  N9  UNL     1     -38.094  -0.430 -11.768  1.00  0.00    -0.297 N
HETATM   38  C18 UNL     1     -37.842  -0.425 -13.036  1.00  0.00     0.119 C
ATOM     39  H9  UNL     1     -38.740  -1.119 -11.383  1.00  0.00     0.186 HD
BRANCH  38  40
HETATM   40  C19 UNL     1     -38.479  -1.396 -13.908  1.00  0.00    -0.017 A
HETATM   41  C20 UNL     1     -39.190  -1.054 -15.040  1.00  0.00     0.016 A
HETATM   42  C21 UNL     1     -39.785  -1.991 -15.850  1.00  0.00     0.040 A
HETATM   43  C22 UNL     1     -39.683  -3.329 -15.545  1.00  0.00     0.098 A
HETATM   44  C23 UNL     1     -38.986  -3.712 -14.430  1.00  0.00     0.099 A
HETATM   45  C24 UNL     1     -38.402  -2.761 -13.638  1.00  0.00     0.052 A
BRANCH  43  46
HETATM   46  O4  UNL     1     -40.289  -4.290 -16.372  1.00  0.00    -0.358 OA
ATOM     47  H4  UNL     1     -39.808  -5.068 -16.631  1.00  0.00     0.217 HD
ENDBRANCH  43  46
BRANCH  44  48
HETATM   48  O5  UNL     1     -38.880  -5.060 -14.116  1.00  0.00    -0.358 OA
ATOM     49  H5  UNL     1     -38.036  -5.493 -14.180  1.00  0.00     0.217 HD
ENDBRANCH  44  48
ENDBRANCH  38  40
ENDBRANCH  35  37
ENDBRANCH   7  35
BRANCH   1  50
HETATM   50  C1  UNL     1     -33.897  -2.687  -5.628  1.00  0.00     0.288 C
HETATM   51  N1  UNL     1     -33.784  -4.078  -5.834  1.00  0.00    -0.055 NA
HETATM   52  O1  UNL     1     -33.235  -2.171  -4.688  1.00  0.00    -0.269 OA
ENDBRANCH   1  50
TORSDOF 20
ENDMDL