MODEL 2
REMARK VINA RESULT: -7.368195002      2.671      4.786
REMARK  18 active torsions:
REMARK  status: ('A' for Active; 'I' for Inactive)
REMARK    1  A    between atoms: N1_2  and  N2_4
REMARK       I    between atoms: N2_4  and  C2_6
REMARK       I    between atoms: N4_8  and  C3_10
REMARK    2  A    between atoms: C3_10  and  C4_12
REMARK    3  A    between atoms: C5_15  and  C6_16
REMARK    4  A    between atoms: C6_16  and  C7_17
REMARK    5  A    between atoms: C7_17  and  C8_18
REMARK    6  A    between atoms: C8_18  and  C9_19
REMARK    7  A    between atoms: C9_19  and  N6_20
REMARK    8  A    between atoms: C11_22  and  C12_23
REMARK    9  A    between atoms: C12_23  and  C13_24
REMARK   10  A    between atoms: C13_24  and  C14_25
REMARK   11  A    between atoms: C14_25  and  C15_26
REMARK   12  A    between atoms: C15_26  and  C16_27
REMARK   13  A    between atoms: C16_27  and  C17_28
REMARK   14  A    between atoms: N8_31  and  C18_32
REMARK   15  A    between atoms: C18_32  and  C19_33
REMARK   16  A    between atoms: C19_33  and  O2_34
REMARK   17  A    between atoms: C21_37  and  O3_38
REMARK   18  A    between atoms: C22_42  and  N10_43
ROOT
HETATM    1  N6  UNL     1     -34.219  -2.561 -12.949  1.00  0.00    -0.284 N
HETATM    2  C10 UNL     1     -34.650  -1.436 -13.542  1.00  0.00     0.138 A
HETATM    3  C11 UNL     1     -35.888  -1.096 -13.040  1.00  0.00     0.044 A
HETATM    4  N12 UNL     1     -36.170  -2.042 -12.145  1.00  0.00    -0.289 N
ATOM      5  H12 UNL     1     -37.021  -2.093 -11.585  1.00  0.00     0.188 HD
HETATM    6  N13 UNL     1     -35.154  -2.919 -12.100  1.00  0.00    -0.240 N
ATOM      7  H13 UNL     1     -35.115  -3.741 -11.497  1.00  0.00     0.208 HD
ENDROOT
BRANCH   3   8
HETATM    8  C12 UNL     1     -36.715   0.064 -13.392  1.00  0.00     0.060 C
BRANCH   8   9
HETATM    9  C13 UNL     1     -36.598   1.231 -12.487  1.00  0.00     0.006 C
BRANCH   9  10
HETATM   10  C14 UNL     1     -35.184   1.750 -12.307  1.00  0.00     0.001 C
BRANCH  10  11
HETATM   11  C15 UNL     1     -34.932   2.252 -10.940  1.00  0.00     0.006 C
BRANCH  11  12
HETATM   12  C16 UNL     1     -34.531   1.267  -9.897  1.00  0.00     0.061 C
BRANCH  12  13
HETATM   13  C17 UNL     1     -35.663   0.971  -8.981  1.00  0.00     0.055 A
HETATM   14  N7  UNL     1     -36.826   1.668  -8.888  1.00  0.00    -0.300 N
HETATM   15  N8  UNL     1     -37.614   1.187  -7.953  1.00  0.00    -0.284 N
ATOM     16  H7  UNL     1     -37.060   2.470  -9.475  1.00  0.00     0.187 HD
HETATM   17  C20 UNL     1     -36.979   0.145  -7.400  1.00  0.00     0.131 A
HETATM   18  C21 UNL     1     -37.283  -0.755  -6.405  1.00  0.00     0.186 A
HETATM   19  C23 UNL     1     -35.752  -0.018  -8.022  1.00  0.00     0.105 A
HETATM   20  N9  UNL     1     -36.460  -1.747  -6.039  1.00  0.00    -0.169 N
HETATM   21  C22 UNL     1     -35.277  -1.886  -6.657  1.00  0.00     0.678 A
ATOM     22  H9  UNL     1     -36.730  -2.391  -5.296  1.00  0.00     0.186 HD
HETATM   23  N11 UNL     1     -34.953  -1.027  -7.625  1.00  0.00    -0.188 N
ATOM     24  H11 UNL     1     -34.053  -1.140  -8.089  1.00  0.00     0.184 HD
BRANCH  15  25
HETATM   25  C18 UNL     1     -38.940   1.709  -7.596  1.00  0.00     0.175 C
BRANCH  25  26
HETATM   26  C19 UNL     1     -39.610   2.311  -8.820  1.00  0.00     0.185 C
BRANCH  26  27
HETATM   27  O2  UNL     1     -39.687   1.295  -9.778  1.00  0.00    -0.399 OA
ATOM     28  H2  UNL     1     -39.105   1.543 -10.487  1.00  0.00     0.209 HD
ENDBRANCH  26  27
ENDBRANCH  25  26
ENDBRANCH  15  25
BRANCH  18  29
HETATM   29  O3  UNL     1     -38.506  -0.616  -5.762  1.00  0.00    -0.344 OA
ATOM     30  H3  UNL     1     -38.638   0.160  -5.230  1.00  0.00     0.219 HD
ENDBRANCH  18  29
BRANCH  21  31
HETATM   31  N10 UNL     1     -34.462  -2.856  -6.306  1.00  0.00    -0.234 N
ATOM     32 2H10 UNL     1     -33.773  -3.230  -6.958  1.00  0.00     0.174 HD
ATOM     33 1H10 UNL     1     -34.515  -3.249  -5.366  1.00  0.00     0.174 HD
ENDBRANCH  21  31
ENDBRANCH  12  13
ENDBRANCH  11  12
ENDBRANCH  10  11
ENDBRANCH   9  10
ENDBRANCH   8   9
ENDBRANCH   3   8
BRANCH   1  34
HETATM   34  C9  UNL     1     -32.932  -3.253 -13.228  1.00  0.00     0.176 C
BRANCH  34  35
HETATM   35  C8  UNL     1     -31.991  -2.199 -13.632  1.00  0.00    -0.009 C
BRANCH  35  36
HETATM   36  C7  UNL     1     -31.218  -1.430 -12.667  1.00  0.00    -0.022 C
BRANCH  36  37
HETATM   37  C6  UNL     1     -30.013  -1.903 -11.996  1.00  0.00     0.104 C
BRANCH  37  38
HETATM   38  C5  UNL     1     -29.512  -3.241 -12.307  1.00  0.00     0.101 A
HETATM   39  N5  UNL     1     -28.834  -3.680 -13.393  1.00  0.00    -0.325 N
HETATM   40  C4  UNL     1     -28.584  -5.007 -13.230  1.00  0.00     0.191 A
ATOM     41  H5  UNL     1     -28.558  -3.113 -14.195  1.00  0.00     0.169 HD
HETATM   42  N15 UNL     1     -29.095  -5.395 -12.064  1.00  0.00    -0.280 N
HETATM   43  N14 UNL     1     -29.654  -4.341 -11.503  1.00  0.00    -0.287 N
ATOM     44  H15 UNL     1     -29.061  -6.338 -11.674  1.00  0.00     0.189 HD
ATOM     45  H14 UNL     1     -30.126  -4.343 -10.599  1.00  0.00     0.188 HD
BRANCH  40  46
HETATM   46  C3  UNL     1     -27.873  -5.875 -14.170  1.00  0.00     0.293 C
HETATM   47  N4  UNL     1     -28.337  -7.197 -14.355  1.00  0.00    -0.293 N
HETATM   48  C2  UNL     1     -29.251  -7.433 -15.222  1.00  0.00     0.210 C
ATOM     49  H4  UNL     1     -27.946  -7.960 -13.802  1.00  0.00     0.172 HD
HETATM   50  N2  UNL     1     -29.758  -8.758 -15.449  1.00  0.00    -0.275 N
HETATM   51  N3  UNL     1     -29.780  -6.360 -15.981  1.00  0.00    -0.062 NA
ATOM     52  H2  UNL     1     -29.101  -9.530 -15.570  1.00  0.00     0.189 HD
HETATM   53  O1  UNL     1     -26.863  -5.426 -14.795  1.00  0.00    -0.264 OA
BRANCH  50  54
HETATM   54  N1  UNL     1     -31.129  -9.014 -15.509  1.00  0.00    -0.320 N
HETATM   55  C1  UNL     1     -31.639 -10.110 -15.891  1.00  0.00     0.139 C
ATOM     56  H1  UNL     1     -31.764  -8.268 -15.226  1.00  0.00     0.185 HD
ENDBRANCH  50  54
ENDBRANCH  40  46
ENDBRANCH  37  38
ENDBRANCH  36  37
ENDBRANCH  35  36
ENDBRANCH  34  35
ENDBRANCH   1  34
TORSDOF 18
ENDMDL