MODEL 3
REMARK VINA RESULT: -5.379100959      2.064      3.355
REMARK  7 active torsions:
REMARK  status: ('A' for Active; 'I' for Inactive)
REMARK    1  A    between atoms: N1_2  and  C4_5
REMARK    2  A    between atoms: C4_5  and  C5_6
REMARK    3  A    between atoms: C5_6  and  C6_7
REMARK    4  A    between atoms: C6_7  and  C7_8
REMARK    5  A    between atoms: C8_11  and  N3_12
REMARK    6  A    between atoms: C9_17  and  N5_18
REMARK    7  A    between atoms: N5_18  and  C10_20
ROOT
HETATM    1  C7  UNL     1      26.986  76.362  11.834  1.00  0.00     0.071 A
HETATM    2  N2  UNL     1      27.542  77.197  12.736  1.00  0.00    -0.192 N
ATOM      3  H2  UNL     1      27.197  78.118  13.004  1.00  0.00     0.184 HD
HETATM    4  C8  UNL     1      28.647  76.578  13.218  1.00  0.00     0.677 A
HETATM    5  N4  UNL     1      28.752  75.371  12.604  1.00  0.00    -0.175 N
ATOM      6  H4  UNL     1      29.493  74.690  12.774  1.00  0.00     0.186 HD
HETATM    7  C9  UNL     1      27.740  75.209  11.743  1.00  0.00     0.144 A
ENDROOT
BRANCH   1   8
HETATM    8  C6  UNL     1      25.746  76.634  11.050  1.00  0.00     0.063 C
BRANCH   8   9
HETATM    9  C5  UNL     1      24.534  76.734  11.955  1.00  0.00     0.034 C
BRANCH   9  10
HETATM   10  C4  UNL     1      24.151  75.340  12.372  1.00  0.00     0.236 C
BRANCH  10  11
HETATM   11  N1  UNL     1      23.976  75.214  13.802  1.00  0.00    -0.079 N
HETATM   12  C1  UNL     1      22.987  74.175  14.021  1.00  0.00     0.271 C
HETATM   13  C2  UNL     1      25.195  74.819  14.472  1.00  0.00     0.271 C
HETATM   14  C3  UNL     1      23.463  76.423  14.403  1.00  0.00     0.271 C
ENDBRANCH  10  11
ENDBRANCH   9  10
ENDBRANCH   8   9
ENDBRANCH   1   8
BRANCH   7  15
HETATM   15  N5  UNL     1      27.427  74.123  10.882  1.00  0.00    -0.341 N
ATOM     16  H5  UNL     1      26.465  73.785  10.879  1.00  0.00     0.167 HD
BRANCH  15  17
HETATM   17  C10 UNL     1      28.253  73.545  10.118  1.00  0.00     0.171 C
HETATM   18  S1  UNL     1      29.386  72.574   9.471  1.00  0.00    -0.074 SA
ENDBRANCH  15  17
ENDBRANCH   7  15
BRANCH   4  19
HETATM   19  N3  UNL     1      29.433  77.094  14.111  1.00  0.00    -0.234 N
ATOM     20  H32 UNL     1      29.179  77.642  14.933  1.00  0.00     0.174 HD
ATOM     21  H31 UNL     1      30.450  77.007  14.093  1.00  0.00     0.174 HD
ENDBRANCH   4  19
TORSDOF 7
ENDMDL