MODEL 4
REMARK VINA RESULT: -6.363212220      2.232      3.714
REMARK  6 active torsions:
REMARK  status: ('A' for Active; 'I' for Inactive)
REMARK    1  A    between atoms: C2_2  and  C3_3
REMARK    2  A    between atoms: C3_3  and  C5_5
REMARK    3  A    between atoms: C3_3  and  C6_12
REMARK       I    between atoms: C5_5  and  N1_7
REMARK    4  A    between atoms: N1_7  and  N2_9
REMARK    5  A    between atoms: C6_12  and  C7_13
REMARK    6  A    between atoms: C6_12  and  C10_16
ROOT
HETATM    1  C3  UNL     1      26.742  75.345  13.818  1.00  0.00     0.064 C
HETATM    2  C4  UNL     1      27.611  76.581  13.971  1.00  0.00     0.030 C
ENDROOT
BRANCH   1   3
HETATM    3  C2  UNL     1      26.686  74.824  15.250  1.00  0.00    -0.018 C
HETATM    4  C1  UNL     1      27.149  75.557  16.258  1.00  0.00     0.008 C
ENDBRANCH   1   3
BRANCH   1   5
HETATM    5  C5  UNL     1      27.534  74.363  13.094  1.00  0.00     0.248 C
HETATM    6  O1  UNL     1      28.420  73.648  13.690  1.00  0.00    -0.271 OA
HETATM    7  N1  UNL     1      27.477  74.046  11.717  1.00  0.00    -0.276 N
ATOM      8  H1  UNL     1      26.796  74.574  11.172  1.00  0.00     0.189 HD
BRANCH   7   9
HETATM    9  N2  UNL     1      28.204  73.135  11.021  1.00  0.00    -0.343 N
ATOM     10  H22 UNL     1      27.686  72.658  10.283  1.00  0.00     0.176 HD
ATOM     11  H21 UNL     1      29.182  72.871  11.140  1.00  0.00     0.176 HD
ENDBRANCH   7   9
ENDBRANCH   1   5
BRANCH   1  12
HETATM   12  C6  UNL     1      25.354  75.608  13.419  1.00  0.00     0.067 C
BRANCH  12  13
HETATM   13  C7  UNL     1      24.242  75.324  14.335  1.00  0.00    -0.013 C
HETATM   14  C8  UNL     1      23.500  76.432  14.981  1.00  0.00     0.010 C
HETATM   15  C9  UNL     1      23.237  74.305  13.844  1.00  0.00     0.010 C
ENDBRANCH  12  13
BRANCH  12  16
HETATM   16  C10 UNL     1      25.047  76.888  12.677  1.00  0.00     0.326 C
HETATM   17  N3  UNL     1      26.141  77.376  11.874  1.00  0.00    -0.046 N
HETATM   18  C11 UNL     1      25.989  76.791  10.570  1.00  0.00     0.261 C
ATOM     19  H32 UNL     1      26.202  78.394  11.853  1.00  0.00     0.280 HD
ATOM     20  H31 UNL     1      27.055  77.201  12.290  1.00  0.00     0.280 HD
HETATM   21  C12 UNL     1      24.525  76.454  10.542  1.00  0.00     0.198 C
HETATM   22  O2  UNL     1      23.999  76.641  11.777  1.00  0.00    -0.357 OA
ENDBRANCH  12  16
ENDBRANCH   1  12
TORSDOF 6
ENDMDL