MODEL 5
REMARK VINA RESULT: -5.702214286      2.619      3.632
REMARK  5 active torsions:
REMARK  status: ('A' for Active; 'I' for Inactive)
REMARK    1  A    between atoms: C5_7  and  N2_8
REMARK    2  A    between atoms: N2_8  and  C6_10
REMARK    3  A    between atoms: C6_10  and  C7_11
REMARK    4  A    between atoms: C7_11  and  C8_12
REMARK    5  A    between atoms: C8_12  and  N3_13
ROOT
HETATM    1  N2  UNL     1      27.914  75.375  14.143  1.00  0.00    -0.417 N
ATOM      2  H2  UNL     1      28.807  75.851  14.272  1.00  0.00     0.153 HD
ENDROOT
BRANCH   1   3
HETATM    3  C5  UNL     1      27.412  75.095  12.856  1.00  0.00     0.078 C
HETATM    4  C4  UNL     1      28.262  74.187  12.011  1.00  0.00     0.044 C
HETATM    5  C3  UNL     1      27.978  74.345  10.528  1.00  0.00     0.115 C
HETATM    6  N1  UNL     1      26.590  74.153  10.245  1.00  0.00    -0.421 N
HETATM    7  C2  UNL     1      25.747  75.272  10.555  1.00  0.00     0.113 C
ATOM      8  H1  UNL     1      26.226  73.285   9.851  1.00  0.00     0.153 HD
HETATM    9  C1  UNL     1      26.481  76.499  10.959  1.00  0.00     0.021 C
HETATM   10  C13 UNL     1      27.381  76.428  12.113  1.00  0.00     0.026 C
ENDBRANCH   1   3
BRANCH   1  11
HETATM   11  C6  UNL     1      27.109  74.958  15.277  1.00  0.00     0.119 C
BRANCH  11  12
HETATM   12  C7  UNL     1      26.945  75.999  16.304  1.00  0.00     0.063 C
BRANCH  12  13
HETATM   13  C8  UNL     1      27.328  77.360  15.861  1.00  0.00     0.060 C
BRANCH  13  14
HETATM   14  N3  UNL     1      28.424  77.945  16.454  1.00  0.00    -0.390 N
HETATM   15  C9  UNL     1      29.067  77.517  17.611  1.00  0.00     0.141 C
HETATM   16  C10 UNL     1      30.591  77.609  17.383  1.00  0.00     0.133 C
HETATM   17  N4  UNL     1      30.871  78.970  17.046  1.00  0.00    -0.418 N
HETATM   18  C11 UNL     1      29.743  79.849  17.056  1.00  0.00     0.133 C
ATOM     19  H4  UNL     1      31.811  79.293  16.814  1.00  0.00     0.153 HD
HETATM   20  C12 UNL     1      28.572  79.375  16.228  1.00  0.00     0.141 C
ENDBRANCH  13  14
ENDBRANCH  12  13
ENDBRANCH  11  12
ENDBRANCH   1  11
TORSDOF 5
ENDMDL