MODEL 4
REMARK VINA RESULT: -6.004581377      1.512      2.068
REMARK  7 active torsions:
REMARK  status: ('A' for Active; 'I' for Inactive)
REMARK    1  A    between atoms: N1_2  and  C3_4
REMARK    2  A    between atoms: C3_4  and  C4_5
REMARK    3  A    between atoms: C4_5  and  C5_6
REMARK    4  A    between atoms: C5_6  and  C6_7
REMARK    5  A    between atoms: C6_7  and  N2_8
REMARK    6  A    between atoms: N2_8  and  C7_10
REMARK    7  A    between atoms: C8_13  and  N4_14
ROOT
HETATM    1  C7  UNL     1      28.266  78.491  14.348  1.00  0.00     0.147 A
HETATM    2  N3  UNL     1      28.756  79.594  14.991  1.00  0.00    -0.175 N
ATOM      3  H3  UNL     1      29.176  79.466  15.912  1.00  0.00     0.186 HD
HETATM    4  C8  UNL     1      28.718  80.807  14.492  1.00  0.00     0.679 A
HETATM    5  N5  UNL     1      28.179  81.049  13.284  1.00  0.00    -0.174 N
ATOM      6  H5  UNL     1      28.147  81.990  12.893  1.00  0.00     0.186 HD
HETATM    7  C9  UNL     1      27.687  79.996  12.618  1.00  0.00     0.152 A
HETATM    8  N6  UNL     1      27.093  79.944  11.392  1.00  0.00    -0.336 N
ATOM      9  H6  UNL     1      26.931  80.744  10.779  1.00  0.00     0.168 HD
HETATM   10  C10 UNL     1      26.757  78.683  11.124  1.00  0.00     0.182 A
HETATM   11  N7  UNL     1      27.129  77.908  12.171  1.00  0.00    -0.346 N
ATOM     12  H7  UNL     1      26.998  76.899  12.245  1.00  0.00     0.167 HD
HETATM   13  C11 UNL     1      27.706  78.704  13.102  1.00  0.00     0.123 A
ENDROOT
BRANCH   1  14
HETATM   14  N2  UNL     1      28.340  77.380  14.891  1.00  0.00    -0.374 N
ATOM     15  H2  UNL     1      29.307  77.053  14.896  1.00  0.00     0.161 HD
BRANCH  14  16
HETATM   16  C6  UNL     1      27.525  76.455  15.485  1.00  0.00     0.121 C
BRANCH  16  17
HETATM   17  C5  UNL     1      27.398  75.138  14.686  1.00  0.00     0.021 C
BRANCH  17  18
HETATM   18  C4  UNL     1      25.957  74.708  14.735  1.00  0.00     0.032 C
BRANCH  18  19
HETATM   19  C3  UNL     1      25.063  75.838  14.428  1.00  0.00     0.271 C
BRANCH  19  20
HETATM   20  N1  UNL     1      23.949  75.560  13.584  1.00  0.00     0.080 N
HETATM   21  C1  UNL     1      24.321  75.597  12.188  1.00  0.00     0.309 C
HETATM   22  C2  UNL     1      23.181  74.409  13.932  1.00  0.00     0.309 C
ENDBRANCH  19  20
ENDBRANCH  18  19
ENDBRANCH  17  18
ENDBRANCH  16  17
ENDBRANCH  14  16
ENDBRANCH   1  14
BRANCH   4  23
HETATM   23  N4  UNL     1      29.212  81.824  15.173  1.00  0.00    -0.234 N
ATOM     24  H42 UNL     1      29.366  81.707  16.175  1.00  0.00     0.174 HD
ATOM     25  H41 UNL     1      29.431  82.701  14.702  1.00  0.00     0.174 HD
ENDBRANCH   4  23
TORSDOF 7
ENDMDL