MODEL 2
REMARK VINA RESULT: -6.486176476      0.556      2.030
REMARK  5 active torsions:
REMARK  status: ('A' for Active; 'I' for Inactive)
REMARK    1  A    between atoms: O1_2  and  C2_3
REMARK    2  A    between atoms: C2_3  and  C3_4
REMARK    3  A    between atoms: C3_4  and  N1_5
REMARK       I    between atoms: C4_7  and  N3_9
REMARK    4  A    between atoms: N3_9  and  N4_11
REMARK    5  A    between atoms: C5_13  and  C6_14
ROOT
HETATM    1  N4  UNL     1      28.316  75.118  11.777  1.00  0.00    -0.309 N
ATOM      2  H4  UNL     1      29.174  75.593  11.497  1.00  0.00     0.186 HD
HETATM    3  C5  UNL     1      27.331  75.833  12.183  1.00  0.00     0.122 C
ENDROOT
BRANCH   1   4
HETATM    4  N3  UNL     1      28.279  73.737  11.698  1.00  0.00    -0.274 N
HETATM    5  C4  UNL     1      28.297  73.100  10.432  1.00  0.00     0.203 C
HETATM    6  N1  UNL     1      29.165  72.208  10.113  1.00  0.00    -0.361 N
HETATM    7  N2  UNL     1      27.329  73.439   9.447  1.00  0.00    -0.062 NA
ATOM      8  H1  UNL     1      29.870  71.948  10.802  1.00  0.00     0.162 HD
ATOM      9  H3  UNL     1      28.239  73.177  12.550  1.00  0.00     0.189 HD
BRANCH   6  10
HETATM   10  C3  UNL     1      29.188  71.554   8.820  1.00  0.00     0.148 C
BRANCH  10  11
HETATM   11  C2  UNL     1      30.540  70.931   8.652  1.00  0.00     0.186 C
BRANCH  11  12
HETATM   12  O1  UNL     1      30.617  69.603   9.011  1.00  0.00    -0.394 OA
HETATM   13  C1  UNL     1      31.746  69.281   9.748  1.00  0.00     0.201 C
ENDBRANCH  11  12
ENDBRANCH  10  11
ENDBRANCH   6  10
ENDBRANCH   1   4
BRANCH   3  14
HETATM   14  C6  UNL     1      27.391  77.286  12.257  1.00  0.00     0.028 A
HETATM   15  C7  UNL     1      28.087  77.981  13.249  1.00  0.00     0.035 A
HETATM   16  C8  UNL     1      28.854  77.347  14.354  1.00  0.00     0.070 C
HETATM   17  N5  UNL     1      27.895  79.279  12.965  1.00  0.00    -0.304 N
HETATM   18  N6  UNL     1      27.137  79.403  11.877  1.00  0.00    -0.304 N
ATOM     19  H5  UNL     1      28.275  80.057  13.505  1.00  0.00     0.186 HD
HETATM   20  C9  UNL     1      26.800  78.192  11.404  1.00  0.00     0.035 A
ATOM     21  H6  UNL     1      26.854  80.292  11.463  1.00  0.00     0.186 HD
HETATM   22  C10 UNL     1      25.973  77.843  10.221  1.00  0.00     0.070 C
ENDBRANCH   3  14
TORSDOF 5
ENDMDL