MODEL 4
REMARK VINA RESULT: -6.049705210      2.142      2.998
REMARK  6 active torsions:
REMARK  status: ('A' for Active; 'I' for Inactive)
REMARK    1  A    between atoms: C2_2  and  C3_3
REMARK    2  A    between atoms: C3_3  and  N1_5
REMARK    3  A    between atoms: N1_5  and  C5_8
REMARK    4  A    between atoms: C5_8  and  C6_9
REMARK    5  A    between atoms: C6_9  and  N2_10
REMARK    6  A    between atoms: N5_16  and  C8_18
ROOT
HETATM    1  N2  UNL     1      25.239  75.749  12.814  1.00  0.00    -0.238 N
HETATM    2  N3  UNL     1      24.827  74.834  13.693  1.00  0.00    -0.236 N
ATOM      3  H3  UNL     1      24.220  74.045  13.471  1.00  0.00     0.208 HD
HETATM    4  N4  UNL     1      25.315  75.094  14.887  1.00  0.00    -0.266 N
ATOM      5  H4  UNL     1      25.140  74.535  15.723  1.00  0.00     0.190 HD
HETATM    6  C7  UNL     1      26.073  76.196  14.848  1.00  0.00     0.188 A
HETATM    7  N5  UNL     1      26.716  76.773  15.807  1.00  0.00    -0.367 N
ATOM      8  H5  UNL     1      27.248  77.615  15.585  1.00  0.00     0.161 HD
HETATM    9  C11 UNL     1      26.011  76.596  13.516  1.00  0.00     0.308 A
HETATM   10  O1  UNL     1      26.571  77.580  13.028  1.00  0.00    -0.262 OA
ENDROOT
BRANCH   1  11
HETATM   11  C6  UNL     1      24.869  75.728  11.449  1.00  0.00     0.181 C
BRANCH  11  12
HETATM   12  C5  UNL     1      25.876  75.466  10.418  1.00  0.00     0.254 C
BRANCH  12  13
HETATM   13  N1  UNL     1      26.530  74.172  10.509  1.00  0.00    -0.070 N
ATOM     14  H12 UNL     1      26.158  73.529   9.810  1.00  0.00     0.277 HD
ATOM     15  H11 UNL     1      26.246  73.683  11.358  1.00  0.00     0.277 HD
BRANCH  13  16
HETATM   16  C3  UNL     1      27.968  74.248  10.420  1.00  0.00     0.181 C
HETATM   17  C4  UNL     1      28.475  72.861  10.122  1.00  0.00     0.040 C
BRANCH  16  18
HETATM   18  C2  UNL     1      28.629  74.743  11.679  1.00  0.00     0.028 C
HETATM   19  C1  UNL     1      28.341  73.914  12.891  1.00  0.00     0.007 C
ENDBRANCH  16  18
ENDBRANCH  13  16
ENDBRANCH  12  13
ENDBRANCH  11  12
ENDBRANCH   1  11
BRANCH   7  20
HETATM   20  C8  UNL     1      26.732  76.310  17.158  1.00  0.00     0.075 C
HETATM   21  C9  UNL     1      25.638  76.920  18.005  1.00  0.00     0.031 C
HETATM   22  C10 UNL     1      28.047  76.604  17.861  1.00  0.00     0.031 C
ENDBRANCH   7  20
TORSDOF 6
ENDMDL