MODEL 5
REMARK VINA RESULT: -6.601302399      2.840      5.599
REMARK  8 active torsions:
REMARK  status: ('A' for Active; 'I' for Inactive)
REMARK    1  A    between atoms: C2_2  and  C3_3
REMARK    2  A    between atoms: C3_3  and  C4_4
REMARK    3  A    between atoms: C4_4  and  N1_5
REMARK    4  A    between atoms: N1_5  and  C5_7
REMARK    5  A    between atoms: C6_10  and  N3_11
REMARK    6  A    between atoms: N3_11  and  C7_13
REMARK    7  A    between atoms: C9_17  and  N5_18
REMARK    8  A    between atoms: N5_18  and  C10_20
ROOT
HETATM    1  C10 UNL     1      24.363  74.933  14.381  1.00  0.00     0.262 C
HETATM    2  C11 UNL     1      24.079  75.302  12.994  1.00  0.00     0.079 C
HETATM    3  N6  UNL     1      23.852  75.577  11.895  1.00  0.00    -0.196 NA
ENDROOT
BRANCH   1   4
HETATM    4  N5  UNL     1      25.695  74.459  14.563  1.00  0.00    -0.213 N
ATOM      5  H5  UNL     1      25.822  73.645  15.166  1.00  0.00     0.178 HD
BRANCH   4   6
HETATM    6  C9  UNL     1      26.751  74.968  14.034  1.00  0.00     0.708 A
HETATM    7  N4  UNL     1      27.393  76.041  14.528  1.00  0.00    -0.021 N
HETATM    8  C6  UNL     1      28.498  76.559  13.960  1.00  0.00     0.707 A
ATOM      9  H4  UNL     1      27.026  76.484  15.371  1.00  0.00     0.203 HD
HETATM   10  N2  UNL     1      28.953  75.953  12.849  1.00  0.00    -0.022 N
HETATM   11  C5  UNL     1      28.345  74.860  12.300  1.00  0.00     0.707 A
ATOM     12  H2  UNL     1      29.787  76.325  12.396  1.00  0.00     0.203 HD
HETATM   13  N7  UNL     1      27.238  74.389  12.921  1.00  0.00    -0.021 N
ATOM     14  H7  UNL     1      26.761  73.575  12.535  1.00  0.00     0.203 HD
BRANCH   8  15
HETATM   15  N3  UNL     1      29.086  77.598  14.471  1.00  0.00    -0.225 N
ATOM     16  H3  UNL     1      29.746  78.103  13.881  1.00  0.00     0.177 HD
BRANCH  15  17
HETATM   17  C7  UNL     1      28.879  78.087  15.791  1.00  0.00     0.133 C
HETATM   18  C8  UNL     1      30.084  77.659  16.637  1.00  0.00     0.027 C
ENDBRANCH  15  17
ENDBRANCH   8  15
BRANCH  11  19
HETATM   19  N1  UNL     1      28.817  74.312  11.234  1.00  0.00    -0.225 N
ATOM     20  H1  UNL     1      29.810  74.098  11.142  1.00  0.00     0.177 HD
BRANCH  19  21
HETATM   21  C4  UNL     1      27.879  74.011  10.173  1.00  0.00     0.138 C
BRANCH  21  22
HETATM   22  C3  UNL     1      28.223  72.632   9.651  1.00  0.00     0.020 C
BRANCH  22  23
HETATM   23  C2  UNL     1      29.717  72.595   9.424  1.00  0.00    -0.003 C
HETATM   24  C1  UNL     1      30.135  71.359   8.674  1.00  0.00     0.005 C
ENDBRANCH  22  23
ENDBRANCH  21  22
ENDBRANCH  19  21
ENDBRANCH  11  19
ENDBRANCH   4   6
ENDBRANCH   1   4
TORSDOF 8
ENDMDL