MODEL 2
REMARK VINA RESULT: -6.611021849      2.165      2.405
REMARK  7 active torsions:
REMARK  status: ('A' for Active; 'I' for Inactive)
REMARK    1  A    between atoms: C2_2  and  C3_3
REMARK    2  A    between atoms: C3_3  and  C4_4
REMARK    3  A    between atoms: C5_7  and  N2_8
REMARK    4  A    between atoms: N2_8  and  C6_10
REMARK    5  A    between atoms: C6_10  and  C7_11
REMARK    6  A    between atoms: C7_11  and  O1_12
REMARK    7  A    between atoms: C9_16  and  N4_17
ROOT
HETATM    1  C4  UNL     1      27.033  77.089  11.439  1.00  0.00     0.051 A
HETATM    2  N1  UNL     1      27.120  75.766  11.134  1.00  0.00    -0.194 N
ATOM      3  H1  UNL     1      26.558  75.416  10.358  1.00  0.00     0.184 HD
HETATM    4  C5  UNL     1      27.889  74.905  11.781  1.00  0.00     0.680 A
HETATM    5  N3  UNL     1      28.631  75.339  12.799  1.00  0.00    -0.176 N
ATOM      6  H3  UNL     1      29.228  74.686  13.307  1.00  0.00     0.186 HD
HETATM    7  C9  UNL     1      28.597  76.631  13.158  1.00  0.00     0.137 A
HETATM    8  C10 UNL     1      27.801  77.535  12.491  1.00  0.00     0.111 A
HETATM    9  C11 UNL     1      27.755  78.921  12.865  1.00  0.00     0.105 C
HETATM   10  N5  UNL     1      27.714  80.046  13.191  1.00  0.00    -0.191 NA
ENDROOT
BRANCH   1  11
HETATM   11  C3  UNL     1      26.157  77.999  10.678  1.00  0.00     0.059 C
BRANCH  11  12
HETATM   12  C2  UNL     1      25.081  77.247   9.921  1.00  0.00     0.002 C
HETATM   13  C1  UNL     1      24.536  78.084   8.786  1.00  0.00     0.005 C
ENDBRANCH  11  12
ENDBRANCH   1  11
BRANCH   7  14
HETATM   14  N4  UNL     1      29.308  77.070  14.136  1.00  0.00    -0.384 N
ATOM     15  H42 UNL     1      29.946  76.416  14.589  1.00  0.00     0.157 HD
ATOM     16  H41 UNL     1      29.235  78.038  14.449  1.00  0.00     0.157 HD
ENDBRANCH   7  14
BRANCH   4  17
HETATM   17  N2  UNL     1      27.923  73.676  11.443  1.00  0.00    -0.224 N
ATOM     18  H2  UNL     1      27.929  72.985  12.194  1.00  0.00     0.177 HD
BRANCH  17  19
HETATM   19  C6  UNL     1      27.954  73.181  10.090  1.00  0.00     0.164 C
BRANCH  19  20
HETATM   20  C7  UNL     1      29.373  73.010   9.604  1.00  0.00     0.187 C
BRANCH  20  21
HETATM   21  O1  UNL     1      29.805  71.710   9.562  1.00  0.00    -0.394 OA
HETATM   22  C8  UNL     1      29.845  71.192   8.274  1.00  0.00     0.201 C
ENDBRANCH  20  21
ENDBRANCH  19  20
ENDBRANCH  17  19
ENDBRANCH   4  17
TORSDOF 7
ENDMDL