MODEL 3
REMARK VINA RESULT: -7.268173042      2.101      3.106
REMARK  5 active torsions:
REMARK  status: ('A' for Active; 'I' for Inactive)
REMARK       I    between atoms: C1_4  and  N3_6
REMARK    1  A    between atoms: C2_8  and  C3_9
REMARK    2  A    between atoms: C4_12  and  C5_13
REMARK    3  A    between atoms: C5_13  and  C6_14
REMARK    4  A    between atoms: C6_14  and  C7_15
REMARK    5  A    between atoms: C7_15  and  N5_16
ROOT
HETATM    1  C3  UNL     1      27.499  74.379  10.658  1.00  0.00     0.137 A
HETATM    2  N4  UNL     1      27.508  74.849  11.938  1.00  0.00    -0.329 N
ATOM      3  H4  UNL     1      28.341  74.928  12.522  1.00  0.00     0.168 HD
HETATM    4  C4  UNL     1      26.270  75.192  12.322  1.00  0.00     0.097 A
HETATM    5  N6  UNL     1      25.483  74.930  11.264  1.00  0.00    -0.287 N
ATOM      6  H6  UNL     1      24.476  75.081  11.229  1.00  0.00     0.188 HD
HETATM    7  N7  UNL     1      26.212  74.448  10.278  1.00  0.00    -0.283 N
ATOM      8  H7  UNL     1      25.854  74.170   9.364  1.00  0.00     0.188 HD
ENDROOT
BRANCH   1   9
HETATM    9  C2  UNL     1      28.642  73.909   9.888  1.00  0.00     0.140 C
HETATM   10  N3  UNL     1      28.986  72.672   9.889  1.00  0.00    -0.337 N
HETATM   11  C1  UNL     1      30.079  72.171   9.166  1.00  0.00     0.185 C
ATOM     12  H3  UNL     1      28.436  72.019  10.446  1.00  0.00     0.168 HD
HETATM   13  N1  UNL     1      30.375  70.924   9.207  1.00  0.00    -0.374 N
HETATM   14  N2  UNL     1      30.877  73.036   8.374  1.00  0.00    -0.064 NA
ATOM     15  H12 UNL     1      31.170  70.560   8.681  1.00  0.00     0.158 HD
ATOM     16  H11 UNL     1      29.801  70.302   9.777  1.00  0.00     0.158 HD
ENDBRANCH   1   9
BRANCH   4  17
HETATM   17  C5  UNL     1      25.916  75.743  13.660  1.00  0.00     0.080 C
BRANCH  17  18
HETATM   18  C6  UNL     1      26.219  74.762  14.762  1.00  0.00     0.038 C
BRANCH  18  19
HETATM   19  C7  UNL     1      27.100  75.337  15.828  1.00  0.00     0.272 C
BRANCH  19  20
HETATM   20  N5  UNL     1      26.598  76.647  16.198  1.00  0.00     0.088 N
HETATM   21  C8  UNL     1      26.100  76.677  17.563  1.00  0.00     0.272 C
HETATM   22  C9  UNL     1      27.315  76.289  18.347  1.00  0.00     0.032 C
HETATM   23  C10 UNL     1      28.422  76.994  17.556  1.00  0.00     0.032 C
HETATM   24  C11 UNL     1      27.740  77.561  16.325  1.00  0.00     0.272 C
ENDBRANCH  19  20
ENDBRANCH  18  19
ENDBRANCH  17  18
ENDBRANCH   4  17
TORSDOF 5
ENDMDL