MODEL 5
REMARK VINA RESULT: -6.166927982      1.499      1.798
REMARK  7 active torsions:
REMARK  status: ('A' for Active; 'I' for Inactive)
REMARK    1  A    between atoms: C2_2  and  C3_3
REMARK    2  A    between atoms: C3_3  and  C4_4
REMARK    3  A    between atoms: C4_4  and  C5_5
REMARK    4  A    between atoms: C4_4  and  N1_7
REMARK    5  A    between atoms: N1_7  and  C7_9
REMARK    6  A    between atoms: C8_12  and  S1_13
REMARK    7  A    between atoms: S1_13  and  N3_15
ROOT
HETATM    1  C7  UNL     1      27.923  74.327  10.556  1.00  0.00     0.695 A
HETATM    2  N2  UNL     1      28.628  73.947   9.471  1.00  0.00    -0.165 N
ATOM      3  H2  UNL     1      28.855  74.538   8.672  1.00  0.00     0.186 HD
HETATM    4  C8  UNL     1      28.984  72.651   9.620  1.00  0.00     0.210 A
HETATM    5  N4  UNL     1      28.484  72.259  10.802  1.00  0.00    -0.263 N
ATOM      6  H4  UNL     1      28.580  71.328  11.207  1.00  0.00     0.189 HD
HETATM    7  N5  UNL     1      27.845  73.281  11.359  1.00  0.00    -0.130 N
ATOM      8  H5  UNL     1      27.370  73.262  12.262  1.00  0.00     0.205 HD
ENDROOT
BRANCH   1   9
HETATM    9  N1  UNL     1      27.445  75.490  10.723  1.00  0.00    -0.220 N
ATOM     10  H1  UNL     1      27.153  75.958   9.865  1.00  0.00     0.178 HD
BRANCH   9  11
HETATM   11  C4  UNL     1      27.252  76.242  11.898  1.00  0.00     0.099 C
BRANCH  11  12
HETATM   12  C3  UNL     1      28.381  76.271  12.877  1.00  0.00     0.025 C
BRANCH  12  13
HETATM   13  C2  UNL     1      27.918  76.231  14.314  1.00  0.00    -0.002 C
HETATM   14  C1  UNL     1      27.243  74.887  14.522  1.00  0.00     0.005 C
ENDBRANCH  12  13
ENDBRANCH  11  12
BRANCH  11  15
HETATM   15  C5  UNL     1      26.777  77.669  11.677  1.00  0.00     0.021 C
HETATM   16  C6  UNL     1      26.410  77.856  10.199  1.00  0.00     0.007 C
ENDBRANCH  11  15
ENDBRANCH   9  11
ENDBRANCH   1   9
BRANCH   4  17
HETATM   17  S1  UNL     1      29.903  71.648   8.522  1.00  0.00     0.080 S
HETATM   18  C9  UNL     1      28.855  70.819   7.361  1.00  0.00     0.145 C
HETATM   19  O1  UNL     1      30.888  72.554   7.829  1.00  0.00    -0.242 OA
BRANCH  17  20
HETATM   20  N3  UNL     1      30.739  70.655   9.372  1.00  0.00    -0.354 N
ATOM     21  H32 UNL     1      31.088  69.753   9.049  1.00  0.00     0.166 HD
ATOM     22  H31 UNL     1      30.871  71.067  10.295  1.00  0.00     0.166 HD
ENDBRANCH  17  20
ENDBRANCH   4  17
TORSDOF 7
ENDMDL