MODEL 2
REMARK VINA RESULT: -4.460402781      6.392      6.898
REMARK  1 active torsions:
REMARK  status: ('A' for Active; 'I' for Inactive)
REMARK    1  A    between atoms: C1_2  and  C2_4
ROOT
HETATM    1  C2  UNL     1      -1.830   2.964  42.206  1.00  0.00     0.150 C
HETATM    2  S2  UNL     1      -2.933   3.387  40.831  1.00  0.00    -0.126 SA
HETATM    3  C3  UNL     1      -1.887   4.117  39.546  1.00  0.00     0.249 C
HETATM    4  O1  UNL     1      -0.545   4.005  39.994  1.00  0.00    -0.352 OA
HETATM    5  C4  UNL     1      -0.066   2.829  40.577  1.00  0.00     0.152 C
HETATM    6  C5  UNL     1      -0.648   2.295  41.635  1.00  0.00     0.030 C
HETATM    7 BR1  UNL     1      -0.032   0.695  42.436  1.00  0.00    -0.052 Br
ENDROOT
BRANCH   1   8
HETATM    8  C1  UNL     1      -2.516   2.144  43.223  1.00  0.00     0.109 C
HETATM    9  N1  UNL     1      -1.980   2.084  44.525  1.00  0.00    -0.093 NA
HETATM   10  S1  UNL     1      -3.868   1.345  42.779  1.00  0.00    -0.067 SA
ENDBRANCH   1   8
TORSDOF 1
ENDMDL