MODEL 3
REMARK VINA RESULT: -5.540025481      2.857      3.801
REMARK  3 active torsions:
REMARK  status: ('A' for Active; 'I' for Inactive)
REMARK    1  A    between atoms: C3_3  and  C4_4
REMARK    2  A    between atoms: N1_7  and  O1_8
REMARK    3  A    between atoms: N2_12  and  N3_13
ROOT
HETATM    1  C1  UNL     1       0.883  -3.403  39.817  1.00  0.00     0.073 C
HETATM    2  C2  UNL     1       1.757  -3.069  40.963  1.00  0.00     0.060 A
HETATM    3  C3  UNL     1       1.389  -2.401  42.153  1.00  0.00     0.089 A
HETATM    4  N1  UNL     1       2.519  -2.346  42.858  1.00  0.00    -0.209 N
HETATM    5  C6  UNL     1       3.555  -2.936  42.179  1.00  0.00     0.127 A
HETATM    6  C7  UNL     1       4.969  -3.064  42.655  1.00  0.00     0.093 C
HETATM    7  N2  UNL     1       3.061  -3.369  41.023  1.00  0.00    -0.251 N
ENDROOT
BRANCH   3   8
HETATM    8  C4  UNL     1       0.041  -1.960  42.358  1.00  0.00     0.041 C
HETATM    9  C5  UNL     1      -0.517  -0.829  42.643  1.00  0.00     0.058 C
HETATM   10 BR1  UNL     1       0.367   0.811  42.914  1.00  0.00    -0.064 Br
ENDBRANCH   3   8
BRANCH   4  11
HETATM   11  O1  UNL     1       2.706  -1.796  44.094  1.00  0.00    -0.281 OA
ATOM     12  H1  UNL     1       2.584  -0.890  44.352  1.00  0.00     0.245 HD
ENDBRANCH   4  11
BRANCH   7  13
HETATM   13  N3  UNL     1       3.803  -4.043  40.018  1.00  0.00    -0.337 N
ATOM     14  H32 UNL     1       3.674  -3.924  39.013  1.00  0.00     0.177 HD
ATOM     15  H31 UNL     1       4.548  -4.720  40.181  1.00  0.00     0.177 HD
ENDBRANCH   7  13
TORSDOF 3
ENDMDL