MODEL 5
REMARK VINA RESULT: -2.875991769      6.458      7.400
REMARK  2 active torsions:
REMARK  status: ('A' for Active; 'I' for Inactive)
REMARK    1  A    between atoms: N2_5  and  C4_6
REMARK    2  A    between atoms: C10_13  and  O1_14
ROOT
HETATM    1  C4  UNL     1       2.035  -3.045  41.229  1.00  0.00     0.253 C
HETATM    2  C5  UNL     1       2.951  -1.814  41.315  1.00  0.00     0.059 C
HETATM    3  C6  UNL     1       2.790  -1.530  42.815  1.00  0.00     0.094 C
HETATM    4 CL1  UNL     1       3.709  -2.833  43.633  1.00  0.00    -0.124 Cl
HETATM    5  C7  UNL     1       1.310  -1.686  43.005  1.00  0.00    -0.003 C
HETATM    6  C8  UNL     1       0.702  -0.301  43.022  1.00  0.00     0.019 C
HETATM    7  C9  UNL     1       0.985  -2.393  44.310  1.00  0.00     0.019 C
HETATM    8  C10 UNL     1       0.774  -2.477  41.832  1.00  0.00     0.161 C
ENDROOT
BRANCH   1   9
HETATM    9  N2  UNL     1       1.909  -3.473  39.882  1.00  0.00     0.099 N
HETATM   10  C3  UNL     1       0.937  -4.509  39.749  1.00  0.00     0.303 C
HETATM   11  C2  UNL     1       1.434  -5.882  40.076  1.00  0.00     0.302 C
HETATM   12  N1  UNL     1       2.724  -6.166  39.479  1.00  0.00     0.087 N
HETATM   13  C1  UNL     1       3.237  -7.428  39.900  1.00  0.00     0.310 C
HETATM   14  C12 UNL     1       3.632  -5.123  39.961  1.00  0.00     0.302 C
HETATM   15  C11 UNL     1       3.158  -3.840  39.294  1.00  0.00     0.303 C
ENDBRANCH   1   9
BRANCH   8  16
HETATM   16  O1  UNL     1       0.028  -1.721  40.957  1.00  0.00    -0.393 OA
ATOM     17  H1  UNL     1      -0.829  -1.483  41.288  1.00  0.00     0.210 HD
ENDBRANCH   8  16
TORSDOF 2
ENDMDL