MODEL 1
REMARK VINA RESULT: -4.839692360      0.000      0.000
REMARK  2 active torsions:
REMARK  status: ('A' for Active; 'I' for Inactive)
REMARK    1  A    between atoms: C2_2  and  C3_3
REMARK    2  A    between atoms: C6_8  and  C7_9
ROOT
HETATM    1  C1  UNL     1       8.973  -2.007  48.054  1.00  0.00     0.038 C
HETATM    2  C2  UNL     1       8.021  -1.625  46.979  1.00  0.00     0.095 C
HETATM    3  S1  UNL     1       6.606  -2.801  46.854  1.00  0.00    -0.121 SA
HETATM    4  C4  UNL     1       6.576  -2.794  45.026  1.00  0.00     0.094 A
HETATM    5  C5  UNL     1       5.747  -1.679  44.415  1.00  0.00     0.047 C
HETATM    6  C6  UNL     1       7.190  -3.741  44.182  1.00  0.00     0.201 A
HETATM    7  N1  UNL     1       8.023  -2.746  44.853  1.00  0.00    -0.214 NA
HETATM    8  C8  UNL     1       8.588  -1.701  45.611  1.00  0.00     0.221 C
HETATM    9  O3  UNL     1       9.465  -0.915  45.205  1.00  0.00    -0.278 OA
ENDROOT
BRANCH   2  10
HETATM   10  C3  UNL     1       7.468  -0.216  47.177  1.00  0.00     0.144 C
HETATM   11 CL1  UNL     1       5.790  -0.306  47.761  1.00  0.00    -0.128 Cl
ENDBRANCH   2  10
BRANCH   6  12
HETATM   12  C7  UNL     1       7.340  -5.159  44.612  1.00  0.00     0.194 C
HETATM   13  O1  UNL     1       6.339  -5.699  45.146  1.00  0.00    -0.647 OA
HETATM   14  O2  UNL     1       8.525  -5.864  44.439  1.00  0.00    -0.647 OA
ENDBRANCH   6  12
TORSDOF 2
ENDMDL