MODEL 5
REMARK VINA RESULT: -5.175149545      2.745      4.944
REMARK  4 active torsions:
REMARK  status: ('A' for Active; 'I' for Inactive)
REMARK    1  A    between atoms: C2_2  and  C3_3
REMARK    2  A    between atoms: C3_3  and  N1_6
REMARK    3  A    between atoms: N1_6  and  C5_8
REMARK    4  A    between atoms: C5_8  and  N2_10
ROOT
HETATM    1  C5  UNL     1       2.240  -2.704  42.107  1.00  0.00     0.171 C
HETATM    2  S1  UNL     1       1.147  -1.606  42.626  1.00  0.00    -0.041 SA
ENDROOT
BRANCH   1   3
HETATM    3  N1  UNL     1       1.927  -3.844  41.332  1.00  0.00    -0.345 N
ATOM      4  H1  UNL     1       1.883  -4.727  41.841  1.00  0.00     0.163 HD
BRANCH   3   5
HETATM    5  C3  UNL     1       1.668  -3.923  39.946  1.00  0.00     0.105 C
HETATM    6  C4  UNL     1       0.432  -3.210  39.476  1.00  0.00     0.056 C
HETATM    7 CL1  UNL     1       3.024  -3.274  38.961  1.00  0.00    -0.096 Cl
BRANCH   5   8
HETATM    8  C2  UNL     1       1.532  -5.371  39.530  1.00  0.00     0.043 C
HETATM    9  C1  UNL     1       2.775  -6.166  39.928  1.00  0.00     0.009 C
ENDBRANCH   5   8
ENDBRANCH   3   5
ENDBRANCH   1   3
BRANCH   1  10
HETATM   10  N2  UNL     1       3.588  -2.428  42.491  1.00  0.00    -0.354 N
HETATM   11  C6  UNL     1       4.576  -3.460  42.291  1.00  0.00     0.151 C
HETATM   12  C7  UNL     1       5.955  -3.087  42.623  1.00  0.00     0.187 C
HETATM   13  O1  UNL     1       6.155  -2.041  43.461  1.00  0.00    -0.388 OA
HETATM   14  C8  UNL     1       5.060  -1.579  44.138  1.00  0.00     0.187 C
HETATM   15  C9  UNL     1       4.034  -1.190  43.062  1.00  0.00     0.151 C
ENDBRANCH   1  10
TORSDOF 4
ENDMDL