MODEL 5
REMARK VINA RESULT: -2.973227779      2.381      3.915
REMARK  2 active torsions:
REMARK  status: ('A' for Active; 'I' for Inactive)
REMARK    1  A    between atoms: C4_5  and  C5_6
REMARK    2  A    between atoms: C11_14  and  O3_16
ROOT
HETATM    1  C1  UNL     1       6.385  -4.258  49.094  1.00  0.00     0.047 C
HETATM    2  C2  UNL     1       6.026  -3.038  48.768  1.00  0.00     0.049 C
HETATM    3  O1  UNL     1       5.144  -2.387  49.604  1.00  0.00    -0.355 OA
HETATM    4  C3  UNL     1       4.724  -1.064  49.457  1.00  0.00     0.187 C
HETATM    5  C4  UNL     1       4.929  -0.462  48.092  1.00  0.00     0.077 C
HETATM    6  C6  UNL     1       5.650  -1.229  47.105  1.00  0.00     0.025 C
HETATM    7  C7  UNL     1       6.972  -0.801  46.556  1.00  0.00     0.045 C
HETATM    8  C8  UNL     1       7.164  -1.890  45.478  1.00  0.00     0.091 C
HETATM    9 CL1  UNL     1       6.072  -1.645  44.126  1.00  0.00    -0.124 Cl
HETATM   10  C9  UNL     1       6.705  -3.096  46.318  1.00  0.00     0.040 C
HETATM   11  C10 UNL     1       6.511  -2.400  47.613  1.00  0.00     0.045 C
HETATM   12  C11 UNL     1       7.695  -1.475  47.682  1.00  0.00     0.074 C
HETATM   13  C12 UNL     1       9.020  -2.008  47.259  1.00  0.00     0.047 C
ENDROOT
BRANCH  12  14
HETATM   14  O3  UNL     1       7.859  -0.768  48.852  1.00  0.00    -0.389 OA
ATOM     15  H3  UNL     1       8.720  -0.771  49.253  1.00  0.00     0.210 HD
ENDBRANCH  12  14
BRANCH   5  16
HETATM   16  C5  UNL     1       5.381   0.976  48.240  1.00  0.00     0.238 C
HETATM   17  O2  UNL     1       5.926   1.386  49.238  1.00  0.00    -0.306 OA
ENDBRANCH   5  16
TORSDOF 2
ENDMDL