MODEL 2
REMARK VINA RESULT: -5.699949902      6.067      7.422
REMARK  1 active torsions:
REMARK  status: ('A' for Active; 'I' for Inactive)
REMARK    1  A    between atoms: C2_2  and  C3_4
ROOT
HETATM    1  C3  UNL     1      -1.004   2.842  41.158  1.00  0.00    -0.057 C
HETATM    2  C4  UNL     1      -0.003   2.237  41.780  1.00  0.00    -0.014 C
HETATM    3  C5  UNL     1      -0.611   1.368  42.846  1.00  0.00     0.054 A
HETATM    4  C6  UNL     1      -1.594   2.086  43.663  1.00  0.00     0.055 A
HETATM    5  C7  UNL     1      -2.675   2.971  43.082  1.00  0.00     0.155 C
HETATM    6  C8  UNL     1      -2.306   2.444  41.711  1.00  0.00     0.074 C
HETATM    7  C9  UNL     1      -1.951   1.178  42.430  1.00  0.00     0.102 A
HETATM    8  O1  UNL     1      -2.997   0.509  42.862  1.00  0.00    -0.262 OA
HETATM    9  S1  UNL     1      -4.248   1.995  43.440  1.00  0.00     0.271 S
HETATM   10  O2  UNL     1      -4.765   2.716  44.562  1.00  0.00    -0.198 OA
HETATM   11  O3  UNL     1      -5.347   1.243  42.700  1.00  0.00    -0.198 OA
ENDROOT
BRANCH   1  12
HETATM   12  C2  UNL     1      -0.837   3.800  40.030  1.00  0.00     0.107 C
HETATM   13  C1  UNL     1      -2.087   4.648  39.852  1.00  0.00     0.031 C
HETATM   14 CL1  UNL     1      -0.596   2.911  38.497  1.00  0.00    -0.121 Cl
ENDBRANCH   1  12
TORSDOF 1
ENDMDL