MODEL 2
REMARK VINA RESULT: -5.594306153      3.663      5.872
REMARK  3 active torsions:
REMARK  status: ('A' for Active; 'I' for Inactive)
REMARK    1  A    between atoms: C3_5  and  C5_7
REMARK    2  A    between atoms: C6_8  and  C7_9
REMARK    3  A    between atoms: C7_9  and  C8_10
ROOT
HETATM    1  C1  UNL     1      -1.487   1.468  42.805  1.00  0.00     0.162 C
HETATM    2  N1  UNL     1      -0.421   0.479  42.853  1.00  0.00    -0.293 N
HETATM    3  C2  UNL     1      -0.616  -0.925  42.929  1.00  0.00     0.266 A
HETATM    4  O1  UNL     1      -1.722  -1.495  42.966  1.00  0.00    -0.269 OA
HETATM    5  C3  UNL     1       0.746  -1.522  42.954  1.00  0.00     0.174 A
HETATM    6  C4  UNL     1       1.003  -2.303  44.216  1.00  0.00     0.064 C
HETATM    7  N2  UNL     1       1.622  -0.376  42.887  1.00  0.00    -0.337 N
ATOM      8  H2  UNL     1       2.640  -0.439  42.885  1.00  0.00     0.164 HD
HETATM    9  C9  UNL     1       0.981   0.721  42.832  1.00  0.00     0.194 A
HETATM   10  N3  UNL     1       1.559   2.004  42.760  1.00  0.00    -0.063 NA
ENDROOT
BRANCH   5  11
HETATM   11  C5  UNL     1       0.864  -2.368  41.752  1.00  0.00    -0.065 C
HETATM   12  C6  UNL     1       0.950  -3.078  40.777  1.00  0.00    -0.101 C
BRANCH  12  13
HETATM   13  C7  UNL     1       1.036  -3.952  39.607  1.00  0.00     0.130 C
BRANCH  13  14
HETATM   14  C8  UNL     1       2.381  -4.689  39.584  1.00  0.00     0.189 C
HETATM   15 CL1  UNL     1       3.315  -4.149  40.993  1.00  0.00    -0.107 Cl
HETATM   16 CL2  UNL     1       2.119  -6.424  39.559  1.00  0.00    -0.107 Cl
ENDBRANCH  13  14
ENDBRANCH  12  13
ENDBRANCH   5  11
TORSDOF 3
ENDMDL