MODEL 5
REMARK VINA RESULT: -6.734444738      4.588      6.541
REMARK  10 active torsions:
REMARK  status: ('A' for Active; 'I' for Inactive)
REMARK    1  A    between atoms: O1_2  and  C2_3
REMARK    2  A    between atoms: C4_5  and  O2_6
REMARK    3  A    between atoms: O2_6  and  C5_7
REMARK    4  A    between atoms: C5_7  and  C6_8
REMARK    5  A    between atoms: C8_10  and  O3_11
REMARK    6  A    between atoms: O3_11  and  C9_12
REMARK    7  A    between atoms: C11_14  and  N1_15
REMARK    8  A    between atoms: C13_20  and  N2_21
REMARK    9  A    between atoms: C15_27  and  C16_28
REMARK   10  A    between atoms: C17_34  and  O4_35
ROOT
HETATM    1  C6  UNL     1     -27.061  -8.963  78.169  1.00  0.00     0.010 A
HETATM    2  C7  UNL     1     -26.579  -9.265  76.924  1.00  0.00     0.054 A
HETATM    3  C8  UNL     1     -27.269  -8.776  75.862  1.00  0.00     0.089 A
HETATM    4  C15 UNL     1     -28.382  -8.026  76.151  1.00  0.00     0.080 A
HETATM    5  S1  UNL     1     -28.440  -8.020  77.849  1.00  0.00    -0.088 SA
ENDROOT
BRANCH   3   6
HETATM    6  O3  UNL     1     -26.915  -8.989  74.500  1.00  0.00    -0.342 OA
BRANCH   6   7
HETATM    7  C9  UNL     1     -26.764 -10.274  73.974  1.00  0.00     0.166 C
HETATM    8  C10 UNL     1     -26.141 -10.089  72.594  1.00  0.00     0.068 C
HETATM    9  C11 UNL     1     -27.137  -9.355  71.736  1.00  0.00     0.188 C
HETATM   10  C12 UNL     1     -28.355 -10.210  71.466  1.00  0.00     0.068 C
HETATM   11  C13 UNL     1     -28.516 -11.304  72.487  1.00  0.00     0.221 C
HETATM   12  C14 UNL     1     -28.136 -10.905  73.872  1.00  0.00     0.229 C
HETATM   13  F1  UNL     1     -28.211 -12.027  74.674  1.00  0.00    -0.244 F
BRANCH   9  14
HETATM   14  N1  UNL     1     -26.554  -8.926  70.478  1.00  0.00    -0.075 N
ATOM     15  H13 UNL     1     -25.535  -8.914  70.526  1.00  0.00     0.274 HD
ATOM     16  H12 UNL     1     -26.673  -9.634  69.754  1.00  0.00     0.274 HD
ATOM     17  H11 UNL     1     -26.922  -8.023  70.178  1.00  0.00     0.274 HD
ENDBRANCH   9  14
BRANCH  11  18
HETATM   18  N2  UNL     1     -27.860 -12.533  72.117  1.00  0.00    -0.072 N
ATOM     19  H23 UNL     1     -27.544 -13.038  72.945  1.00  0.00     0.274 HD
ATOM     20  H22 UNL     1     -28.534 -13.207  71.755  1.00  0.00     0.274 HD
ATOM     21  H21 UNL     1     -27.091 -12.401  71.459  1.00  0.00     0.274 HD
ENDBRANCH  11  18
ENDBRANCH   6   7
ENDBRANCH   3   6
BRANCH   4  22
HETATM   22  C16 UNL     1     -29.325  -7.366  75.165  1.00  0.00     0.396 C
HETATM   23  F2  UNL     1     -30.340  -6.802  75.920  1.00  0.00    -0.208 F
HETATM   24  F3  UNL     1     -29.895  -8.378  74.414  1.00  0.00    -0.208 F
ENDBRANCH   4  22
BRANCH   1  25
HETATM   25  C5  UNL     1     -26.489  -9.392  79.504  1.00  0.00     0.223 C
BRANCH  25  26
HETATM   26  O2  UNL     1     -27.528  -9.231  80.443  1.00  0.00    -0.330 OA
BRANCH  26  27
HETATM   27  C4  UNL     1     -28.288 -10.332  80.786  1.00  0.00     0.149 A
HETATM   28  C3  UNL     1     -29.655 -10.228  80.936  1.00  0.00     0.112 A
HETATM   29  C2  UNL     1     -30.363 -11.364  81.277  1.00  0.00     0.148 A
HETATM   30  N4  UNL     1     -29.729 -12.537  81.456  1.00  0.00    -0.302 N
HETATM   31  C17 UNL     1     -28.378 -12.642  81.308  1.00  0.00     0.227 A
ATOM     32  H4  UNL     1     -30.270 -13.364  81.707  1.00  0.00     0.171 HD
HETATM   33  N3  UNL     1     -27.724 -11.531  80.978  1.00  0.00    -0.302 N
ATOM     34  H3  UNL     1     -26.713 -11.597  80.864  1.00  0.00     0.171 HD
BRANCH  29  35
HETATM   35  O1  UNL     1     -31.734 -11.253  81.427  1.00  0.00    -0.341 OA
HETATM   36  C1  UNL     1     -32.499 -10.617  80.447  1.00  0.00     0.211 C
ENDBRANCH  29  35
BRANCH  31  37
HETATM   37  O4  UNL     1     -27.743 -13.879  81.500  1.00  0.00    -0.327 OA
HETATM   38  C18 UNL     1     -28.313 -14.740  82.467  1.00  0.00     0.213 C
ENDBRANCH  31  37
ENDBRANCH  26  27
ENDBRANCH  25  26
ENDBRANCH   1  25
TORSDOF 10
ENDMDL