MODEL 2
REMARK VINA RESULT: -6.411079872      3.858      6.984
REMARK  10 active torsions:
REMARK  status: ('A' for Active; 'I' for Inactive)
REMARK    1  A    between atoms: C4_5  and  C5_6
REMARK    2  A    between atoms: C5_6  and  O1_7
REMARK    3  A    between atoms: O1_7  and  C6_8
REMARK    4  A    between atoms: C6_8  and  C7_9
REMARK    5  A    between atoms: C10_12  and  N1_13
REMARK    6  A    between atoms: N1_13  and  C11_15
REMARK    7  A    between atoms: C12_22  and  S2_23
REMARK    8  A    between atoms: S2_23  and  C13_24
REMARK    9  A    between atoms: C13_24  and  C14_25
REMARK   10  A    between atoms: C15_31  and  O2_32
ROOT
HETATM    1  N1  UNL     1     -28.181  -6.619  75.713  1.00  0.00    -0.218 N
ATOM      2  H1  UNL     1     -28.187  -5.600  75.672  1.00  0.00     0.178 HD
ENDROOT
BRANCH   1   3
HETATM    3  C10 UNL     1     -27.489  -7.238  76.804  1.00  0.00     0.128 C
HETATM    4  C9  UNL     1     -27.784  -8.744  76.706  1.00  0.00     0.029 C
HETATM    5  C8  UNL     1     -26.656  -9.358  77.523  1.00  0.00     0.011 C
HETATM    6  C7  UNL     1     -25.509  -8.419  77.412  1.00  0.00     0.040 C
HETATM    7  C15 UNL     1     -25.990  -7.210  76.674  1.00  0.00     0.147 C
BRANCH   6   8
HETATM    8  C6  UNL     1     -24.951  -7.968  78.771  1.00  0.00     0.175 C
BRANCH   8   9
HETATM    9  O1  UNL     1     -23.859  -8.399  79.239  1.00  0.00    -0.384 OA
BRANCH   9  10
HETATM   10  C5  UNL     1     -22.714  -8.185  79.738  1.00  0.00     0.232 C
BRANCH  10  11
HETATM   11  C4  UNL     1     -21.598  -7.996  78.742  1.00  0.00     0.075 A
HETATM   12  S1  UNL     1     -20.815  -6.533  78.301  1.00  0.00    -0.085 SA
HETATM   13  C3  UNL     1     -19.694  -7.170  77.179  1.00  0.00     0.076 A
HETATM   14  C2  UNL     1     -20.003  -8.507  77.216  1.00  0.00     0.012 A
HETATM   15  C1  UNL     1     -19.227  -9.479  76.344  1.00  0.00     0.068 C
HETATM   16  N6  UNL     1     -20.952  -8.886  78.001  1.00  0.00    -0.355 N
ATOM     17  H6  UNL     1     -21.207  -9.872  78.054  1.00  0.00     0.166 HD
ENDBRANCH  10  11
ENDBRANCH   9  10
ENDBRANCH   8   9
ENDBRANCH   6   8
BRANCH   7  18
HETATM   18  O2  UNL     1     -25.698  -7.345  75.312  1.00  0.00    -0.393 OA
ATOM     19  H2  UNL     1     -26.484  -7.590  74.839  1.00  0.00     0.210 HD
ENDBRANCH   7  18
ENDBRANCH   1   3
BRANCH   1  20
HETATM   20  C11 UNL     1     -28.800  -7.267  74.773  1.00  0.00     0.696 A
HETATM   21  N2  UNL     1     -30.141  -7.391  74.731  1.00  0.00    -0.118 N
HETATM   22  N3  UNL     1     -30.757  -8.053  73.769  1.00  0.00    -0.226 N
ATOM     23  H2  UNL     1     -30.699  -6.958  75.468  1.00  0.00     0.207 HD
HETATM   24  N4  UNL     1     -30.064  -8.624  72.798  1.00  0.00    -0.264 N
ATOM     25  H3  UNL     1     -31.775  -8.124  73.774  1.00  0.00     0.209 HD
HETATM   26  C12 UNL     1     -28.713  -8.527  72.794  1.00  0.00     0.175 A
ATOM     27  H4  UNL     1     -30.544  -9.134  72.057  1.00  0.00     0.190 HD
HETATM   28  N5  UNL     1     -28.086  -7.842  73.792  1.00  0.00    -0.168 N
ATOM     29  H5  UNL     1     -27.069  -7.766  73.793  1.00  0.00     0.186 HD
BRANCH  26  30
HETATM   30  S2  UNL     1     -27.801  -9.294  71.477  1.00  0.00    -0.083 SA
BRANCH  30  31
HETATM   31  C13 UNL     1     -26.103  -9.683  71.904  1.00  0.00     0.199 C
BRANCH  31  32
HETATM   32  C14 UNL     1     -26.024 -10.772  72.949  1.00  0.00     0.396 C
HETATM   33  F1  UNL     1     -24.930 -11.573  72.833  1.00  0.00    -0.170 F
HETATM   34  F2  UNL     1     -27.144 -11.592  72.790  1.00  0.00    -0.170 F
HETATM   35  F3  UNL     1     -26.098 -10.222  74.217  1.00  0.00    -0.170 F
ENDBRANCH  31  32
ENDBRANCH  30  31
ENDBRANCH  26  30
ENDBRANCH   1  20
TORSDOF 10
ENDMDL