MODEL 3
REMARK VINA RESULT: -6.259410632      2.617      4.242
REMARK  7 active torsions:
REMARK  status: ('A' for Active; 'I' for Inactive)
REMARK    1  A    between atoms: O1_2  and  C2_3
REMARK    2  A    between atoms: C4_5  and  C5_6
REMARK    3  A    between atoms: C10_11  and  O2_12
REMARK    4  A    between atoms: O2_12  and  C11_13
REMARK    5  A    between atoms: C12_17  and  O3_18
REMARK    6  A    between atoms: C16_33  and  O4_34
REMARK    7  A    between atoms: C18_36  and  O5_37
ROOT
HETATM    1  C5  UNL     1     -26.813  -5.749  77.572  1.00  0.00     0.050 A
HETATM    2  C6  UNL     1     -26.011  -6.698  76.982  1.00  0.00     0.091 A
HETATM    3  C7  UNL     1     -26.629  -7.708  76.149  1.00  0.00     0.063 A
HETATM    4  C8  UNL     1     -26.456  -9.032  76.485  1.00  0.00     0.035 A
HETATM    5  C9  UNL     1     -26.996 -10.078  75.757  1.00  0.00     0.044 A
HETATM    6  C10 UNL     1     -27.744  -9.760  74.638  1.00  0.00     0.129 A
HETATM    7  C12 UNL     1     -27.911  -8.411  74.309  1.00  0.00     0.177 A
HETATM    8  N1  UNL     1     -27.366  -7.445  75.051  1.00  0.00    -0.333 N
ATOM      9  H1  UNL     1     -27.512  -6.473  74.778  1.00  0.00     0.168 HD
HETATM   10  N2  UNL     1     -24.687  -6.634  77.206  1.00  0.00    -0.283 N
ATOM     11  H2  UNL     1     -24.078  -7.330  76.775  1.00  0.00     0.188 HD
HETATM   12  N3  UNL     1     -24.146  -5.691  77.973  1.00  0.00    -0.241 N
ATOM     13  H3  UNL     1     -23.137  -5.674  78.123  1.00  0.00     0.208 HD
HETATM   14  N4  UNL     1     -24.912  -4.778  78.542  1.00  0.00    -0.271 N
ATOM     15  H4  UNL     1     -24.475  -4.065  79.126  1.00  0.00     0.190 HD
HETATM   16  C14 UNL     1     -26.259  -4.755  78.379  1.00  0.00     0.128 A
HETATM   17  N5  UNL     1     -26.995  -3.865  78.944  1.00  0.00    -0.384 N
ATOM     18  H51 UNL     1     -26.589  -3.139  79.534  1.00  0.00     0.157 HD
ATOM     19  H52 UNL     1     -28.007  -3.848  78.821  1.00  0.00     0.157 HD
ENDROOT
BRANCH   1  20
HETATM   20  C4  UNL     1     -28.245  -5.822  77.334  1.00  0.00    -0.014 A
HETATM   21  C3  UNL     1     -29.089  -6.640  78.037  1.00  0.00     0.052 A
HETATM   22  C2  UNL     1     -30.452  -6.653  77.733  1.00  0.00     0.105 A
HETATM   23  C18 UNL     1     -30.975  -5.860  76.739  1.00  0.00     0.135 A
HETATM   24  C16 UNL     1     -30.128  -5.027  76.019  1.00  0.00     0.105 A
HETATM   25  C15 UNL     1     -28.789  -5.023  76.326  1.00  0.00     0.052 A
BRANCH  22  26
HETATM   26  O1  UNL     1     -31.292  -7.480  78.447  1.00  0.00    -0.353 OA
HETATM   27  C1  UNL     1     -31.058  -8.012  79.712  1.00  0.00     0.210 C
ENDBRANCH  22  26
BRANCH  23  28
HETATM   28  O5  UNL     1     -32.331  -5.929  76.500  1.00  0.00    -0.351 OA
HETATM   29  C19 UNL     1     -32.910  -6.755  75.511  1.00  0.00     0.210 C
ENDBRANCH  23  28
BRANCH  24  30
HETATM   30  O4  UNL     1     -30.669  -4.248  75.033  1.00  0.00    -0.353 OA
HETATM   31  C17 UNL     1     -30.545  -4.372  73.657  1.00  0.00     0.210 C
ENDBRANCH  24  30
ENDBRANCH   1  20
BRANCH   7  32
HETATM   32  O3  UNL     1     -28.655  -8.117  73.194  1.00  0.00    -0.339 OA
HETATM   33  C13 UNL     1     -30.039  -8.007  73.103  1.00  0.00     0.211 C
ENDBRANCH   7  32
BRANCH   6  34
HETATM   34  O2  UNL     1     -28.321 -10.737  73.848  1.00  0.00    -0.251 OA
BRANCH  34  35
HETATM   35  C11 UNL     1     -27.751 -11.318  72.722  1.00  0.00     0.530 C
HETATM   36  F1  UNL     1     -28.280 -10.749  71.574  1.00  0.00    -0.144 F
HETATM   37  F2  UNL     1     -27.961 -12.690  72.659  1.00  0.00    -0.144 F
HETATM   38  F3  UNL     1     -26.364 -11.144  72.776  1.00  0.00    -0.144 F
ENDBRANCH  34  35
ENDBRANCH   6  34
TORSDOF 7
ENDMDL