MODEL 5
REMARK VINA RESULT: -5.860500533      1.705      2.494
REMARK  12 active torsions:
REMARK  status: ('A' for Active; 'I' for Inactive)
REMARK    1  A    between atoms: C2_2  and  O1_3
REMARK    2  A    between atoms: O1_3  and  C3_4
REMARK    3  A    between atoms: C3_4  and  N1_5
REMARK    4  A    between atoms: C3_4  and  C8_15
REMARK    5  A    between atoms: N1_5  and  N2_6
REMARK    6  A    between atoms: N2_6  and  C5_8
REMARK    7  A    between atoms: C8_15  and  O2_16
REMARK    8  A    between atoms: C8_15  and  C9_18
REMARK    9  A    between atoms: C8_15  and  C18_30
REMARK   10  A    between atoms: C11_20  and  O3_21
REMARK   11  A    between atoms: C13_23  and  O4_24
REMARK   12  A    between atoms: C15_26  and  O5_27
ROOT
HETATM    1  C8  UNL     1     -26.663  -8.739  74.973  1.00  0.00     0.264 C
ENDROOT
BRANCH   1   2
HETATM    2  C3  UNL     1     -27.995  -8.063  74.695  1.00  0.00     0.266 C
BRANCH   2   3
HETATM    3  O1  UNL     1     -29.008  -8.891  74.227  1.00  0.00    -0.325 OA
BRANCH   3   4
HETATM    4  C2  UNL     1     -29.810  -8.657  73.108  1.00  0.00     0.173 C
HETATM    5  C1  UNL     1     -29.480  -9.647  72.038  1.00  0.00     0.034 C
ENDBRANCH   3   4
ENDBRANCH   2   3
BRANCH   2   6
HETATM    6  N1  UNL     1     -28.247  -6.906  74.837  1.00  0.00    -0.296 NA
BRANCH   6   7
HETATM    7  N2  UNL     1     -28.510  -5.660  75.028  1.00  0.00    -0.198 N
HETATM    8  C4  UNL     1     -27.680  -4.811  75.903  1.00  0.00     0.197 C
BRANCH   7   9
HETATM    9  C5  UNL     1     -29.618  -4.945  74.432  1.00  0.00     0.202 A
HETATM   10  N3  UNL     1     -30.430  -5.458  73.589  1.00  0.00    -0.359 N
HETATM   11  C6  UNL     1     -31.433  -4.495  73.173  1.00  0.00     0.142 A
ATOM     12  H3  UNL     1     -30.380  -6.420  73.252  1.00  0.00     0.162 HD
HETATM   13  C7  UNL     1     -31.124  -3.220  73.889  1.00  0.00     0.142 A
HETATM   14  N4  UNL     1     -29.960  -3.592  74.691  1.00  0.00    -0.359 N
ATOM     15  H4  UNL     1     -29.469  -2.975  75.337  1.00  0.00     0.162 HD
ENDBRANCH   7   9
ENDBRANCH   6   7
ENDBRANCH   2   6
ENDBRANCH   1   2
BRANCH   1  16
HETATM   16  O2  UNL     1     -25.631  -7.847  74.520  1.00  0.00    -0.368 OA
ATOM     17  H2  UNL     1     -24.807  -8.317  74.581  1.00  0.00     0.212 HD
ENDBRANCH   1  16
BRANCH   1  18
HETATM   18  C9  UNL     1     -26.386  -8.886  76.404  1.00  0.00    -0.000 A
HETATM   19  C10 UNL     1     -25.122  -8.682  76.890  1.00  0.00     0.050 A
HETATM   20  C11 UNL     1     -24.796  -8.765  78.253  1.00  0.00     0.104 A
HETATM   21  C13 UNL     1     -25.806  -9.069  79.129  1.00  0.00     0.135 A
HETATM   22  C15 UNL     1     -27.101  -9.279  78.636  1.00  0.00     0.104 A
HETATM   23  C17 UNL     1     -27.395  -9.190  77.292  1.00  0.00     0.050 A
BRANCH  20  24
HETATM   24  O3  UNL     1     -23.510  -8.554  78.728  1.00  0.00    -0.353 OA
HETATM   25  C12 UNL     1     -22.404  -8.280  77.927  1.00  0.00     0.210 C
ENDBRANCH  20  24
BRANCH  21  26
HETATM   26  O4  UNL     1     -25.623  -9.181  80.483  1.00  0.00    -0.351 OA
HETATM   27  C14 UNL     1     -25.247 -10.355  81.152  1.00  0.00     0.210 C
ENDBRANCH  21  26
BRANCH  22  28
HETATM   28  O5  UNL     1     -28.131  -9.586  79.508  1.00  0.00    -0.353 OA
HETATM   29  C16 UNL     1     -29.317  -8.849  79.476  1.00  0.00     0.210 C
ENDBRANCH  22  28
ENDBRANCH   1  18
BRANCH   1  30
HETATM   30  C18 UNL     1     -26.488  -9.942  74.115  1.00  0.00     0.431 C
HETATM   31  F1  UNL     1     -25.280 -10.590  74.253  1.00  0.00    -0.167 F
HETATM   32  F2  UNL     1     -26.514  -9.560  72.761  1.00  0.00    -0.167 F
HETATM   33  F3  UNL     1     -27.468 -10.922  74.326  1.00  0.00    -0.167 F
ENDBRANCH   1  30
TORSDOF 12
ENDMDL