MODEL 1
REMARK VINA RESULT: -7.737752870      0.000      0.000
REMARK  10 active torsions:
REMARK  status: ('A' for Active; 'I' for Inactive)
REMARK    1  A    between atoms: O1_1  and  C1_3
REMARK    2  A    between atoms: C1_3  and  C2_4
REMARK    3  A    between atoms: C2_4  and  C3_5
REMARK    4  A    between atoms: C5_7  and  C6_8
REMARK    5  A    between atoms: C8_10  and  N1_11
REMARK    6  A    between atoms: N1_11  and  C9_13
REMARK    7  A    between atoms: C9_13  and  C10_14
REMARK    8  A    between atoms: C10_14  and  C11_15
REMARK    9  A    between atoms: C12_18  and  C13_19
REMARK   10  A    between atoms: C17_29  and  C18_30
ROOT
HETATM    1  C6  UNL     1     -25.104  -8.908  76.986  1.00  0.00     0.073 A
HETATM    2  C7  UNL     1     -25.336  -9.507  75.774  1.00  0.00     0.081 A
HETATM    3  C8  UNL     1     -26.626  -9.731  75.251  1.00  0.00     0.108 A
HETATM    4  N4  UNL     1     -27.635  -9.311  76.033  1.00  0.00    -0.325 N
ATOM      5  H4  UNL     1     -28.591  -9.448  75.707  1.00  0.00     0.169 HD
HETATM    6  C17 UNL     1     -27.443  -8.724  77.219  1.00  0.00     0.192 A
HETATM    7  N5  UNL     1     -26.189  -8.528  77.680  1.00  0.00    -0.336 N
ATOM      8  H5  UNL     1     -26.060  -8.076  78.585  1.00  0.00     0.167 HD
ENDROOT
BRANCH   3   9
HETATM    9  N1  UNL     1     -26.765 -10.271  74.143  1.00  0.00    -0.355 N
ATOM     10  H1  UNL     1     -27.660 -10.760  74.109  1.00  0.00     0.166 HD
BRANCH   9  11
HETATM   11  C9  UNL     1     -26.102 -10.426  72.935  1.00  0.00     0.070 C
BRANCH  11  12
HETATM   12  C10 UNL     1     -26.847  -9.729  71.809  1.00  0.00     0.131 C
BRANCH  12  13
HETATM   13  C11 UNL     1     -28.068  -9.080  72.388  1.00  0.00     0.153 A
HETATM   14  N2  UNL     1     -28.220  -7.773  72.750  1.00  0.00    -0.321 N
HETATM   15  C12 UNL     1     -29.443  -7.553  73.230  1.00  0.00     0.162 A
ATOM     16  H2  UNL     1     -27.494  -7.061  72.665  1.00  0.00     0.169 HD
HETATM   17  N3  UNL     1     -30.064  -8.760  73.164  1.00  0.00    -0.241 N
HETATM   18  O3  UNL     1     -29.228  -9.641  72.661  1.00  0.00    -0.222 OA
ATOM     19  H3  UNL     1     -31.023  -8.951  73.456  1.00  0.00     0.196 HD
BRANCH  15  20
HETATM   20  C13 UNL     1     -30.057  -6.316  73.744  1.00  0.00     0.120 A
HETATM   21  C14 UNL     1     -31.180  -6.210  74.527  1.00  0.00     0.043 A
HETATM   22  C15 UNL     1     -31.396  -4.878  74.778  1.00  0.00     0.027 A
HETATM   23  C16 UNL     1     -30.368  -4.215  74.119  1.00  0.00     0.142 A
HETATM   24  O2  UNL     1     -29.626  -5.111  73.535  1.00  0.00    -0.319 OA
ENDBRANCH  15  20
ENDBRANCH  12  13
ENDBRANCH  11  12
ENDBRANCH   9  11
ENDBRANCH   3   9
BRANCH   1  25
HETATM   25  C5  UNL     1     -23.723  -8.713  77.455  1.00  0.00     0.127 A
HETATM   26  C4  UNL     1     -22.623  -8.572  76.656  1.00  0.00     0.068 A
HETATM   27  C3  UNL     1     -21.532  -8.425  77.478  1.00  0.00     0.037 A
HETATM   28  N6  UNL     1     -22.030  -8.482  78.728  1.00  0.00    -0.265 N
HETATM   29  O4  UNL     1     -23.326  -8.653  78.711  1.00  0.00    -0.236 OA
ATOM     30  H6  UNL     1     -21.469  -8.402  79.577  1.00  0.00     0.194 HD
BRANCH  27  31
HETATM   31  C2  UNL     1     -20.111  -8.270  77.083  1.00  0.00     0.085 C
BRANCH  31  32
HETATM   32  C1  UNL     1     -19.448  -9.625  76.871  1.00  0.00     0.170 C
BRANCH  32  33
HETATM   33  O1  UNL     1     -19.779 -10.485  77.934  1.00  0.00    -0.400 OA
ATOM     34  H1  UNL     1     -19.508 -11.371  77.725  1.00  0.00     0.209 HD
ENDBRANCH  32  33
ENDBRANCH  31  32
ENDBRANCH  27  31
ENDBRANCH   1  25
BRANCH   6  35
HETATM   35  C18 UNL     1     -28.608  -8.311  78.024  1.00  0.00     0.449 C
HETATM   36  F1  UNL     1     -28.258  -7.257  78.886  1.00  0.00    -0.163 F
HETATM   37  F2  UNL     1     -29.595  -7.814  77.200  1.00  0.00    -0.163 F
HETATM   38  F3  UNL     1     -29.099  -9.324  78.828  1.00  0.00    -0.163 F
ENDBRANCH   6  35
TORSDOF 10
ENDMDL