MODEL 3
REMARK VINA RESULT: -6.566639848      2.735      5.866
REMARK  10 active torsions:
REMARK  status: ('A' for Active; 'I' for Inactive)
REMARK    1  A    between atoms: O1_2  and  C2_3
REMARK    2  A    between atoms: C4_5  and  C5_6
REMARK    3  A    between atoms: C12_15  and  C13_16
REMARK    4  A    between atoms: N1_17  and  N2_19
REMARK    5  A    between atoms: N2_19  and  C14_21
REMARK    6  A    between atoms: C14_21  and  C15_22
REMARK    7  A    between atoms: C14_21  and  O4_27
REMARK    8  A    between atoms: C15_22  and  C16_23
REMARK    9  A    between atoms: O4_27  and  N3_28
REMARK   10  A    between atoms: C17_33  and  O5_34
ROOT
HETATM    1  C2  UNL     1     -31.954  -6.072  76.228  1.00  0.00     0.119 A
HETATM    2  C3  UNL     1     -30.580  -6.035  76.109  1.00  0.00     0.053 A
HETATM    3  C4  UNL     1     -29.912  -6.694  75.118  1.00  0.00     0.002 A
HETATM    4  C12 UNL     1     -30.647  -7.416  74.196  1.00  0.00     0.060 A
HETATM    5  N4  UNL     1     -31.983  -7.458  74.315  1.00  0.00    -0.333 N
ATOM      6  H4  UNL     1     -32.519  -8.001  73.638  1.00  0.00     0.168 HD
HETATM    7  C17 UNL     1     -32.646  -6.811  75.297  1.00  0.00     0.176 A
ENDROOT
BRANCH   4   8
HETATM    8  C13 UNL     1     -30.048  -8.064  73.050  1.00  0.00     0.137 C
HETATM    9  N1  UNL     1     -29.730  -9.316  73.077  1.00  0.00    -0.312 N
ATOM     10  H1  UNL     1     -29.890  -9.868  73.919  1.00  0.00     0.185 HD
BRANCH   9  11
HETATM   11  N2  UNL     1     -29.159  -9.914  71.932  1.00  0.00    -0.305 N
ATOM     12  H2  UNL     1     -29.770 -10.300  71.212  1.00  0.00     0.183 HD
BRANCH  11  13
HETATM   13  C14 UNL     1     -27.715  -9.991  71.760  1.00  0.00     0.273 C
BRANCH  13  14
HETATM   14  C15 UNL     1     -27.017  -9.315  72.902  1.00  0.00     0.174 C
BRANCH  14  15
HETATM   15  C16 UNL     1     -26.373 -10.364  73.839  1.00  0.00     0.392 C
HETATM   16  F1  UNL     1     -25.595  -9.825  74.799  1.00  0.00    -0.171 F
HETATM   17  F2  UNL     1     -27.456 -11.083  74.379  1.00  0.00    -0.171 F
HETATM   18  F3  UNL     1     -25.655 -11.175  72.968  1.00  0.00    -0.171 F
ENDBRANCH  14  15
ENDBRANCH  13  14
BRANCH  13  19
HETATM   19  O4  UNL     1     -27.442  -9.402  70.544  1.00  0.00    -0.260 OA
BRANCH  19  20
HETATM   20  N3  UNL     1     -26.350  -8.645  70.640  1.00  0.00    -0.309 N
ATOM     21  H32 UNL     1     -25.418  -8.941  70.349  1.00  0.00     0.184 HD
ATOM     22  H31 UNL     1     -26.589  -7.739  71.043  1.00  0.00     0.184 HD
ENDBRANCH  19  20
ENDBRANCH  13  19
ENDBRANCH  11  13
ENDBRANCH   9  11
ENDBRANCH   4   8
BRANCH   3  23
HETATM   23  C5  UNL     1     -28.441  -6.583  74.942  1.00  0.00     0.163 C
HETATM   24  O2  UNL     1     -28.065  -5.250  75.319  1.00  0.00    -0.380 OA
HETATM   25  C6  UNL     1     -26.770  -5.288  75.701  1.00  0.00     0.176 C
HETATM   26  C7  UNL     1     -26.333  -6.698  75.899  1.00  0.00     0.043 C
HETATM   27  C8  UNL     1     -25.928  -6.909  77.335  1.00  0.00     0.175 C
HETATM   28  C11 UNL     1     -27.641  -7.455  75.809  1.00  0.00     0.056 C
HETATM   29  O3  UNL     1     -27.116  -7.044  78.057  1.00  0.00    -0.385 OA
HETATM   30  C9  UNL     1     -27.950  -7.776  77.193  1.00  0.00     0.124 C
HETATM   31  C10 UNL     1     -27.488  -9.264  77.416  1.00  0.00     0.040 C
ENDBRANCH   3  23
BRANCH   7  32
HETATM   32  O5  UNL     1     -33.978  -6.899  75.342  1.00  0.00    -0.339 OA
HETATM   33  C18 UNL     1     -35.090  -7.094  74.717  1.00  0.00     0.211 C
ENDBRANCH   7  32
BRANCH   1  34
HETATM   34  O1  UNL     1     -32.672  -5.425  77.213  1.00  0.00    -0.352 OA
HETATM   35  C1  UNL     1     -32.747  -5.879  78.556  1.00  0.00     0.210 C
ENDBRANCH   1  34
TORSDOF 10
ENDMDL