MODEL 3
REMARK VINA RESULT: -6.031823958      1.417      1.633
REMARK  7 active torsions:
REMARK  status: ('A' for Active; 'I' for Inactive)
REMARK    1  A    between atoms: C2_2  and  O1_3
REMARK    2  A    between atoms: O1_3  and  C3_4
REMARK    3  A    between atoms: C5_6  and  N1_7
REMARK    4  A    between atoms: C10_20  and  C11_21
REMARK    5  A    between atoms: C13_23  and  C14_24
REMARK    6  A    between atoms: C15_26  and  S1_27
REMARK    7  A    between atoms: S1_27  and  C16_28
ROOT
HETATM    1  C3  UNL     1     -26.044  -8.847  76.960  1.00  0.00     0.176 C
HETATM    2  C4  UNL     1     -26.145  -9.787  75.744  1.00  0.00     0.083 C
HETATM    3  C5  UNL     1     -27.483  -9.597  75.120  1.00  0.00     0.210 C
HETATM    4  N3  UNL     1     -28.204  -8.489  75.765  1.00  0.00    -0.115 NA
HETATM    5  N4  UNL     1     -28.357  -8.678  77.140  1.00  0.00    -0.302 N
ATOM      6  H4  UNL     1     -29.268  -8.668  77.598  1.00  0.00     0.182 HD
HETATM    7  C10 UNL     1     -27.231  -8.871  77.802  1.00  0.00     0.068 C
ENDROOT
BRANCH   7   8
HETATM    8  C11 UNL     1     -27.307  -9.082  79.245  1.00  0.00     0.033 A
HETATM    9  C12 UNL     1     -27.125 -10.193  80.009  1.00  0.00     0.037 A
HETATM   10  C13 UNL     1     -27.272 -10.063  81.348  1.00  0.00     0.027 A
HETATM   11  C15 UNL     1     -27.594  -8.808  81.811  1.00  0.00     0.060 A
HETATM   12  S2  UNL     1     -27.677  -7.878  80.392  1.00  0.00    -0.080 SA
BRANCH  10  13
HETATM   13  C14 UNL     1     -27.107 -11.169  82.324  1.00  0.00     0.272 C
HETATM   14  O4  UNL     1     -28.083 -11.909  82.556  1.00  0.00    -0.301 OA
ENDBRANCH  10  13
BRANCH  11  15
HETATM   15  S1  UNL     1     -27.862  -8.293  83.529  1.00  0.00    -0.053 SA
BRANCH  15  16
HETATM   16  C16 UNL     1     -29.561  -8.862  83.926  1.00  0.00     0.421 C
HETATM   17  F2  UNL     1     -30.202  -9.260  82.772  1.00  0.00    -0.202 F
HETATM   18  F3  UNL     1     -29.407  -9.995  84.723  1.00  0.00    -0.202 F
ENDBRANCH  15  16
ENDBRANCH  11  15
ENDBRANCH   7   8
BRANCH   1  19
HETATM   19  O1  UNL     1     -24.836  -8.972  77.586  1.00  0.00    -0.380 OA
BRANCH  19  20
HETATM   20  C2  UNL     1     -23.988  -7.946  77.246  1.00  0.00     0.164 C
HETATM   21  C1  UNL     1     -22.585  -8.523  77.179  1.00  0.00     0.033 C
ENDBRANCH  19  20
ENDBRANCH   1  19
BRANCH   3  22
HETATM   22  N1  UNL     1     -27.522  -9.524  73.699  1.00  0.00    -0.286 N
HETATM   23  C6  UNL     1     -26.352  -9.419  73.016  1.00  0.00     0.145 A
HETATM   24  C7  UNL     1     -26.274  -9.343  71.647  1.00  0.00     0.199 A
HETATM   25  F1  UNL     1     -25.109  -9.238  70.972  1.00  0.00    -0.199 F
HETATM   26  C8  UNL     1     -27.482  -9.380  70.961  1.00  0.00     0.289 A
HETATM   27  O2  UNL     1     -27.464  -9.313  69.700  1.00  0.00    -0.265 OA
HETATM   28  N2  UNL     1     -28.616  -9.485  71.667  1.00  0.00    -0.273 N
HETATM   29  C9  UNL     1     -28.668  -9.558  73.004  1.00  0.00     0.330 A
ATOM     30  H2  UNL     1     -29.496  -9.512  71.153  1.00  0.00     0.173 HD
HETATM   31  O3  UNL     1     -29.801  -9.657  73.603  1.00  0.00    -0.246 OA
ENDBRANCH   3  22
TORSDOF 7
ENDMDL