MODEL 5
REMARK VINA RESULT: -6.832029888      1.499      1.710
REMARK  8 active torsions:
REMARK  status: ('A' for Active; 'I' for Inactive)
REMARK    1  A    between atoms: C2_2  and  N1_3
REMARK    2  A    between atoms: N1_3  and  C3_4
REMARK    3  A    between atoms: N1_3  and  C9_17
REMARK    4  A    between atoms: C3_4  and  C4_5
REMARK    5  A    between atoms: C4_5  and  S1_6
REMARK    6  A    between atoms: S1_6  and  C5_7
REMARK    7  A    between atoms: C6_10  and  C7_11
REMARK    8  A    between atoms: C11_26  and  N6_27
ROOT
HETATM    1  C9  UNL     1     -23.540  -7.857  78.217  1.00  0.00     0.709 A
HETATM    2  N3  UNL     1     -23.307  -6.554  78.509  1.00  0.00    -0.022 N
ATOM      3  H3  UNL     1     -24.116  -5.940  78.614  1.00  0.00     0.203 HD
HETATM    4  C10 UNL     1     -22.110  -6.023  78.667  1.00  0.00     0.705 A
HETATM    5  N4  UNL     1     -21.866  -4.780  78.926  1.00  0.00    -0.234 N
ATOM      6  H41 UNL     1     -20.941  -4.369  79.048  1.00  0.00     0.174 HD
ATOM      7  H42 UNL     1     -22.672  -4.163  79.029  1.00  0.00     0.174 HD
HETATM    8  N5  UNL     1     -21.024  -6.854  78.528  1.00  0.00    -0.022 N
ATOM      9  H5  UNL     1     -20.086  -6.470  78.647  1.00  0.00     0.203 HD
HETATM   10  C11 UNL     1     -21.167  -8.166  78.238  1.00  0.00     0.709 A
HETATM   11  N7  UNL     1     -22.417  -8.607  78.097  1.00  0.00    -0.021 N
ATOM     12  H7  UNL     1     -22.540  -9.596  77.881  1.00  0.00     0.203 HD
ENDROOT
BRANCH   1  13
HETATM   13  N1  UNL     1     -24.806  -8.466  78.080  1.00  0.00    -0.216 N
BRANCH  13  14
HETATM   14  C2  UNL     1     -25.447  -8.934  79.342  1.00  0.00     0.137 C
HETATM   15  C1  UNL     1     -26.894  -9.271  78.977  1.00  0.00     0.027 C
ENDBRANCH  13  14
BRANCH  13  16
HETATM   16  C3  UNL     1     -25.574  -8.620  76.893  1.00  0.00     0.151 C
BRANCH  16  17
HETATM   17  C4  UNL     1     -25.488  -7.612  75.817  1.00  0.00     0.101 C
BRANCH  17  18
HETATM   18  S1  UNL     1     -27.208  -6.928  75.679  1.00  0.00    -0.103 SA
BRANCH  18  19
HETATM   19  C5  UNL     1     -28.091  -8.031  74.536  1.00  0.00     0.112 A
HETATM   20  N2  UNL     1     -27.688  -9.215  74.104  1.00  0.00    -0.341 N
HETATM   21  C6  UNL     1     -28.442  -9.891  73.283  1.00  0.00     0.124 A
ATOM     22  H2  UNL     1     -26.793  -9.596  74.412  1.00  0.00     0.167 HD
HETATM   23  C8  UNL     1     -29.634  -9.332  72.907  1.00  0.00     0.086 A
HETATM   24  S2  UNL     1     -29.592  -7.852  73.762  1.00  0.00    -0.075 SA
BRANCH  21  25
HETATM   25  C7  UNL     1     -27.984 -11.244  72.745  1.00  0.00     0.433 C
HETATM   26  F1  UNL     1     -28.505 -11.345  71.462  1.00  0.00    -0.165 F
HETATM   27  F2  UNL     1     -28.429 -12.229  73.559  1.00  0.00    -0.165 F
HETATM   28  F3  UNL     1     -26.611 -11.303  72.664  1.00  0.00    -0.165 F
ENDBRANCH  21  25
ENDBRANCH  18  19
ENDBRANCH  17  18
ENDBRANCH  16  17
ENDBRANCH  13  16
ENDBRANCH   1  13
BRANCH  10  29
HETATM   29  N6  UNL     1     -20.021  -8.974  78.097  1.00  0.00    -0.213 N
HETATM   30  C12 UNL     1     -18.961  -9.055  79.077  1.00  0.00     0.167 C
HETATM   31  C13 UNL     1     -18.939 -10.490  79.599  1.00  0.00     0.188 C
HETATM   32  O1  UNL     1     -19.243 -11.394  78.600  1.00  0.00    -0.388 OA
HETATM   33  C14 UNL     1     -18.935 -10.960  77.338  1.00  0.00     0.188 C
HETATM   34  C15 UNL     1     -19.842  -9.788  76.906  1.00  0.00     0.167 C
ENDBRANCH  10  29
TORSDOF 8
ENDMDL