MODEL 5
REMARK VINA RESULT: -5.273820344      1.545      1.958
REMARK  12 active torsions:
REMARK  status: ('A' for Active; 'I' for Inactive)
REMARK    1  A    between atoms: C2_2  and  C4_4
REMARK    2  A    between atoms: C5_9  and  S1_10
REMARK    3  A    between atoms: S1_10  and  C6_11
REMARK    4  A    between atoms: C8_14  and  C9_15
REMARK    5  A    between atoms: C9_15  and  N3_16
REMARK    6  A    between atoms: N3_16  and  C10_18
REMARK    7  A    between atoms: C10_18  and  N4_20
REMARK    8  A    between atoms: N4_20  and  N5_22
REMARK    9  A    between atoms: C11_24  and  C12_25
REMARK   10  A    between atoms: C12_25  and  C13_26
REMARK   11  A    between atoms: C13_26  and  O2_27
REMARK   12  A    between atoms: C13_26  and  C14_29
ROOT
HETATM    1  N3  UNL     1     -28.156  -5.433  78.058  1.00  0.00    -0.363 N
ATOM      2  H3  UNL     1     -28.902  -6.105  77.884  1.00  0.00     0.162 HD
ENDROOT
BRANCH   1   3
HETATM    3  C9  UNL     1     -26.940  -5.867  78.737  1.00  0.00     0.155 C
BRANCH   3   4
HETATM    4  C8  UNL     1     -26.824  -7.373  78.616  1.00  0.00     0.155 C
HETATM    5  C6  UNL     1     -26.136  -7.841  77.347  1.00  0.00     0.109 C
HETATM    6  C7  UNL     1     -24.968  -7.999  78.286  1.00  0.00     0.186 C
HETATM    7  O1  UNL     1     -25.817  -7.918  79.409  1.00  0.00    -0.382 OA
BRANCH   5   8
HETATM    8  S1  UNL     1     -26.883  -9.380  76.781  1.00  0.00    -0.094 SA
BRANCH   8   9
HETATM    9  C5  UNL     1     -26.965  -9.484  75.007  1.00  0.00     0.128 A
HETATM   10  N2  UNL     1     -26.277  -8.713  74.178  1.00  0.00    -0.287 N
HETATM   11  N1  UNL     1     -26.403  -8.863  72.929  1.00  0.00    -0.296 N
ATOM     12  H2  UNL     1     -25.648  -7.999  74.547  1.00  0.00     0.188 HD
HETATM   13  C4  UNL     1     -27.220  -9.790  72.446  1.00  0.00     0.072 A
ATOM     14  H1  UNL     1     -25.874  -8.270  72.290  1.00  0.00     0.187 HD
HETATM   15  S3  UNL     1     -27.826 -10.463  73.913  1.00  0.00    -0.049 SA
BRANCH  13  16
HETATM   16  C2  UNL     1     -27.527 -10.145  71.024  1.00  0.00     0.036 C
HETATM   17  C1  UNL     1     -27.138  -9.002  70.147  1.00  0.00     0.016 C
HETATM   18  C3  UNL     1     -28.953 -10.564  70.877  1.00  0.00     0.016 C
ENDBRANCH  13  16
ENDBRANCH   8   9
ENDBRANCH   5   8
ENDBRANCH   3   4
ENDBRANCH   1   3
BRANCH   1  19
HETATM   19  C10 UNL     1     -28.314  -4.088  77.638  1.00  0.00     0.186 C
HETATM   20  S2  UNL     1     -28.864  -2.951  78.670  1.00  0.00    -0.040 SA
BRANCH  19  21
HETATM   21  N4  UNL     1     -27.995  -3.712  76.315  1.00  0.00    -0.277 N
ATOM     22  H4  UNL     1     -27.394  -2.908  76.134  1.00  0.00     0.189 HD
BRANCH  21  23
HETATM   23  N5  UNL     1     -28.515  -4.460  75.262  1.00  0.00    -0.310 N
HETATM   24  C11 UNL     1     -29.746  -4.433  74.916  1.00  0.00     0.110 C
ATOM     25  H5  UNL     1     -27.880  -5.063  74.740  1.00  0.00     0.186 HD
BRANCH  24  26
HETATM   26  C12 UNL     1     -30.167  -5.262  73.798  1.00  0.00     0.060 C
BRANCH  26  27
HETATM   27  C13 UNL     1     -29.713  -6.485  73.604  1.00  0.00     0.151 C
BRANCH  27  28
HETATM   28  O2  UNL     1     -28.466  -6.680  73.084  1.00  0.00    -0.357 OA
ATOM     29  H2  UNL     1     -27.751  -6.105  73.329  1.00  0.00     0.217 HD
ENDBRANCH  27  28
BRANCH  27  30
HETATM   30  C14 UNL     1     -30.569  -7.655  73.955  1.00  0.00     0.438 C
HETATM   31  F1  UNL     1     -30.526  -8.613  72.988  1.00  0.00    -0.164 F
HETATM   32  F2  UNL     1     -31.852  -7.237  74.198  1.00  0.00    -0.164 F
HETATM   33  F3  UNL     1     -30.050  -8.198  75.126  1.00  0.00    -0.164 F
ENDBRANCH  27  30
ENDBRANCH  26  27
ENDBRANCH  24  26
ENDBRANCH  21  23
ENDBRANCH  19  21
ENDBRANCH   1  19
TORSDOF 12
ENDMDL