MODEL 5
REMARK VINA RESULT: -6.795605868      3.934      5.748
REMARK  9 active torsions:
REMARK  status: ('A' for Active; 'I' for Inactive)
REMARK    1  A    between atoms: C2_2  and  C3_3
REMARK    2  A    between atoms: C3_3  and  C4_4
REMARK    3  A    between atoms: C4_4  and  C5_5
REMARK    4  A    between atoms: C6_8  and  N2_9
REMARK    5  A    between atoms: N3_11  and  C7_13
REMARK    6  A    between atoms: C7_13  and  C8_14
REMARK    7  A    between atoms: C10_16  and  O1_17
REMARK    8  A    between atoms: C11_19  and  N4_20
REMARK    9  A    between atoms: C17_32  and  C18_33
ROOT
HETATM    1  N2  UNL     1     -30.341  -8.938  73.583  1.00  0.00    -0.290 N
ATOM      2  H2  UNL     1     -30.881  -9.802  73.622  1.00  0.00     0.188 HD
HETATM    3  N3  UNL     1     -30.931  -7.904  73.825  1.00  0.00    -0.332 N
ATOM      4  H3  UNL     1     -31.924  -7.981  74.045  1.00  0.00     0.180 HD
ENDROOT
BRANCH   3   5
HETATM    5  C7  UNL     1     -30.372  -6.590  73.833  1.00  0.00     0.171 C
BRANCH   5   6
HETATM    6  C8  UNL     1     -31.544  -5.649  74.147  1.00  0.00     0.146 C
HETATM    7  C9  UNL     1     -31.281  -4.760  75.330  1.00  0.00     0.070 C
HETATM    8  C10 UNL     1     -32.690  -4.797  75.976  1.00  0.00     0.170 C
HETATM    9  C11 UNL     1     -32.970  -6.266  75.745  1.00  0.00     0.261 C
HETATM   10  O4  UNL     1     -32.644  -6.410  74.403  1.00  0.00    -0.356 OA
BRANCH   8  11
HETATM   11  O1  UNL     1     -32.682  -4.414  77.287  1.00  0.00    -0.391 OA
ATOM     12  H1  UNL     1     -33.312  -3.729  77.474  1.00  0.00     0.210 HD
ENDBRANCH   8  11
BRANCH   9  13
HETATM   13  N4  UNL     1     -34.312  -6.670  76.027  1.00  0.00    -0.277 N
HETATM   14  C12 UNL     1     -35.330  -6.592  75.174  1.00  0.00     0.146 A
HETATM   15  C13 UNL     1     -36.610  -7.017  75.509  1.00  0.00     0.199 A
HETATM   16  F1  UNL     1     -37.592  -6.907  74.595  1.00  0.00    -0.199 F
HETATM   17  C14 UNL     1     -36.855  -7.542  76.761  1.00  0.00     0.289 A
HETATM   18  O2  UNL     1     -37.997  -7.940  77.102  1.00  0.00    -0.265 OA
HETATM   19  N5  UNL     1     -35.795  -7.607  77.606  1.00  0.00    -0.273 N
HETATM   20  C15 UNL     1     -34.560  -7.183  77.247  1.00  0.00     0.331 A
ATOM     21  H5  UNL     1     -35.932  -7.989  78.543  1.00  0.00     0.173 HD
HETATM   22  O3  UNL     1     -33.621  -7.276  78.093  1.00  0.00    -0.246 OA
ENDBRANCH   9  13
ENDBRANCH   5   6
ENDBRANCH   3   5
BRANCH   1  23
HETATM   23  C6  UNL     1     -28.968  -9.050  73.252  1.00  0.00     0.122 A
HETATM   24  N1  UNL     1     -28.054  -9.288  74.194  1.00  0.00    -0.331 N
HETATM   25  C5  UNL     1     -26.718  -9.395  73.894  1.00  0.00     0.083 A
ATOM     26  H1  UNL     1     -28.355  -9.394  75.163  1.00  0.00     0.168 HD
HETATM   27  N6  UNL     1     -26.374  -9.253  72.618  1.00  0.00    -0.342 N
HETATM   28  C17 UNL     1     -27.228  -9.013  71.614  1.00  0.00     0.121 A
ATOM     29  H6  UNL     1     -25.384  -9.333  72.385  1.00  0.00     0.167 HD
HETATM   30  C16 UNL     1     -28.544  -8.910  71.929  1.00  0.00     0.084 A
BRANCH  25  31
HETATM   31  C4  UNL     1     -25.850  -9.715  75.023  1.00  0.00     0.076 C
BRANCH  31  32
HETATM   32  C3  UNL     1     -26.202  -9.343  76.388  1.00  0.00     0.007 C
BRANCH  32  33
HETATM   33  C2  UNL     1     -25.163  -8.804  77.285  1.00  0.00    -0.004 C
HETATM   34  C1  UNL     1     -23.776  -8.603  76.855  1.00  0.00     0.005 C
ENDBRANCH  32  33
ENDBRANCH  31  32
ENDBRANCH  25  31
BRANCH  28  35
HETATM   35  C18 UNL     1     -26.670  -8.865  70.250  1.00  0.00     0.432 C
HETATM   36  F2  UNL     1     -27.236  -9.733  69.354  1.00  0.00    -0.165 F
HETATM   37  F3  UNL     1     -25.313  -9.193  70.347  1.00  0.00    -0.165 F
HETATM   38  F4  UNL     1     -26.719  -7.592  69.763  1.00  0.00    -0.165 F
ENDBRANCH  28  35
ENDBRANCH   1  23
TORSDOF 9
ENDMDL