MODEL 3
REMARK VINA RESULT: -3.945580220      2.976      4.835
REMARK  0 active torsions:
REMARK  status: ('A' for Active; 'I' for Inactive)
ROOT
HETATM    1  S1  UNL     1     -21.411 -31.605   6.111  1.00  0.00    -0.033 SA
HETATM    2  C1  UNL     1     -20.847 -31.550   4.574  1.00  0.00     0.211 C
HETATM    3  N1  UNL     1     -20.884 -30.384   3.722  1.00  0.00    -0.354 N
ATOM      4  H1  UNL     1     -21.342 -29.493   3.913  1.00  0.00     0.162 HD
HETATM    5  C2  UNL     1     -20.145 -30.744   2.559  1.00  0.00     0.116 C
HETATM    6  C3  UNL     1     -20.680 -30.231   1.268  1.00  0.00     0.030 C
HETATM    7  C4  UNL     1     -19.941 -30.829   0.126  1.00  0.00     0.040 C
HETATM    8  C5  UNL     1     -19.614 -32.256   0.212  1.00  0.00     0.195 C
HETATM    9  O1  UNL     1     -20.627 -33.175   0.218  1.00  0.00    -0.232 OA
HETATM   10  O2  UNL     1     -19.836 -33.969   0.945  1.00  0.00    -0.230 OA
HETATM   11  C6  UNL     1     -19.378 -32.808   1.580  1.00  0.00     0.223 C
HETATM   12  C7  UNL     1     -20.390 -32.262   2.514  1.00  0.00     0.188 C
HETATM   13  O3  UNL     1     -20.247 -32.602   3.850  1.00  0.00    -0.317 OA
ENDROOT
TORSDOF 0
ENDMDL