MODEL 4
REMARK VINA RESULT: -3.781860148      1.537      2.979
REMARK  0 active torsions:
REMARK  status: ('A' for Active; 'I' for Inactive)
ROOT
HETATM    1  C1  UNL     1     -20.565 -31.657   3.819  1.00  0.00     0.007 C
HETATM    2  C2  UNL     1     -20.718 -30.455   2.947  1.00  0.00     0.044 C
HETATM    3  C3  UNL     1     -20.556 -30.756   1.480  1.00  0.00     0.064 C
HETATM    4  N1  UNL     1     -19.323 -31.372   1.221  1.00  0.00    -0.332 N
HETATM    5  C4  UNL     1     -18.683 -31.975   2.310  1.00  0.00     0.114 C
HETATM    6  C5  UNL     1     -19.724 -32.733   3.148  1.00  0.00     0.027 C
HETATM    7  C6  UNL     1     -17.528 -32.845   2.023  1.00  0.00     0.257 C
HETATM    8  N2  UNL     1     -17.519 -33.470   0.736  1.00  0.00    -0.066 N
ATOM      9  H21 UNL     1     -18.180 -34.244   0.669  1.00  0.00     0.277 HD
ATOM     10  H22 UNL     1     -16.666 -34.002   0.563  1.00  0.00     0.277 HD
HETATM   11  C7  UNL     1     -17.751 -32.449  -0.263  1.00  0.00     0.326 C
HETATM   12  C8  UNL     1     -19.132 -31.919  -0.071  1.00  0.00     0.275 C
HETATM   13  O1  UNL     1     -20.037 -32.888  -0.440  1.00  0.00    -0.335 OA
HETATM   14  C9  UNL     1     -20.483 -32.619  -1.710  1.00  0.00     0.199 C
HETATM   15  C10 UNL     1     -19.706 -31.408  -2.172  1.00  0.00     0.199 C
HETATM   16  O2  UNL     1     -19.292 -30.849  -0.986  1.00  0.00    -0.335 OA
ENDROOT
TORSDOF 0
ENDMDL