MODEL 4
REMARK VINA RESULT: -4.005618983      2.681      3.931
REMARK  1 active torsions:
REMARK  status: ('A' for Active; 'I' for Inactive)
REMARK    1  A    between atoms: O1_1  and  C1_3
ROOT
HETATM    1  C1  UNL     1     -19.476 -32.630   2.680  1.00  0.00     0.123 C
HETATM    2  C2  UNL     1     -20.234 -31.420   3.125  1.00  0.00     0.034 C
HETATM    3  C3  UNL     1     -20.682 -30.511   2.058  1.00  0.00     0.029 C
HETATM    4  C4  UNL     1     -20.778 -31.092   0.694  1.00  0.00     0.168 C
HETATM    5  O2  UNL     1     -19.546 -31.073   0.052  1.00  0.00    -0.386 OA
HETATM    6  C5  UNL     1     -19.117 -32.381  -0.127  1.00  0.00     0.236 C
HETATM    7  C6  UNL     1     -17.902 -32.592   0.721  1.00  0.00     0.187 C
HETATM    8  C7  UNL     1     -18.105 -32.353   2.173  1.00  0.00     0.102 C
HETATM    9  O3  UNL     1     -17.349 -33.841   0.433  1.00  0.00    -0.351 OA
HETATM   10  C8  UNL     1     -15.986 -33.740   0.689  1.00  0.00     0.198 C
HETATM   11  C9  UNL     1     -15.713 -32.294   0.370  1.00  0.00     0.198 C
HETATM   12  O4  UNL     1     -16.930 -31.667   0.275  1.00  0.00    -0.351 OA
ENDROOT
BRANCH   1  13
HETATM   13  O1  UNL     1     -19.327 -33.428   3.844  1.00  0.00    -0.395 OA
ATOM     14  H1  UNL     1     -20.212 -33.601   4.143  1.00  0.00     0.210 HD
ENDBRANCH   1  13
TORSDOF 1
ENDMDL