MODEL 2
REMARK VINA RESULT: -4.328775763      1.900      3.612
REMARK  0 active torsions:
REMARK  status: ('A' for Active; 'I' for Inactive)
ROOT
HETATM    1  C1  UNL     1     -19.835 -32.899   4.200  1.00  0.00     0.054 C
HETATM    2  C2  UNL     1     -21.207 -32.674   4.790  1.00  0.00     0.234 C
HETATM    3  N1  UNL     1     -21.105 -31.949   6.042  1.00  0.00    -0.073 N
ATOM      4  H11 UNL     1     -20.135 -31.714   6.252  1.00  0.00     0.277 HD
ATOM      5  H12 UNL     1     -21.303 -32.558   6.835  1.00  0.00     0.277 HD
HETATM    6  C3  UNL     1     -21.942 -30.770   6.070  1.00  0.00     0.258 C
HETATM    7  C4  UNL     1     -21.207 -29.537   5.558  1.00  0.00     0.195 C
HETATM    8  O1  UNL     1     -21.996 -28.954   4.603  1.00  0.00    -0.387 OA
HETATM    9  C5  UNL     1     -21.581 -27.700   4.201  1.00  0.00     0.193 C
HETATM   10  C6  UNL     1     -20.485 -27.778   3.135  1.00  0.00     0.193 C
HETATM   11  O2  UNL     1     -20.292 -29.110   2.857  1.00  0.00    -0.387 OA
HETATM   12  C7  UNL     1     -19.799 -29.371   1.600  1.00  0.00     0.193 C
HETATM   13  C8  UNL     1     -20.022 -30.866   1.342  1.00  0.00     0.193 C
HETATM   14  O3  UNL     1     -19.264 -31.528   2.325  1.00  0.00    -0.389 OA
HETATM   15  C9  UNL     1     -19.829 -32.735   2.690  1.00  0.00     0.169 C
ENDROOT
TORSDOF 0
ENDMDL