MODEL 3
REMARK VINA RESULT: -3.659768974     12.400     14.128
REMARK  1 active torsions:
REMARK  status: ('A' for Active; 'I' for Inactive)
REMARK    1  A    between atoms: N1_1  and  C1_5
ROOT
HETATM    1  C1  UNL     1     -34.955 -28.375   3.707  1.00  0.00     0.192 C
HETATM    2  C2  UNL     1     -34.092 -28.999   4.809  1.00  0.00     0.065 C
HETATM    3  C3  UNL     1     -33.319 -29.649   3.648  1.00  0.00     0.136 C
HETATM    4  O1  UNL     1     -31.967 -29.600   3.803  1.00  0.00    -0.327 OA
HETATM    5  C4  UNL     1     -31.478 -28.408   3.351  1.00  0.00     0.282 C
HETATM    6  C5  UNL     1     -32.643 -27.471   3.129  1.00  0.00     0.111 C
HETATM    7  C6  UNL     1     -33.751 -28.449   2.829  1.00  0.00     0.053 C
HETATM    8  O2  UNL     1     -30.549 -27.899   4.238  1.00  0.00    -0.333 OA
HETATM    9  C7  UNL     1     -29.393 -28.673   4.170  1.00  0.00     0.176 C
HETATM   10  C8  UNL     1     -28.707 -28.286   2.852  1.00  0.00     0.053 C
HETATM   11  C9  UNL     1     -29.838 -27.727   1.978  1.00  0.00     0.176 C
HETATM   12  O3  UNL     1     -30.882 -28.658   2.090  1.00  0.00    -0.333 OA
ENDROOT
BRANCH   1  13
HETATM   13  N1  UNL     1     -35.475 -27.081   4.002  1.00  0.00    -0.074 N
ATOM     14  H13 UNL     1     -34.768 -26.518   4.476  1.00  0.00     0.274 HD
ATOM     15  H12 UNL     1     -35.585 -26.543   3.143  1.00  0.00     0.274 HD
ATOM     16  H11 UNL     1     -36.345 -27.073   4.536  1.00  0.00     0.274 HD
ENDBRANCH   1  13
TORSDOF 1
ENDMDL