MODEL 2
REMARK VINA RESULT: -3.537662179      2.565      3.507
REMARK  1 active torsions:
REMARK  status: ('A' for Active; 'I' for Inactive)
REMARK    1  A    between atoms: O1_1  and  C1_3
ROOT
HETATM    1  C1  UNL     1     -18.677 -32.551   1.121  1.00  0.00     0.141 C
HETATM    2  C2  UNL     1     -19.074 -32.799   2.503  1.00  0.00     0.057 C
HETATM    3  C3  UNL     1     -20.389 -32.009   2.622  1.00  0.00     0.006 C
HETATM    4  C4  UNL     1     -20.790 -31.665   1.175  1.00  0.00     0.021 C
HETATM    5  C5  UNL     1     -20.066 -32.696   0.445  1.00  0.00     0.115 C
HETATM    6  S1  UNL     1     -19.477 -32.342  -1.209  1.00  0.00    -0.057 SA
HETATM    7  N1  UNL     1     -17.909 -33.175  -0.933  1.00  0.00    -0.186 NA
HETATM    8  C6  UNL     1     -16.796 -32.338  -1.196  1.00  0.00     0.123 C
HETATM    9  C7  UNL     1     -15.884 -32.464  -0.003  1.00  0.00     0.033 C
HETATM   10  C8  UNL     1     -16.535 -33.588   0.776  1.00  0.00     0.114 C
HETATM   11  N2  UNL     1     -17.916 -33.506   0.430  1.00  0.00    -0.204 NA
ENDROOT
BRANCH   1  12
HETATM   12  O1  UNL     1     -18.244 -31.238   0.977  1.00  0.00    -0.373 OA
ATOM     13  H1  UNL     1     -18.966 -30.686   0.699  1.00  0.00     0.212 HD
ENDBRANCH   1  12
TORSDOF 1
ENDMDL