MODEL 1
REMARK VINA RESULT: -4.850016791      0.000      0.000
REMARK  0 active torsions:
REMARK  status: ('A' for Active; 'I' for Inactive)
ROOT
HETATM    1  N1  UNL     1     -32.017 -23.457   8.805  1.00  0.00    -0.195 NA
HETATM    2  C1  UNL     1     -32.003 -23.677   7.661  1.00  0.00     0.091 C
HETATM    3  C2  UNL     1     -31.986 -23.976   6.220  1.00  0.00     0.228 C
HETATM    4  C3  UNL     1     -33.172 -23.298   5.610  1.00  0.00     0.049 C
HETATM    5  C4  UNL     1     -34.266 -24.316   5.294  1.00  0.00     0.039 C
HETATM    6  C5  UNL     1     -33.676 -25.320   4.352  1.00  0.00     0.215 C
HETATM    7  N2  UNL     1     -34.282 -26.622   4.439  1.00  0.00    -0.062 N
ATOM      8  H21 UNL     1     -35.255 -26.672   4.134  1.00  0.00     0.278 HD
ATOM      9  H22 UNL     1     -34.468 -26.955   5.385  1.00  0.00     0.278 HD
HETATM   10  C6  UNL     1     -33.335 -27.431   3.660  1.00  0.00     0.218 C
HETATM   11  C7  UNL     1     -33.426 -28.877   3.996  1.00  0.00     0.201 C
HETATM   12  O1  UNL     1     -32.621 -29.154   5.063  1.00  0.00    -0.389 OA
HETATM   13  C8  UNL     1     -31.953 -28.022   5.449  1.00  0.00     0.177 C
HETATM   14  C9  UNL     1     -31.996 -27.043   4.300  1.00  0.00     0.073 C
HETATM   15  C10 UNL     1     -32.225 -25.637   4.707  1.00  0.00     0.162 C
HETATM   16  O2  UNL     1     -32.006 -25.369   6.032  1.00  0.00    -0.364 OA
ENDROOT
TORSDOF 0
ENDMDL