MODEL 2
REMARK VINA RESULT: -4.043703600      1.406      3.163
REMARK  1 active torsions:
REMARK  status: ('A' for Active; 'I' for Inactive)
REMARK    1  A    between atoms: O1_1  and  C1_3
ROOT
HETATM    1  C1  UNL     1     -20.246 -32.808   0.555  1.00  0.00     0.180 C
HETATM    2  C2  UNL     1     -21.052 -31.690   1.162  1.00  0.00     0.180 C
HETATM    3  C3  UNL     1     -21.288 -30.690   0.092  1.00  0.00     0.032 C
HETATM    4  C4  UNL     1     -20.288 -29.876  -0.187  1.00  0.00     0.136 C
HETATM    5  O2  UNL     1     -19.121 -30.048   0.557  1.00  0.00    -0.332 OA
HETATM    6  C5  UNL     1     -19.122 -30.687   1.819  1.00  0.00     0.272 C
HETATM    7  O3  UNL     1     -20.419 -31.043   2.195  1.00  0.00    -0.349 OA
HETATM    8  C6  UNL     1     -18.307 -31.936   1.859  1.00  0.00     0.075 C
HETATM    9  C7  UNL     1     -17.028 -31.854   1.067  1.00  0.00     0.038 C
HETATM   10  C8  UNL     1     -17.305 -32.837  -0.056  1.00  0.00     0.168 C
HETATM   11  O4  UNL     1     -18.119 -33.800   0.505  1.00  0.00    -0.383 OA
HETATM   12  C9  UNL     1     -19.013 -33.149   1.348  1.00  0.00     0.161 C
ENDROOT
BRANCH   1  13
HETATM   13  O1  UNL     1     -21.039 -33.954   0.400  1.00  0.00    -0.390 OA
ATOM     14  H1  UNL     1     -20.797 -34.419  -0.392  1.00  0.00     0.210 HD
ENDBRANCH   1  13
TORSDOF 1
ENDMDL