MODEL 3
REMARK VINA RESULT: -4.463154196      5.854      6.569
REMARK  0 active torsions:
REMARK  status: ('A' for Active; 'I' for Inactive)
ROOT
HETATM    1  C1  UNL     1     -26.452 -28.221   5.675  1.00  0.00     0.004 C
HETATM    2  C2  UNL     1     -27.432 -28.739   4.670  1.00  0.00     0.030 C
HETATM    3  C3  UNL     1     -27.381 -28.068   3.346  1.00  0.00     0.273 C
HETATM    4  N1  UNL     1     -26.181 -27.348   3.072  1.00  0.00     0.098 N
HETATM    5  C4  UNL     1     -25.860 -27.415   1.646  1.00  0.00     0.341 C
HETATM    6  C5  UNL     1     -24.376 -27.075   1.594  1.00  0.00     0.192 C
HETATM    7  C6  UNL     1     -23.892 -27.191   3.046  1.00  0.00     0.106 C
HETATM    8  C7  UNL     1     -25.012 -28.041   3.632  1.00  0.00     0.228 C
HETATM    9  C8  UNL     1     -25.079 -27.979   5.116  1.00  0.00     0.036 C
HETATM   10  O1  UNL     1     -23.757 -27.990   0.778  1.00  0.00    -0.351 OA
HETATM   11  C9  UNL     1     -23.646 -27.328  -0.467  1.00  0.00     0.198 C
HETATM   12  C10 UNL     1     -23.242 -25.937   0.039  1.00  0.00     0.198 C
HETATM   13  O2  UNL     1     -24.133 -25.811   1.115  1.00  0.00    -0.351 OA
ENDROOT
TORSDOF 0
ENDMDL