MODEL 4
REMARK VINA RESULT: -3.732859970      2.155      3.420
REMARK  1 active torsions:
REMARK  status: ('A' for Active; 'I' for Inactive)
REMARK    1  A    between atoms: O1_1  and  C1_3
ROOT
HETATM    1  C1  UNL     1     -21.454 -32.859  -1.002  1.00  0.00     0.148 C
HETATM    2  C2  UNL     1     -22.146 -31.545  -1.391  1.00  0.00     0.036 C
HETATM    3  C3  UNL     1     -21.432 -30.470  -0.567  1.00  0.00     0.026 C
HETATM    4  C4  UNL     1     -21.015 -31.249   0.630  1.00  0.00     0.101 C
HETATM    5  C5  UNL     1     -20.411 -32.492   0.008  1.00  0.00     0.170 C
HETATM    6  O2  UNL     1     -20.177 -33.480   0.940  1.00  0.00    -0.365 OA
HETATM    7  C6  UNL     1     -19.397 -33.002   1.993  1.00  0.00     0.200 C
HETATM    8  C7  UNL     1     -20.258 -32.362   3.031  1.00  0.00     0.059 C
HETATM    9  C8  UNL     1     -20.421 -30.923   2.834  1.00  0.00     0.106 C
HETATM   10  N1  UNL     1     -20.062 -30.538   1.485  1.00  0.00    -0.249 NA
HETATM   11  S1  UNL     1     -18.551 -31.503   1.328  1.00  0.00    -0.050 SA
ENDROOT
BRANCH   1  12
HETATM   12  O1  UNL     1     -20.845 -33.359  -2.154  1.00  0.00    -0.393 OA
ATOM     13  H1  UNL     1     -20.144 -32.760  -2.382  1.00  0.00     0.210 HD
ENDBRANCH   1  12
TORSDOF 1
ENDMDL