MODEL 1
REMARK VINA RESULT: -3.561161077      0.000      0.000
REMARK  2 active torsions:
REMARK  status: ('A' for Active; 'I' for Inactive)
REMARK    1  A    between atoms: N1_1  and  C1_5
REMARK    2  A    between atoms: C3_7  and  N2_8
ROOT
HETATM    1  C1  UNL     1      23.949  32.952  -4.210  1.00  0.00     0.190 C
HETATM    2  C2  UNL     1      23.250  34.093  -4.862  1.00  0.00     0.071 C
HETATM    3  C3  UNL     1      24.158  34.936  -5.737  1.00  0.00     0.125 C
HETATM    4  C4  UNL     1      24.383  34.306  -7.095  1.00  0.00     0.038 C
HETATM    5  C5  UNL     1      24.317  32.807  -7.026  1.00  0.00     0.003 C
HETATM    6  C6  UNL     1      25.426  32.318  -6.143  1.00  0.00     0.007 C
HETATM    7  C7  UNL     1      25.346  32.769  -4.733  1.00  0.00     0.016 C
HETATM    8  C8  UNL     1      26.113  34.040  -4.445  1.00  0.00     0.009 C
HETATM    9  C9  UNL     1      25.473  35.247  -5.059  1.00  0.00     0.039 C
ENDROOT
BRANCH   1  10
HETATM   10  N1  UNL     1      23.185  31.699  -4.294  1.00  0.00    -0.075 N
ATOM     11  H13 UNL     1      22.184  31.884  -4.362  1.00  0.00     0.274 HD
ATOM     12  H12 UNL     1      23.329  31.241  -5.194  1.00  0.00     0.274 HD
ATOM     13  H11 UNL     1      23.388  31.064  -3.522  1.00  0.00     0.274 HD
ENDBRANCH   1  10
BRANCH   3  14
HETATM   14  N2  UNL     1      23.453  36.191  -5.973  1.00  0.00    -0.070 N
ATOM     15  H23 UNL     1      22.959  36.216  -6.865  1.00  0.00     0.275 HD
ATOM     16  H22 UNL     1      22.638  36.316  -5.372  1.00  0.00     0.275 HD
ATOM     17  H21 UNL     1      24.146  36.933  -5.875  1.00  0.00     0.275 HD
ENDBRANCH   3  14
TORSDOF 2
ENDMDL