MODEL 4
REMARK VINA RESULT: -3.690362352      2.931      4.102
REMARK  2 active torsions:
REMARK  status: ('A' for Active; 'I' for Inactive)
REMARK    1  A    between atoms: N1_2  and  C2_4
REMARK    2  A    between atoms: C6_8  and  O1_9
ROOT
HETATM    1  C2  UNL     1      27.955  31.477  -6.147  1.00  0.00     0.026 C
HETATM    2  C3  UNL     1      29.142  32.427  -6.010  1.00  0.00     0.038 C
HETATM    3  C4  UNL     1      29.493  31.662  -4.773  1.00  0.00     0.019 C
HETATM    4  C5  UNL     1      28.584  30.524  -5.149  1.00  0.00     0.038 C
HETATM    5  C6  UNL     1      29.077  32.442  -3.585  1.00  0.00     0.127 C
HETATM    6  C7  UNL     1      27.925  33.316  -3.679  1.00  0.00     0.019 A
HETATM    7  C8  UNL     1      26.611  32.715  -3.140  1.00  0.00     0.012 A
HETATM    8  C9  UNL     1      26.861  33.175  -4.604  1.00  0.00    -0.005 A
HETATM    9  C10 UNL     1      26.745  32.125  -5.593  1.00  0.00     0.035 C
ENDROOT
BRANCH   1  10
HETATM   10  N1  UNL     1      27.916  30.946  -7.454  1.00  0.00    -0.417 N
HETATM   11  C1  UNL     1      26.660  30.861  -8.093  1.00  0.00     0.140 C
ATOM     12  H1  UNL     1      28.766  30.633  -7.921  1.00  0.00     0.153 HD
ENDBRANCH   1  10
BRANCH   5  13
HETATM   13  O1  UNL     1      28.883  31.513  -2.531  1.00  0.00    -0.395 OA
ATOM     14  H1  UNL     1      27.951  31.496  -2.347  1.00  0.00     0.210 HD
ENDBRANCH   5  13
TORSDOF 2
ENDMDL