MODEL 1
REMARK VINA RESULT: -3.912476005      0.000      0.000
REMARK  2 active torsions:
REMARK  status: ('A' for Active; 'I' for Inactive)
REMARK    1  A    between atoms: C5_5  and  O1_6
REMARK    2  A    between atoms: C6_8  and  O2_9
ROOT
HETATM    1  C1  UNL     1      27.092  31.967  -2.933  1.00  0.00     0.016 C
HETATM    2  C2  UNL     1      27.412  32.405  -4.345  1.00  0.00    -0.036 C
HETATM    3  C3  UNL     1      26.107  32.613  -5.041  1.00  0.00     0.016 C
HETATM    4  C4  UNL     1      28.104  33.768  -4.220  1.00  0.00     0.044 C
HETATM    5  C5  UNL     1      29.196  33.731  -5.289  1.00  0.00     0.148 C
HETATM    6  C6  UNL     1      29.695  32.320  -5.158  1.00  0.00     0.155 C
HETATM    7  C7  UNL     1      28.382  31.540  -5.047  1.00  0.00    -0.012 C
HETATM    8  C8  UNL     1      28.593  30.190  -4.412  1.00  0.00     0.018 C
HETATM    9  C9  UNL     1      27.984  31.263  -6.504  1.00  0.00     0.018 C
ENDROOT
BRANCH   5  10
HETATM   10  O1  UNL     1      30.192  34.647  -5.053  1.00  0.00    -0.393 OA
ATOM     11  H1  UNL     1      31.025  34.234  -4.857  1.00  0.00     0.210 HD
ENDBRANCH   5  10
BRANCH   6  12
HETATM   12  O2  UNL     1      30.541  32.105  -4.118  1.00  0.00    -0.392 OA
ATOM     13  H2  UNL     1      30.484  31.241  -3.726  1.00  0.00     0.210 HD
ENDBRANCH   6  12
TORSDOF 2
ENDMDL