MODEL 1
REMARK VINA RESULT: -4.026127101      0.000      0.000
REMARK  2 active torsions:
REMARK  status: ('A' for Active; 'I' for Inactive)
REMARK    1  A    between atoms: C5_5  and  N1_6
REMARK    2  A    between atoms: C8_12  and  O1_13
ROOT
HETATM    1  C1  UNL     1      24.283  33.065  -7.352  1.00  0.00     0.016 C
HETATM    2  C2  UNL     1      24.852  32.951  -6.004  1.00  0.00    -0.029 C
HETATM    3  C3  UNL     1      26.166  32.194  -5.876  1.00  0.00     0.012 C
HETATM    4  C4  UNL     1      26.983  32.945  -4.816  1.00  0.00     0.040 C
HETATM    5  C5  UNL     1      25.873  33.683  -4.101  1.00  0.00     0.131 C
HETATM    6  C6  UNL     1      24.871  32.593  -3.673  1.00  0.00     0.047 C
HETATM    7  C7  UNL     1      23.910  32.723  -4.852  1.00  0.00     0.026 C
HETATM    8  C8  UNL     1      23.696  34.220  -4.824  1.00  0.00     0.130 C
HETATM    9  C9  UNL     1      25.126  34.270  -5.263  1.00  0.00     0.059 C
ENDROOT
BRANCH   5  10
HETATM   10  N1  UNL     1      26.257  34.551  -3.084  1.00  0.00    -0.070 N
ATOM     11  H13 UNL     1      26.834  34.052  -2.407  1.00  0.00     0.275 HD
ATOM     12  H12 UNL     1      26.934  35.225  -3.445  1.00  0.00     0.275 HD
ATOM     13  H11 UNL     1      25.508  35.045  -2.598  1.00  0.00     0.275 HD
ENDBRANCH   5  10
BRANCH   8  14
HETATM   14  O1  UNL     1      22.750  34.725  -5.660  1.00  0.00    -0.395 OA
ATOM     15  H1  UNL     1      22.966  34.765  -6.584  1.00  0.00     0.210 HD
ENDBRANCH   8  14
TORSDOF 2
ENDMDL