MODEL 1
REMARK VINA RESULT: -3.353328588      0.000      0.000
REMARK  3 active torsions:
REMARK  status: ('A' for Active; 'I' for Inactive)
REMARK    1  A    between atoms: C2_2  and  N1_5
REMARK    2  A    between atoms: N1_5  and  S1_7
REMARK    3  A    between atoms: S1_7  and  N2_9
ROOT
HETATM    1  N1  UNL     1      33.136  21.573  -1.495  1.00  0.00    -0.328 N
ATOM      2  H1  UNL     1      33.403  22.324  -2.131  1.00  0.00     0.171 HD
ENDROOT
BRANCH   1   3
HETATM    3  C2  UNL     1      32.800  20.402  -2.120  1.00  0.00     0.028 C
HETATM    4  C1  UNL     1      31.271  20.274  -2.173  1.00  0.00     0.038 C
HETATM    5  C3  UNL     1      33.251  20.466  -3.586  1.00  0.00     0.038 C
HETATM    6  C4  UNL     1      33.327  19.130  -1.549  1.00  0.00     0.038 C
ENDBRANCH   1   3
BRANCH   1   7
HETATM    7  S1  UNL     1      33.190  22.041   0.306  1.00  0.00     0.097 S
HETATM    8  C5  UNL     1      32.853  20.838   1.706  1.00  0.00     0.160 C
HETATM    9  O1  UNL     1      31.546  22.516   0.139  1.00  0.00    -0.229 OA
BRANCH   7  10
HETATM   10  N2  UNL     1      33.571  23.846   0.761  1.00  0.00    -0.345 N
ATOM     11  H22 UNL     1      34.492  24.236   0.561  1.00  0.00     0.167 HD
ATOM     12  H21 UNL     1      32.838  24.401   1.203  1.00  0.00     0.167 HD
ENDBRANCH   7  10
ENDBRANCH   1   7
TORSDOF 3
ENDMDL