MODEL 2
REMARK VINA RESULT: -3.758783050     14.971     16.086
REMARK  2 active torsions:
REMARK  status: ('A' for Active; 'I' for Inactive)
REMARK    1  A    between atoms: C2_2  and  O1_3
REMARK    2  A    between atoms: C9_11  and  N1_12
ROOT
HETATM    1  C1  UNL     1      33.282  20.317  -3.382  1.00  0.00     0.048 C
HETATM    2  C2  UNL     1      33.012  20.084  -1.931  1.00  0.00     0.086 C
HETATM    3  C3  UNL     1      31.864  19.140  -1.726  1.00  0.00     0.022 C
HETATM    4  C4  UNL     1      30.521  19.815  -1.741  1.00  0.00     0.008 C
HETATM    5  C5  UNL     1      30.419  20.964  -0.777  1.00  0.00     0.007 C
HETATM    6  C6  UNL     1      31.779  21.063  -0.073  1.00  0.00     0.019 C
HETATM    7  C7  UNL     1      31.987  19.749   0.633  1.00  0.00     0.007 C
HETATM    8  C8  UNL     1      32.051  18.576  -0.309  1.00  0.00     0.008 C
HETATM    9  C9  UNL     1      32.796  21.336  -1.139  1.00  0.00     0.221 C
ENDROOT
BRANCH   9  10
HETATM   10  N1  UNL     1      34.017  21.911  -0.640  1.00  0.00    -0.072 N
ATOM     11  H13 UNL     1      34.087  21.791   0.371  1.00  0.00     0.274 HD
ATOM     12  H12 UNL     1      34.823  21.358  -0.931  1.00  0.00     0.274 HD
ATOM     13  H11 UNL     1      34.136  22.891  -0.898  1.00  0.00     0.274 HD
ENDBRANCH   9  10
BRANCH   2  14
HETATM   14  O1  UNL     1      34.150  19.448  -1.380  1.00  0.00    -0.388 OA
ATOM     15  H1  UNL     1      34.660  20.112  -0.932  1.00  0.00     0.210 HD
ENDBRANCH   2  14
TORSDOF 2
ENDMDL