MODEL 1
REMARK VINA RESULT: -3.883052860      0.000      0.000
REMARK  2 active torsions:
REMARK  status: ('A' for Active; 'I' for Inactive)
REMARK    1  A    between atoms: C2_2  and  O1_3
REMARK    2  A    between atoms: C6_8  and  O2_9
ROOT
HETATM    1  C1  UNL     1      23.496  34.589  -3.186  1.00  0.00     0.046 C
HETATM    2  C2  UNL     1      23.750  33.503  -4.197  1.00  0.00     0.058 C
HETATM    3  C3  UNL     1      24.914  32.615  -3.787  1.00  0.00     0.042 C
HETATM    4  C4  UNL     1      26.066  32.960  -4.675  1.00  0.00    -0.009 C
HETATM    5  C5  UNL     1      26.133  32.136  -5.924  1.00  0.00     0.036 C
HETATM    6  C6  UNL     1      24.878  32.104  -6.717  1.00  0.00     0.119 C
HETATM    7  C7  UNL     1      24.056  33.336  -6.676  1.00  0.00     0.039 C
HETATM    8  C8  UNL     1      24.247  34.192  -5.467  1.00  0.00     0.022 C
HETATM    9  C9  UNL     1      25.705  34.388  -5.108  1.00  0.00     0.012 C
ENDROOT
BRANCH   2  10
HETATM   10  O1  UNL     1      22.651  32.730  -4.463  1.00  0.00    -0.390 OA
ATOM     11  H1  UNL     1      22.656  32.344  -5.332  1.00  0.00     0.210 HD
ENDBRANCH   2  10
BRANCH   6  12
HETATM   12  O2  UNL     1      25.241  31.793  -8.048  1.00  0.00    -0.396 OA
ATOM     13  H2  UNL     1      24.490  31.994  -8.594  1.00  0.00     0.210 HD
ENDBRANCH   6  12
TORSDOF 2
ENDMDL