MODEL 4
REMARK VINA RESULT: -3.615433101      1.859      2.514
REMARK  2 active torsions:
REMARK  status: ('A' for Active; 'I' for Inactive)
REMARK    1  A    between atoms: C4_4  and  O1_5
REMARK    2  A    between atoms: C9_11  and  O2_12
ROOT
HETATM    1  C1  UNL     1      28.880  30.237  -4.482  1.00  0.00     0.018 C
HETATM    2  C2  UNL     1      28.335  31.528  -5.000  1.00  0.00    -0.015 C
HETATM    3  C3  UNL     1      28.050  31.364  -6.452  1.00  0.00     0.018 C
HETATM    4  C4  UNL     1      29.368  32.640  -4.759  1.00  0.00     0.133 C
HETATM    5  C5  UNL     1      28.741  33.553  -3.742  1.00  0.00     0.044 C
HETATM    6  C6  UNL     1      27.655  34.334  -4.442  1.00  0.00     0.010 C
HETATM    7  C7  UNL     1      26.582  33.273  -4.704  1.00  0.00     0.009 C
HETATM    8  C8  UNL     1      27.153  31.992  -4.187  1.00  0.00     0.025 C
HETATM    9  C9  UNL     1      27.887  32.550  -2.949  1.00  0.00     0.129 C
ENDROOT
BRANCH   4  10
HETATM   10  O1  UNL     1      30.570  32.117  -4.324  1.00  0.00    -0.394 OA
ATOM     11  H1  UNL     1      30.461  31.641  -3.509  1.00  0.00     0.210 HD
ENDBRANCH   4  10
BRANCH   9  12
HETATM   12  O2  UNL     1      26.937  33.176  -2.182  1.00  0.00    -0.395 OA
ATOM     13  H2  UNL     1      26.319  32.559  -1.808  1.00  0.00     0.210 HD
ENDBRANCH   9  12
TORSDOF 2
ENDMDL