MODEL 2
REMARK VINA RESULT: -3.521965339      1.095      3.400
REMARK  2 active torsions:
REMARK  status: ('A' for Active; 'I' for Inactive)
REMARK    1  A    between atoms: C3_3  and  O1_4
REMARK    2  A    between atoms: C6_8  and  O2_9
ROOT
HETATM    1  C1  UNL     1      26.398  32.204  -5.673  1.00  0.00     0.013 C
HETATM    2  C2  UNL     1      25.977  33.445  -4.905  1.00  0.00     0.021 C
HETATM    3  C3  UNL     1      26.478  33.304  -3.504  1.00  0.00     0.122 C
HETATM    4  C4  UNL     1      25.683  32.361  -2.658  1.00  0.00     0.034 C
HETATM    5  C5  UNL     1      24.212  32.408  -2.891  1.00  0.00     0.035 C
HETATM    6  C6  UNL     1      23.843  32.418  -4.350  1.00  0.00     0.126 C
HETATM    7  C7  UNL     1      24.500  33.595  -5.026  1.00  0.00    -0.016 C
HETATM    8  C8  UNL     1      24.156  33.593  -6.511  1.00  0.00     0.018 C
HETATM    9  C9  UNL     1      23.967  34.865  -4.436  1.00  0.00     0.018 C
ENDROOT
BRANCH   3  10
HETATM   10  O1  UNL     1      26.656  34.556  -2.912  1.00  0.00    -0.395 OA
ATOM     11  H1  UNL     1      27.314  34.515  -2.227  1.00  0.00     0.210 HD
ENDBRANCH   3  10
BRANCH   6  12
HETATM   12  O2  UNL     1      22.471  32.529  -4.485  1.00  0.00    -0.395 OA
ATOM     13  H2  UNL     1      22.124  31.748  -4.900  1.00  0.00     0.210 HD
ENDBRANCH   6  12
TORSDOF 2
ENDMDL