MODEL 4
REMARK VINA RESULT: -3.737615329      9.303     10.782
REMARK  2 active torsions:
REMARK  status: ('A' for Active; 'I' for Inactive)
REMARK    1  A    between atoms: C7_7  and  O1_9
REMARK    2  A    between atoms: C9_11  and  O2_12
ROOT
HETATM    1  C1  UNL     1      29.739  21.883  -0.954  1.00  0.00     0.013 C
HETATM    2  C2  UNL     1      28.567  21.343  -1.733  1.00  0.00     0.018 C
HETATM    3  C3  UNL     1      27.610  22.401  -2.178  1.00  0.00    -0.001 C
HETATM    4  C4  UNL     1      28.177  23.798  -2.266  1.00  0.00     0.006 C
HETATM    5  C5  UNL     1      27.819  23.782  -3.748  1.00  0.00     0.008 C
HETATM    6  C6  UNL     1      27.577  22.343  -3.708  1.00  0.00     0.027 C
HETATM    7  C7  UNL     1      28.559  21.363  -4.154  1.00  0.00     0.084 C
HETATM    8  C8  UNL     1      29.790  21.848  -4.810  1.00  0.00     0.049 C
HETATM    9  C9  UNL     1      28.961  20.544  -2.933  1.00  0.00     0.156 C
ENDROOT
BRANCH   7  10
HETATM   10  O1  UNL     1      27.941  20.440  -5.031  1.00  0.00    -0.387 OA
ATOM     11  H1  UNL     1      28.597  19.854  -5.389  1.00  0.00     0.210 HD
ENDBRANCH   7  10
BRANCH   9  12
HETATM   12  O2  UNL     1      28.368  19.302  -2.910  1.00  0.00    -0.392 OA
ATOM     13  H2  UNL     1      29.010  18.623  -2.740  1.00  0.00     0.210 HD
ENDBRANCH   9  12
TORSDOF 2
ENDMDL