MODEL 1
REMARK VINA RESULT: -7.258305582      0.000      0.000
REMARK  4 active torsions:
REMARK  status: ('A' for Active; 'I' for Inactive)
REMARK    1  A    between atoms: C2_2  and  O1_3
REMARK    2  A    between atoms: O1_3  and  C3_4
REMARK    3  A    between atoms: C3_4  and  C4_6
REMARK    4  A    between atoms: C4_6  and  C5_7
ROOT
HETATM    1  C5  UNL     1     -16.833  35.504  -3.015  1.00  0.00     0.142 C
HETATM    2  O3  UNL     1     -15.846  35.815  -3.960  1.00  0.00    -0.358 OA
HETATM    3  C6  UNL     1     -16.437  36.829  -4.710  1.00  0.00     0.249 C
HETATM    4  N1  UNL     1     -15.655  37.183  -5.865  1.00  0.00    -0.274 N
ATOM      5  H1  UNL     1     -15.419  38.136  -6.140  1.00  0.00     0.176 HD
HETATM    6  S1  UNL     1     -15.169  35.737  -6.727  1.00  0.00     0.322 S
HETATM    7  O4  UNL     1     -14.967  36.120  -8.147  1.00  0.00    -0.182 OA
HETATM    8  O5  UNL     1     -14.007  35.082  -6.092  1.00  0.00    -0.182 OA
HETATM    9  N2  UNL     1     -16.599  34.730  -6.666  1.00  0.00    -0.256 N
ATOM     10  H2  UNL     1     -16.579  33.763  -6.988  1.00  0.00     0.181 HD
HETATM   11  C7  UNL     1     -17.798  35.314  -6.145  1.00  0.00     0.099 C
HETATM   12  N3  UNL     1     -18.941  35.002  -6.679  1.00  0.00    -0.388 N
ATOM     13  H31 UNL     1     -19.795  35.419  -6.308  1.00  0.00     0.157 HD
ATOM     14  H32 UNL     1     -18.947  34.345  -7.458  1.00  0.00     0.157 HD
HETATM   15  C8  UNL     1     -17.789  36.273  -5.009  1.00  0.00     0.069 C
HETATM   16  C9  UNL     1     -18.784  37.364  -5.385  1.00  0.00     0.029 C
HETATM   17  C10 UNL     1     -18.146  35.640  -3.687  1.00  0.00    -0.002 C
HETATM   18  C11 UNL     1     -18.928  34.370  -3.800  1.00  0.00     0.019 C
HETATM   19  C12 UNL     1     -19.009  36.614  -2.870  1.00  0.00     0.019 C
ENDROOT
BRANCH   1  20
HETATM   20  C4  UNL     1     -16.576  34.131  -2.440  1.00  0.00     0.143 C
BRANCH  20  21
HETATM   21  C3  UNL     1     -16.446  34.199  -0.946  1.00  0.00     0.261 C
HETATM   22  O2  UNL     1     -15.889  33.263  -0.292  1.00  0.00    -0.265 OA
BRANCH  21  23
HETATM   23  O1  UNL     1     -16.922  35.271  -0.217  1.00  0.00    -0.322 OA
BRANCH  23  24
HETATM   24  C2  UNL     1     -17.941  35.124   0.755  1.00  0.00     0.174 C
HETATM   25  C1  UNL     1     -18.647  36.474   0.842  1.00  0.00     0.034 C
ENDBRANCH  23  24
ENDBRANCH  21  23
ENDBRANCH  20  21
ENDBRANCH   1  20
TORSDOF 4
ENDMDL