MODEL 1
REMARK VINA RESULT: -7.508874069      0.000      0.000
REMARK  6 active torsions:
REMARK  status: ('A' for Active; 'I' for Inactive)
REMARK    1  A    between atoms: O1_2  and  C2_3
REMARK    2  A    between atoms: C6_7  and  O2_8
REMARK    3  A    between atoms: O2_8  and  C7_9
REMARK    4  A    between atoms: C10_13  and  O4_14
REMARK    5  A    between atoms: C11_16  and  O5_17
REMARK    6  A    between atoms: C12_19  and  O6_20
ROOT
HETATM    1  C7  UNL     1     -19.689  37.112  -1.769  1.00  0.00     0.292 C
HETATM    2  O3  UNL     1     -20.091  36.734  -0.490  1.00  0.00    -0.351 OA
HETATM    3  C8  UNL     1     -20.463  37.730   0.343  1.00  0.00     0.152 C
HETATM    4  C9  UNL     1     -19.210  38.276   1.016  1.00  0.00     0.042 C
HETATM    5  C10 UNL     1     -21.230  38.860  -0.198  1.00  0.00     0.178 C
HETATM    6  C11 UNL     1     -20.608  39.336  -1.518  1.00  0.00     0.183 C
HETATM    7  C12 UNL     1     -20.671  38.073  -2.393  1.00  0.00     0.204 C
ENDROOT
BRANCH   1   8
HETATM    8  O2  UNL     1     -19.508  36.077  -2.617  1.00  0.00    -0.347 OA
BRANCH   8   9
HETATM    9  C6  UNL     1     -18.268  35.535  -2.809  1.00  0.00     0.069 C
HETATM   10  C5  UNL     1     -17.371  35.284  -1.654  1.00  0.00     0.042 C
HETATM   11  C4  UNL     1     -16.392  34.141  -1.858  1.00  0.00     0.032 C
HETATM   12  C3  UNL     1     -15.361  34.386  -2.853  1.00  0.00     0.006 C
HETATM   13  C2  UNL     1     -15.413  35.144  -3.945  1.00  0.00     0.047 C
HETATM   14  C15 UNL     1     -16.444  35.969  -4.534  1.00  0.00     0.054 A
HETATM   15  C14 UNL     1     -17.805  35.477  -4.847  1.00  0.00     0.007 A
HETATM   16  C16 UNL     1     -17.508  36.495  -3.725  1.00  0.00     0.036 A
HETATM   17  C13 UNL     1     -18.345  34.473  -3.870  1.00  0.00     0.044 C
BRANCH  13  18
HETATM   18  O1  UNL     1     -14.204  35.107  -4.630  1.00  0.00    -0.360 OA
HETATM   19  C1  UNL     1     -14.102  34.856  -6.015  1.00  0.00     0.209 C
ENDBRANCH  13  18
ENDBRANCH   8   9
ENDBRANCH   1   8
BRANCH   7  20
HETATM   20  O6  UNL     1     -20.354  38.387  -3.701  1.00  0.00    -0.388 OA
ATOM     21  H6  UNL     1     -19.472  38.727  -3.793  1.00  0.00     0.210 HD
ENDBRANCH   7  20
BRANCH   6  22
HETATM   22  O5  UNL     1     -21.454  40.278  -2.092  1.00  0.00    -0.390 OA
ATOM     23  H5  UNL     1     -21.205  41.140  -1.777  1.00  0.00     0.210 HD
ENDBRANCH   6  22
BRANCH   5  24
HETATM   24  O4  UNL     1     -21.427  39.901   0.673  1.00  0.00    -0.390 OA
ATOM     25  H4  UNL     1     -21.799  39.660   1.514  1.00  0.00     0.210 HD
ENDBRANCH   5  24
TORSDOF 6
ENDMDL