MODEL 5
REMARK VINA RESULT: -6.167405089      3.348      5.221
REMARK  8 active torsions:
REMARK  status: ('A' for Active; 'I' for Inactive)
REMARK    1  A    between atoms: N1_1  and  N2_4
REMARK    2  A    between atoms: N2_4  and  N3_5
REMARK    3  A    between atoms: N3_5  and  C1_7
REMARK    4  A    between atoms: C2_11  and  C3_12
REMARK    5  A    between atoms: C3_12  and  O1_13
REMARK    6  A    between atoms: C4_16  and  C5_17
REMARK    7  A    between atoms: C13_25  and  O3_26
REMARK    8  A    between atoms: C15_29  and  O4_30
ROOT
HETATM    1  C1  UNL     1     -18.107  35.749  -5.528  1.00  0.00     0.346 C
HETATM    2  N4  UNL     1     -17.594  35.938  -6.844  1.00  0.00    -0.021 N
ATOM      3  H41 UNL     1     -17.300  35.059  -7.271  1.00  0.00     0.283 HD
ATOM      4  H42 UNL     1     -16.690  36.410  -6.839  1.00  0.00     0.283 HD
HETATM    5  C2  UNL     1     -18.572  36.639  -7.655  1.00  0.00     0.347 C
HETATM    6  O2  UNL     1     -18.888  37.886  -7.124  1.00  0.00    -0.348 OA
HETATM    7  C4  UNL     1     -19.565  37.626  -5.910  1.00  0.00     0.168 C
HETATM    8  C15 UNL     1     -18.504  37.129  -4.970  1.00  0.00     0.200 C
ENDROOT
BRANCH   7   9
HETATM    9  C5  UNL     1     -20.349  38.804  -5.444  1.00  0.00     0.015 C
HETATM   10  C6  UNL     1     -21.792  38.625  -5.836  1.00  0.00     0.019 C
HETATM   11  C7  UNL     1     -22.640  39.835  -5.494  1.00  0.00    -0.013 C
HETATM   12  C8  UNL     1     -22.543  40.024  -3.998  1.00  0.00     0.009 C
HETATM   13  C12 UNL     1     -22.154  41.005  -6.280  1.00  0.00     0.012 C
HETATM   14  C9  UNL     1     -21.095  40.309  -3.666  1.00  0.00    -0.013 C
HETATM   15  C10 UNL     1     -20.673  41.541  -4.411  1.00  0.00     0.012 C
HETATM   16  C14 UNL     1     -20.239  39.105  -3.993  1.00  0.00     0.019 C
HETATM   17  C11 UNL     1     -20.708  41.244  -5.898  1.00  0.00     0.016 C
HETATM   18  C13 UNL     1     -19.849  40.053  -6.188  1.00  0.00     0.133 C
BRANCH  18  19
HETATM   19  O3  UNL     1     -19.802  39.847  -7.553  1.00  0.00    -0.394 OA
ATOM     20  H3  UNL     1     -19.593  40.648  -8.021  1.00  0.00     0.210 HD
ENDBRANCH  18  19
ENDBRANCH   7   9
BRANCH   8  21
HETATM   21  O4  UNL     1     -17.412  37.999  -5.064  1.00  0.00    -0.389 OA
ATOM     22  H4  UNL     1     -16.944  38.006  -4.237  1.00  0.00     0.210 HD
ENDBRANCH   8  21
BRANCH   5  23
HETATM   23  C3  UNL     1     -18.030  36.751  -9.064  1.00  0.00     0.225 C
BRANCH  23  24
HETATM   24  O1  UNL     1     -18.032  38.112  -9.433  1.00  0.00    -0.397 OA
ATOM     25  H1  UNL     1     -17.195  38.489  -9.189  1.00  0.00     0.209 HD
ENDBRANCH  23  24
ENDBRANCH   5  23
BRANCH   1  26
HETATM   26  N3  UNL     1     -17.287  35.021  -4.643  1.00  0.00    -0.218 N
ATOM     27  H3  UNL     1     -17.652  34.129  -4.310  1.00  0.00     0.199 HD
BRANCH  26  28
HETATM   28  N2  UNL     1     -16.189  35.347  -4.235  1.00  0.00    -0.246 NA
BRANCH  28  29
HETATM   29  N1  UNL     1     -15.122  35.842  -3.957  1.00  0.00    -0.261 N
ATOM     30  H12 UNL     1     -15.368  36.645  -4.537  1.00  0.00     0.193 HD
ATOM     31  H11 UNL     1     -14.196  36.110  -3.625  1.00  0.00     0.193 HD
ENDBRANCH  28  29
ENDBRANCH  26  28
ENDBRANCH   1  26
TORSDOF 8
ENDMDL