MODEL 4
REMARK VINA RESULT: -5.937436905      3.442      5.602
REMARK  8 active torsions:
REMARK  status: ('A' for Active; 'I' for Inactive)
REMARK    1  A    between atoms: C2_2  and  C3_3
REMARK    2  A    between atoms: C4_4  and  O1_5
REMARK    3  A    between atoms: C6_9  and  C7_10
REMARK    4  A    between atoms: C7_10  and  N2_11
REMARK    5  A    between atoms: N2_11  and  N3_13
REMARK    6  A    between atoms: N3_13  and  N4_14
REMARK    7  A    between atoms: C13_23  and  O2_24
REMARK    8  A    between atoms: C14_26  and  O3_27
ROOT
HETATM    1  C3  UNL     1     -16.052  34.391  -7.072  1.00  0.00     0.047 C
HETATM    2  C4  UNL     1     -15.053  35.355  -6.480  1.00  0.00     0.153 C
HETATM    3  C5  UNL     1     -15.194  35.400  -4.948  1.00  0.00     0.308 C
HETATM    4  N1  UNL     1     -16.549  35.081  -4.669  1.00  0.00     0.136 N
HETATM    5  C6  UNL     1     -16.939  34.930  -3.317  1.00  0.00     0.477 C
HETATM    6  N5  UNL     1     -17.595  36.168  -2.934  1.00  0.00     0.131 N
HETATM    7  C8  UNL     1     -18.498  35.989  -1.835  1.00  0.00     0.314 C
HETATM    8  C9  UNL     1     -18.245  36.641  -4.146  1.00  0.00     0.188 C
HETATM    9  C10 UNL     1     -18.073  38.153  -4.156  1.00  0.00     0.051 C
HETATM   10  C11 UNL     1     -19.699  36.349  -4.214  1.00  0.00     0.051 C
HETATM   11  C12 UNL     1     -17.430  36.076  -5.263  1.00  0.00     0.294 C
HETATM   12  C13 UNL     1     -18.219  35.432  -6.358  1.00  0.00     0.183 C
HETATM   13  C14 UNL     1     -17.321  35.068  -7.518  1.00  0.00     0.155 C
ENDROOT
BRANCH   5  14
HETATM   14  C7  UNL     1     -15.886  34.598  -2.326  1.00  0.00     0.224 C
BRANCH  14  15
HETATM   15  N2  UNL     1     -16.236  33.571  -1.376  1.00  0.00    -0.249 N
ATOM     16  H2  UNL     1     -16.493  32.635  -1.686  1.00  0.00     0.197 HD
BRANCH  15  17
HETATM   17  N3  UNL     1     -16.214  33.857  -0.189  1.00  0.00    -0.248 NA
BRANCH  17  18
HETATM   18  N4  UNL     1     -16.308  34.435   0.911  1.00  0.00    -0.261 N
ATOM     19  H42 UNL     1     -16.931  33.726   1.298  1.00  0.00     0.193 HD
ATOM     20  H41 UNL     1     -16.219  35.085   1.693  1.00  0.00     0.193 HD
ENDBRANCH  17  18
ENDBRANCH  15  17
ENDBRANCH  14  15
ENDBRANCH   5  14
BRANCH   2  21
HETATM   21  O1  UNL     1     -13.779  34.820  -6.764  1.00  0.00    -0.393 OA
ATOM     22  H1  UNL     1     -13.434  35.332  -7.486  1.00  0.00     0.210 HD
ENDBRANCH   2  21
BRANCH  12  23
HETATM   23  O2  UNL     1     -19.146  36.368  -6.871  1.00  0.00    -0.391 OA
ATOM     24  H2  UNL     1     -19.651  35.957  -7.562  1.00  0.00     0.210 HD
ENDBRANCH  12  23
BRANCH   1  25
HETATM   25  C2  UNL     1     -15.430  33.574  -8.195  1.00  0.00     0.005 C
HETATM   26  C1  UNL     1     -15.298  34.379  -9.463  1.00  0.00     0.005 C
ENDBRANCH   1  25
BRANCH  13  27
HETATM   27  O3  UNL     1     -18.030  34.128  -8.284  1.00  0.00    -0.392 OA
ATOM     28  H3  UNL     1     -18.952  34.269  -8.102  1.00  0.00     0.210 HD
ENDBRANCH  13  27
TORSDOF 8
ENDMDL