MODEL 1
REMARK VINA RESULT: -6.243861408      0.000      0.000
REMARK  4 active torsions:
REMARK  status: ('A' for Active; 'I' for Inactive)
REMARK    1  A    between atoms: C2_2  and  O1_3
REMARK       I    between atoms: N1_6  and  C4_8
REMARK    2  A    between atoms: C4_8  and  C5_10
REMARK    3  A    between atoms: C5_10  and  C6_11
REMARK    4  A    between atoms: C7_14  and  C8_15
ROOT
HETATM    1  C1  UNL     1     -15.931  35.108  -5.305  1.00  0.00     0.053 C
HETATM    2  C2  UNL     1     -16.058  35.952  -6.527  1.00  0.00     0.106 C
HETATM    3  C3  UNL     1     -17.451  36.299  -6.906  1.00  0.00     0.070 C
HETATM    4  N1  UNL     1     -18.447  36.695  -6.196  1.00  0.00    -0.328 N
ATOM      5  H1  UNL     1     -19.322  36.872  -6.688  1.00  0.00     0.168 HD
HETATM    6  C4  UNL     1     -18.447  36.905  -4.804  1.00  0.00     0.231 C
HETATM    7  O2  UNL     1     -17.827  37.858  -4.273  1.00  0.00    -0.273 OA
HETATM    8  C7  UNL     1     -17.501  36.099  -8.397  1.00  0.00     0.197 C
HETATM    9  O7  UNL     1     -16.601  36.922  -9.024  1.00  0.00    -0.362 OA
HETATM   10  C9  UNL     1     -15.310  36.442  -8.754  1.00  0.00     0.183 C
HETATM   11  C10 UNL     1     -15.531  35.305  -7.777  1.00  0.00     0.024 C
HETATM   12  C11 UNL     1     -14.439  34.361  -7.637  1.00  0.00     0.022 C
HETATM   13  C12 UNL     1     -16.781  34.749  -8.483  1.00  0.00     0.012 C
HETATM   14  C13 UNL     1     -16.517  34.453  -9.925  1.00  0.00     0.020 C
HETATM   15  C14 UNL     1     -17.454  33.676  -7.728  1.00  0.00     0.020 C
ENDROOT
BRANCH   2  16
HETATM   16  O1  UNL     1     -15.371  37.148  -6.299  1.00  0.00    -0.383 OA
ATOM     17  H1  UNL     1     -14.770  37.008  -5.577  1.00  0.00     0.211 HD
ENDBRANCH   2  16
BRANCH   8  18
HETATM   18  C8  UNL     1     -18.831  36.087  -8.944  1.00  0.00     0.216 C
HETATM   19  O5  UNL     1     -19.342  35.071  -9.474  1.00  0.00    -0.645 OA
HETATM   20  O6  UNL     1     -19.610  37.234  -8.897  1.00  0.00    -0.645 OA
ENDBRANCH   8  18
BRANCH   6  21
HETATM   21  C5  UNL     1     -19.195  35.981  -3.946  1.00  0.00     0.216 C
BRANCH  21  22
HETATM   22  C6  UNL     1     -18.613  35.825  -2.594  1.00  0.00     0.181 C
HETATM   23  O3  UNL     1     -17.705  35.004  -2.331  1.00  0.00    -0.648 OA
HETATM   24  O4  UNL     1     -19.058  36.600  -1.524  1.00  0.00    -0.648 OA
ENDBRANCH  21  22
ENDBRANCH   6  21
TORSDOF 4
ENDMDL