MODEL 4
REMARK VINA RESULT: -6.733830569      0.825      1.771
REMARK  6 active torsions:
REMARK  status: ('A' for Active; 'I' for Inactive)
REMARK    1  A    between atoms: C9_11  and  C10_12
REMARK    2  A    between atoms: C10_12  and  C11_13
REMARK    3  A    between atoms: C10_12  and  C12_16
REMARK    4  A    between atoms: C11_13  and  O3_14
REMARK    5  A    between atoms: C12_16  and  O4_17
REMARK    6  A    between atoms: C16_23  and  O6_24
ROOT
HETATM    1  C1  UNL     1     -16.862  33.999  -7.464  1.00  0.00     0.017 C
HETATM    2  C2  UNL     1     -17.155  35.240  -6.584  1.00  0.00    -0.019 C
HETATM    3  C3  UNL     1     -17.648  36.283  -7.600  1.00  0.00     0.017 C
HETATM    4  C4  UNL     1     -18.318  34.830  -5.759  1.00  0.00     0.046 C
HETATM    5  C5  UNL     1     -18.728  35.606  -4.598  1.00  0.00     0.153 C
HETATM    6  O1  UNL     1     -18.631  34.808  -3.432  1.00  0.00    -0.370 OA
HETATM    7  C6  UNL     1     -17.561  35.233  -2.699  1.00  0.00     0.085 C
HETATM    8  C7  UNL     1     -16.655  34.120  -2.216  1.00  0.00     0.049 C
HETATM    9  C8  UNL     1     -18.099  35.894  -1.434  1.00  0.00     0.209 C
HETATM   10  O2  UNL     1     -19.299  36.501  -1.803  1.00  0.00    -0.358 OA
HETATM   11  C9  UNL     1     -18.973  37.733  -2.327  1.00  0.00     0.268 C
HETATM   12  O5  UNL     1     -18.657  37.808  -3.610  1.00  0.00    -0.352 OA
HETATM   13  C13 UNL     1     -17.982  36.866  -4.273  1.00  0.00     0.160 C
HETATM   14  C14 UNL     1     -16.795  36.253  -3.558  1.00  0.00     0.056 C
HETATM   15  C15 UNL     1     -15.887  35.475  -4.411  1.00  0.00     0.042 C
HETATM   16  C16 UNL     1     -15.929  35.670  -5.891  1.00  0.00     0.126 C
ENDROOT
BRANCH  11  17
HETATM   17  C10 UNL     1     -20.130  38.668  -2.031  1.00  0.00     0.088 C
BRANCH  17  18
HETATM   18  C11 UNL     1     -21.007  38.125  -0.925  1.00  0.00     0.175 C
BRANCH  18  19
HETATM   19  O3  UNL     1     -20.291  38.267   0.270  1.00  0.00    -0.400 OA
ATOM     20  H3  UNL     1     -19.454  37.836   0.144  1.00  0.00     0.209 HD
ENDBRANCH  18  19
ENDBRANCH  17  18
BRANCH  17  21
HETATM   21  C12 UNL     1     -20.984  38.876  -3.276  1.00  0.00     0.175 C
BRANCH  21  22
HETATM   22  O4  UNL     1     -20.542  39.986  -3.991  1.00  0.00    -0.400 OA
ATOM     23  H4  UNL     1     -20.754  39.895  -4.912  1.00  0.00     0.209 HD
ENDBRANCH  21  22
ENDBRANCH  17  21
ENDBRANCH  11  17
BRANCH  16  24
HETATM   24  O6  UNL     1     -15.444  36.940  -6.298  1.00  0.00    -0.395 OA
ATOM     25  H6  UNL     1     -14.568  36.925  -6.663  1.00  0.00     0.210 HD
ENDBRANCH  16  24
TORSDOF 6
ENDMDL