MODEL 2
REMARK VINA RESULT: -5.956749382      3.369      6.013
REMARK  8 active torsions:
REMARK  status: ('A' for Active; 'I' for Inactive)
REMARK    1  A    between atoms: C3_3  and  O1_4
REMARK    2  A    between atoms: C4_7  and  C6_9
REMARK    3  A    between atoms: C6_9  and  O4_11
REMARK    4  A    between atoms: O4_11  and  C7_12
REMARK    5  A    between atoms: C9_14  and  O5_15
REMARK    6  A    between atoms: C10_17  and  N1_18
REMARK    7  A    between atoms: N1_18  and  C11_20
REMARK    8  A    between atoms: C11_20  and  S2_22
ROOT
HETATM    1  C1  UNL     1     -14.441  34.781  -4.380  1.00  0.00     0.017 C
HETATM    2  C2  UNL     1     -15.406  35.468  -4.652  1.00  0.00    -0.047 C
HETATM    3  C3  UNL     1     -16.583  36.309  -5.014  1.00  0.00     0.254 C
HETATM    4  O2  UNL     1     -17.052  36.943  -3.889  1.00  0.00    -0.319 OA
HETATM    5  C4  UNL     1     -18.270  36.402  -3.547  1.00  0.00     0.177 C
HETATM    6  C5  UNL     1     -19.240  37.497  -3.083  1.00  0.00     0.060 C
HETATM    7  C9  UNL     1     -18.852  35.729  -4.737  1.00  0.00     0.191 C
HETATM    8  C10 UNL     1     -17.657  35.503  -5.633  1.00  0.00     0.191 C
ENDROOT
BRANCH   3   9
HETATM    9  O1  UNL     1     -16.075  37.231  -5.924  1.00  0.00    -0.354 OA
ATOM     10  H1  UNL     1     -16.491  38.050  -5.681  1.00  0.00     0.214 HD
ENDBRANCH   3   9
BRANCH   8  11
HETATM   11  N1  UNL     1     -17.920  35.723  -7.021  1.00  0.00    -0.362 N
ATOM     12  H1  UNL     1     -18.243  36.658  -7.266  1.00  0.00     0.161 HD
BRANCH  11  13
HETATM   13  C11 UNL     1     -17.794  34.821  -8.091  1.00  0.00     0.134 C
HETATM   14  S1  UNL     1     -18.836  34.681  -9.333  1.00  0.00    -0.053 SA
BRANCH  13  15
HETATM   15  S2  UNL     1     -16.385  33.686  -8.148  1.00  0.00    -0.105 SA
HETATM   16  C12 UNL     1     -14.818  34.554  -8.134  1.00  0.00     0.098 C
ENDBRANCH  13  15
ENDBRANCH  11  13
ENDBRANCH   8  11
BRANCH   5  17
HETATM   17  C6  UNL     1     -18.080  35.502  -2.381  1.00  0.00     0.296 C
HETATM   18  O3  UNL     1     -17.502  34.394  -2.466  1.00  0.00    -0.262 OA
BRANCH  17  19
HETATM   19  O4  UNL     1     -18.559  35.892  -1.143  1.00  0.00    -0.319 OA
BRANCH  19  20
HETATM   20  C7  UNL     1     -17.856  35.516   0.025  1.00  0.00     0.174 C
HETATM   21  C8  UNL     1     -18.221  36.502   1.112  1.00  0.00     0.034 C
ENDBRANCH  19  20
ENDBRANCH  17  19
ENDBRANCH   5  17
BRANCH   7  22
HETATM   22  O5  UNL     1     -19.465  34.505  -4.379  1.00  0.00    -0.390 OA
ATOM     23  H5  UNL     1     -20.067  34.215  -5.054  1.00  0.00     0.210 HD
ENDBRANCH   7  22
TORSDOF 8
ENDMDL