MODEL 4
REMARK VINA RESULT: -5.571276813      2.682      4.020
REMARK  9 active torsions:
REMARK  status: ('A' for Active; 'I' for Inactive)
REMARK    1  A    between atoms: C3_3  and  C4_4
REMARK    2  A    between atoms: C5_5  and  C6_6
REMARK    3  A    between atoms: C7_8  and  O2_9
REMARK    4  A    between atoms: C7_8  and  S1_11
REMARK    5  A    between atoms: C9_13  and  N1_14
REMARK    6  A    between atoms: N1_14  and  C11_16
REMARK    7  A    between atoms: C13_18  and  C14_19
REMARK    8  A    between atoms: C14_19  and  O3_20
REMARK    9  A    between atoms: C15_22  and  O4_23
ROOT
HETATM    1  C1  UNL     1     -16.725  34.806   1.618  1.00  0.00     0.113 C
HETATM    2  C2  UNL     1     -16.733  34.840   0.161  1.00  0.00    -0.097 C
HETATM    3  C3  UNL     1     -16.761  34.872  -1.053  1.00  0.00    -0.015 C
ENDROOT
BRANCH   3   4
HETATM    4  C4  UNL     1     -16.817  34.904  -2.460  1.00  0.00    -0.012 C
HETATM    5  C5  UNL     1     -16.858  34.909  -3.670  1.00  0.00    -0.058 C
BRANCH   5   6
HETATM    6  C6  UNL     1     -16.902  34.888  -5.158  1.00  0.00     0.234 C
HETATM    7  O1  UNL     1     -17.876  35.761  -5.510  1.00  0.00    -0.324 OA
HETATM    8  C7  UNL     1     -18.102  35.997  -6.844  1.00  0.00     0.248 C
HETATM    9  C9  UNL     1     -16.875  36.513  -7.513  1.00  0.00     0.304 C
HETATM   10  C13 UNL     1     -15.673  35.720  -7.120  1.00  0.00     0.081 C
HETATM   11  C15 UNL     1     -15.581  35.475  -5.610  1.00  0.00     0.167 C
BRANCH   8  12
HETATM   12  O2  UNL     1     -18.713  34.972  -7.527  1.00  0.00    -0.355 OA
ATOM     13  H2  UNL     1     -19.662  34.975  -7.499  1.00  0.00     0.214 HD
ENDBRANCH   8  12
BRANCH   8  14
HETATM   14  S1  UNL     1     -19.348  37.396  -6.719  1.00  0.00    -0.104 SA
HETATM   15  C8  UNL     1     -19.194  37.967  -4.991  1.00  0.00     0.095 C
ENDBRANCH   8  14
BRANCH   9  16
HETATM   16  N1  UNL     1     -16.954  36.509  -8.960  1.00  0.00     0.095 N
HETATM   17  C10 UNL     1     -18.017  37.435  -9.408  1.00  0.00     0.310 C
BRANCH  16  18
HETATM   18  C11 UNL     1     -15.688  37.063  -9.443  1.00  0.00     0.268 C
HETATM   19  C12 UNL     1     -15.404  36.624 -10.864  1.00  0.00     0.037 C
ENDBRANCH  16  18
ENDBRANCH   9  16
BRANCH  10  20
HETATM   20  C14 UNL     1     -15.419  34.451  -7.860  1.00  0.00     0.173 C
BRANCH  20  21
HETATM   21  O3  UNL     1     -14.109  34.198  -8.200  1.00  0.00    -0.400 OA
ATOM     22  H3  UNL     1     -13.448  34.603  -7.651  1.00  0.00     0.209 HD
ENDBRANCH  20  21
ENDBRANCH  10  20
BRANCH  11  23
HETATM   23  O4  UNL     1     -14.512  34.617  -5.409  1.00  0.00    -0.392 OA
ATOM     24  H4  UNL     1     -13.760  34.832  -5.948  1.00  0.00     0.210 HD
ENDBRANCH  11  23
ENDBRANCH   5   6
ENDBRANCH   3   4
TORSDOF 9
ENDMDL