MODEL 4
REMARK VINA RESULT: -5.993793892      2.637      5.265
REMARK  5 active torsions:
REMARK  status: ('A' for Active; 'I' for Inactive)
REMARK    1  A    between atoms: C10_11  and  O2_12
REMARK    2  A    between atoms: O2_12  and  C11_13
REMARK    3  A    between atoms: C14_17  and  O4_18
REMARK    4  A    between atoms: C15_20  and  O5_21
REMARK    5  A    between atoms: C16_23  and  O6_24
ROOT
HETATM    1  C1  UNL     1     -15.079  34.242  -2.619  1.00  0.00     0.017 C
HETATM    2  C2  UNL     1     -16.059  34.857  -2.929  1.00  0.00    -0.080 C
HETATM    3  C3  UNL     1     -17.242  35.600  -3.302  1.00  0.00     0.025 C
HETATM    4  C4  UNL     1     -18.307  35.570  -2.468  1.00  0.00     0.023 C
HETATM    5  C5  UNL     1     -19.511  36.341  -2.863  1.00  0.00     0.142 C
HETATM    6  C6  UNL     1     -20.320  36.518  -1.568  1.00  0.00     0.044 C
HETATM    7  O1  UNL     1     -19.053  37.641  -3.160  1.00  0.00    -0.369 OA
HETATM    8  C7  UNL     1     -18.250  37.623  -4.296  1.00  0.00     0.085 C
HETATM    9  C8  UNL     1     -19.150  38.034  -5.467  1.00  0.00     0.049 C
HETATM   10  C9  UNL     1     -17.272  38.800  -4.149  1.00  0.00     0.049 C
HETATM   11  C10 UNL     1     -17.463  36.399  -4.531  1.00  0.00     0.200 C
ENDROOT
BRANCH  11  12
HETATM   12  O2  UNL     1     -18.026  35.531  -5.467  1.00  0.00    -0.345 OA
BRANCH  12  13
HETATM   13  C11 UNL     1     -17.054  34.959  -6.324  1.00  0.00     0.292 C
HETATM   14  O3  UNL     1     -17.769  34.143  -7.165  1.00  0.00    -0.351 OA
HETATM   15  C12 UNL     1     -17.384  34.006  -8.448  1.00  0.00     0.152 C
HETATM   16  C13 UNL     1     -17.779  32.638  -8.966  1.00  0.00     0.042 C
HETATM   17  C14 UNL     1     -15.931  34.243  -8.757  1.00  0.00     0.178 C
HETATM   18  C15 UNL     1     -15.412  35.496  -8.105  1.00  0.00     0.183 C
HETATM   19  C16 UNL     1     -16.417  36.059  -7.113  1.00  0.00     0.204 C
BRANCH  17  20
HETATM   20  O4  UNL     1     -15.197  33.150  -8.351  1.00  0.00    -0.390 OA
ATOM     21  H4  UNL     1     -15.781  32.412  -8.216  1.00  0.00     0.210 HD
ENDBRANCH  17  20
BRANCH  18  22
HETATM   22  O5  UNL     1     -15.089  36.501  -9.005  1.00  0.00    -0.390 OA
ATOM     23  H5  UNL     1     -14.311  36.319  -9.519  1.00  0.00     0.210 HD
ENDBRANCH  18  22
BRANCH  19  24
HETATM   24  O6  UNL     1     -17.412  36.767  -7.784  1.00  0.00    -0.388 OA
ATOM     25  H6  UNL     1     -17.194  37.692  -7.769  1.00  0.00     0.210 HD
ENDBRANCH  19  24
ENDBRANCH  12  13
ENDBRANCH  11  12
TORSDOF 5
ENDMDL