MODEL 2
REMARK VINA RESULT: -7.385345612      2.186      4.787
REMARK  5 active torsions:
REMARK  status: ('A' for Active; 'I' for Inactive)
REMARK    1  A    between atoms: C2_2  and  C3_3
REMARK    2  A    between atoms: C3_3  and  C4_4
REMARK    3  A    between atoms: C4_4  and  N1_5
REMARK    4  A    between atoms: C6_8  and  N2_9
REMARK    5  A    between atoms: N2_9  and  C7_11
ROOT
HETATM    1  N1  UNL     1     -17.349  35.684  -3.202  1.00  0.00    -0.303 N
HETATM    2  C5  UNL     1     -16.507  35.742  -4.273  1.00  0.00     0.292 A
HETATM    3  O1  UNL     1     -15.631  34.846  -4.328  1.00  0.00    -0.264 OA
HETATM    4  C6  UNL     1     -16.572  36.706  -5.263  1.00  0.00     0.173 A
HETATM    5  N3  UNL     1     -17.532  37.642  -5.151  1.00  0.00    -0.322 N
ATOM      6  H3  UNL     1     -17.612  38.369  -5.861  1.00  0.00     0.169 HD
HETATM    7  C11 UNL     1     -18.377  37.629  -4.127  1.00  0.00     0.146 A
HETATM    8  C12 UNL     1     -18.297  36.636  -3.123  1.00  0.00     0.151 A
HETATM    9  C13 UNL     1     -19.192  36.683  -2.092  1.00  0.00     0.280 A
HETATM   10  O2  UNL     1     -19.162  35.833  -1.182  1.00  0.00    -0.265 OA
HETATM   11  N4  UNL     1     -20.134  37.677  -2.056  1.00  0.00    -0.273 N
ATOM     12  H4  UNL     1     -20.802  37.713  -1.287  1.00  0.00     0.173 HD
HETATM   13  C14 UNL     1     -20.183  38.601  -3.023  1.00  0.00     0.330 A
HETATM   14  O3  UNL     1     -21.062  39.522  -2.984  1.00  0.00    -0.246 OA
HETATM   15  N5  UNL     1     -19.319  38.589  -4.054  1.00  0.00    -0.287 N
HETATM   16  C15 UNL     1     -19.380  39.601  -5.105  1.00  0.00     0.163 C
ENDROOT
BRANCH   4  17
HETATM   17  N2  UNL     1     -15.760  36.710  -6.237  1.00  0.00    -0.364 N
ATOM     18  H2  UNL     1     -14.926  37.278  -6.088  1.00  0.00     0.162 HD
BRANCH  17  19
HETATM   19  C7  UNL     1     -15.812  36.066  -7.493  1.00  0.00     0.021 C
HETATM   20  C8  UNL     1     -17.093  35.349  -7.773  1.00  0.00     0.037 C
HETATM   21  C9  UNL     1     -14.695  35.001  -7.472  1.00  0.00     0.037 C
HETATM   22  C10 UNL     1     -15.529  36.974  -8.664  1.00  0.00     0.037 C
ENDBRANCH  17  19
ENDBRANCH   4  17
BRANCH   1  23
HETATM   23  C4  UNL     1     -17.225  34.671  -2.220  1.00  0.00     0.133 C
BRANCH  23  24
HETATM   24  C3  UNL     1     -16.051  34.790  -1.287  1.00  0.00     0.020 C
BRANCH  24  25
HETATM   25  C2  UNL     1     -16.247  34.014  -0.004  1.00  0.00    -0.003 C
HETATM   26  C1  UNL     1     -16.660  34.971   1.076  1.00  0.00     0.005 C
ENDBRANCH  24  25
ENDBRANCH  23  24
ENDBRANCH   1  23
TORSDOF 5
ENDMDL