MODEL 3
REMARK VINA RESULT: -4.704814234      1.747      1.907
REMARK  8 active torsions:
REMARK  status: ('A' for Active; 'I' for Inactive)
REMARK    1  A    between atoms: C2_3  and  N2_4
REMARK    2  A    between atoms: N2_4  and  C3_6
REMARK    3  A    between atoms: C3_6  and  C4_7
REMARK    4  A    between atoms: C4_7  and  S1_8
REMARK    5  A    between atoms: S1_8  and  S2_9
REMARK    6  A    between atoms: S2_9  and  C5_10
REMARK    7  A    between atoms: C7_15  and  N5_16
REMARK    8  A    between atoms: C8_21  and  N7_22
ROOT
HETATM    1  N1  UNL     1      21.013   1.541 144.511  1.00  0.00    -0.196 NA
HETATM    2  C1  UNL     1      21.218   0.530 145.068  1.00  0.00     0.078 C
HETATM    3  C2  UNL     1      21.478  -0.740 145.728  1.00  0.00     0.238 C
ENDROOT
BRANCH   3   4
HETATM    4  N2  UNL     1      20.293  -1.516 145.827  1.00  0.00    -0.409 N
ATOM      5  H2  UNL     1      20.160  -2.378 145.298  1.00  0.00     0.154 HD
BRANCH   4   6
HETATM    6  C3  UNL     1      19.274  -0.992 146.743  1.00  0.00     0.125 C
BRANCH   6   7
HETATM    7  C4  UNL     1      19.913  -1.123 148.097  1.00  0.00     0.105 C
BRANCH   7   8
HETATM    8  S1  UNL     1      20.068   0.337 149.087  1.00  0.00    -0.090 SA
BRANCH   8   9
HETATM    9  S2  UNL     1      19.863   0.011 151.214  1.00  0.00    -0.051 SA
BRANCH   9  10
HETATM   10  C5  UNL     1      21.040   1.176 151.982  1.00  0.00     0.097 A
HETATM   11  C6  UNL     1      20.606   2.387 152.478  1.00  0.00     0.153 A
HETATM   12  N3  UNL     1      19.248   2.715 152.328  1.00  0.00    -0.081 NA
HETATM   13  N4  UNL     1      21.504   3.168 153.099  1.00  0.00    -0.178 N
HETATM   14  C7  UNL     1      22.815   2.815 153.244  1.00  0.00     0.678 A
ATOM     15  H4  UNL     1      21.194   4.063 153.478  1.00  0.00     0.185 HD
HETATM   16  N6  UNL     1      23.227   1.588 152.752  1.00  0.00    -0.176 N
HETATM   17  C8  UNL     1      22.333   0.786 152.126  1.00  0.00     0.135 A
ATOM     18  H6  UNL     1      24.196   1.290 152.860  1.00  0.00     0.186 HD
BRANCH  14  19
HETATM   19  N5  UNL     1      23.638   3.597 153.556  1.00  0.00    -0.234 N
ATOM     20  H52 UNL     1      23.598   3.995 154.494  1.00  0.00     0.174 HD
ATOM     21  H51 UNL     1      24.484   3.735 153.005  1.00  0.00     0.174 HD
ENDBRANCH  14  19
BRANCH  17  22
HETATM   22  N7  UNL     1      22.743  -0.310 151.487  1.00  0.00    -0.384 N
ATOM     23  H72 UNL     1      23.245  -0.235 150.603  1.00  0.00     0.157 HD
ATOM     24  H71 UNL     1      22.427  -1.218 151.827  1.00  0.00     0.157 HD
ENDBRANCH  17  22
ENDBRANCH   9  10
ENDBRANCH   8   9
ENDBRANCH   7   8
ENDBRANCH   6   7
ENDBRANCH   4   6
ENDBRANCH   3   4
TORSDOF 8
ENDMDL