MODEL 2
REMARK VINA RESULT: -6.243877184      2.509      2.603
REMARK  7 active torsions:
REMARK  status: ('A' for Active; 'I' for Inactive)
REMARK       I    between atoms: C1_2  and  N2_4
REMARK    1  A    between atoms: N2_4  and  N3_6
REMARK    2  A    between atoms: N3_6  and  C2_7
REMARK    3  A    between atoms: C2_7  and  O2_8
REMARK    4  A    between atoms: C2_7  and  N4_10
REMARK    5  A    between atoms: N4_10  and  C3_12
REMARK    6  A    between atoms: C7_16  and  N5_17
REMARK    7  A    between atoms: N6_19  and  N7_21
ROOT
HETATM    1  N7  UNL     1      24.411   2.594 155.770  1.00  0.00    -0.263 N
ATOM      2  H7  UNL     1      24.605   1.859 156.450  1.00  0.00     0.191 HD
HETATM    3  C8  UNL     1      25.152   3.619 155.799  1.00  0.00     0.369 C
HETATM    4  O3  UNL     1      25.878   4.607 155.856  1.00  0.00    -0.282 OA
ENDROOT
BRANCH   1   5
HETATM    5  N6  UNL     1      23.366   2.385 154.901  1.00  0.00    -0.240 N
HETATM    6  N5  UNL     1      23.417   2.616 153.648  1.00  0.00    -0.286 N
ATOM      7  H5  UNL     1      24.264   2.979 153.211  1.00  0.00     0.188 HD
ATOM      8  H6  UNL     1      22.492   2.023 155.283  1.00  0.00     0.208 HD
BRANCH   6   9
HETATM    9  C7  UNL     1      22.239   2.346 152.878  1.00  0.00     0.051 A
HETATM   10  C6  UNL     1      21.030   2.928 153.199  1.00  0.00     0.031 A
HETATM   11  C5  UNL     1      19.903   2.656 152.446  1.00  0.00     0.005 A
HETATM   12  C4  UNL     1      19.928   1.802 151.352  1.00  0.00     0.029 A
HETATM   13  C3  UNL     1      21.131   1.215 151.024  1.00  0.00     0.033 A
HETATM   14  C9  UNL     1      22.255   1.501 151.793  1.00  0.00     0.060 A
BRANCH  13  15
HETATM   15  N4  UNL     1      21.202   0.330 149.911  1.00  0.00    -0.349 N
ATOM     16  H4  UNL     1      21.891  -0.421 149.910  1.00  0.00     0.163 HD
BRANCH  15  17
HETATM   17  C2  UNL     1      20.313   0.478 148.782  1.00  0.00     0.337 C
BRANCH  17  18
HETATM   18  N3  UNL     1      21.067   1.077 147.671  1.00  0.00    -0.084 NA
BRANCH  18  19
HETATM   19  N2  UNL     1      20.910   0.244 146.553  1.00  0.00    -0.254 N
HETATM   20  C1  UNL     1      21.544   0.603 145.349  1.00  0.00     0.344 C
HETATM   21  N1  UNL     1      21.402  -0.215 144.212  1.00  0.00    -0.039 NA
HETATM   22  O1  UNL     1      22.236   1.649 145.279  1.00  0.00    -0.250 OA
ATOM     23  H2  UNL     1      20.348  -0.605 146.612  1.00  0.00     0.187 HD
ENDBRANCH  18  19
ENDBRANCH  17  18
BRANCH  17  24
HETATM   24  O2  UNL     1      19.829  -0.772 148.348  1.00  0.00    -0.361 OA
ATOM     25  H2  UNL     1      19.066  -0.986 148.872  1.00  0.00     0.213 HD
ENDBRANCH  17  24
ENDBRANCH  15  17
ENDBRANCH  13  15
ENDBRANCH   6   9
ENDBRANCH   1   5
TORSDOF 7
ENDMDL