MODEL 1
REMARK VINA RESULT: -5.508610357      0.000      0.000
REMARK  9 active torsions:
REMARK  status: ('A' for Active; 'I' for Inactive)
REMARK    1  A    between atoms: N1_1  and  C1_4
REMARK    2  A    between atoms: C2_7  and  N3_8
REMARK    3  A    between atoms: N3_8  and  C3_10
REMARK    4  A    between atoms: C3_10  and  O1_11
REMARK    5  A    between atoms: C3_10  and  C4_13
REMARK    6  A    between atoms: C8_21  and  C9_22
REMARK    7  A    between atoms: C9_22  and  N6_23
REMARK    8  A    between atoms: C9_22  and  C10_27
REMARK    9  A    between atoms: C10_27  and  C11_28
ROOT
HETATM    1  C1  UNL     1      20.675  -1.600 150.259  1.00  0.00     0.677 A
HETATM    2  N2  UNL     1      20.735  -0.500 151.064  1.00  0.00    -0.177 N
ATOM      3  H2  UNL     1      20.926  -0.612 152.059  1.00  0.00     0.185 HD
HETATM    4  C2  UNL     1      20.544   0.731 150.557  1.00  0.00     0.121 A
HETATM    5  C7  UNL     1      20.288   0.834 149.206  1.00  0.00     0.076 A
HETATM    6  C8  UNL     1      20.228  -0.269 148.399  1.00  0.00     0.061 A
HETATM    7  N7  UNL     1      20.423  -1.480 148.940  1.00  0.00    -0.194 N
ATOM      8  H7  UNL     1      20.381  -2.314 148.352  1.00  0.00     0.184 HD
ENDROOT
BRANCH   4   9
HETATM    9  N3  UNL     1      20.609   1.881 151.407  1.00  0.00    -0.345 N
ATOM     10  H3  UNL     1      21.302   2.610 151.240  1.00  0.00     0.164 HD
BRANCH   9  11
HETATM   11  C3  UNL     1      19.669   1.994 152.512  1.00  0.00     0.272 C
BRANCH  11  12
HETATM   12  O1  UNL     1      19.083   3.254 152.425  1.00  0.00    -0.371 OA
ATOM     13  H1  UNL     1      19.435   3.775 153.136  1.00  0.00     0.212 HD
ENDBRANCH  11  12
BRANCH  11  14
HETATM   14  C4  UNL     1      20.310   1.737 153.810  1.00  0.00     0.074 A
HETATM   15  C5  UNL     1      21.645   1.912 154.111  1.00  0.00     0.118 A
HETATM   16  N4  UNL     1      21.909   1.588 155.379  1.00  0.00    -0.360 N
HETATM   17  C6  UNL     1      20.718   1.196 155.904  1.00  0.00     0.180 A
ATOM     18  H4  UNL     1      22.812   1.627 155.853  1.00  0.00     0.166 HD
HETATM   19  N5  UNL     1      19.755   1.284 154.966  1.00  0.00    -0.351 N
ATOM     20  H5  UNL     1      18.771   1.049 155.100  1.00  0.00     0.166 HD
ENDBRANCH  11  14
ENDBRANCH   9  11
ENDBRANCH   4   9
BRANCH   1  21
HETATM   21  N1  UNL     1      20.864  -2.757 150.793  1.00  0.00    -0.234 N
ATOM     22  H12 UNL     1      20.582  -2.941 151.756  1.00  0.00     0.174 HD
ATOM     23  H11 UNL     1      21.305  -3.483 150.228  1.00  0.00     0.174 HD
ENDBRANCH   1  21
BRANCH   6  24
HETATM   24  C9  UNL     1      19.953  -0.164 146.947  1.00  0.00     0.239 C
BRANCH  24  25
HETATM   25  N6  UNL     1      19.021  -1.130 146.465  1.00  0.00    -0.069 N
ATOM     26  H63 UNL     1      19.184  -2.036 146.905  1.00  0.00     0.275 HD
ATOM     27  H62 UNL     1      18.085  -0.933 146.818  1.00  0.00     0.275 HD
ATOM     28  H61 UNL     1      19.010  -1.221 145.449  1.00  0.00     0.275 HD
ENDBRANCH  24  25
BRANCH  24  29
HETATM   29  C10 UNL     1      21.227  -0.343 146.143  1.00  0.00     0.108 C
BRANCH  29  30
HETATM   30  C11 UNL     1      21.267   0.767 145.153  1.00  0.00     0.233 C
HETATM   31  O2  UNL     1      20.298   1.431 144.838  1.00  0.00    -0.307 OA
ENDBRANCH  29  30
ENDBRANCH  24  29
ENDBRANCH   6  24
TORSDOF 9
ENDMDL