MODEL 3
REMARK VINA RESULT: -4.828159854      4.027      5.230
REMARK  10 active torsions:
REMARK  status: ('A' for Active; 'I' for Inactive)
REMARK    1  A    between atoms: C1_4  and  C2_5
REMARK    2  A    between atoms: C2_5  and  C3_6
REMARK    3  A    between atoms: C2_5  and  C13_23
REMARK    4  A    between atoms: C3_6  and  C4_8
REMARK    5  A    between atoms: C4_8  and  C12_16
REMARK    6  A    between atoms: C5_9  and  C6_10
REMARK    7  A    between atoms: C12_16  and  N2_17
REMARK    8  A    between atoms: C12_16  and  O2_21
REMARK    9  A    between atoms: C13_23  and  N3_24
REMARK   10  A    between atoms: C13_23  and  O3_28
ROOT
HETATM    1  C4  UNL     1      21.115   1.187 152.968  1.00  0.00     0.044 C
HETATM    2  C5  UNL     1      22.426   1.256 152.986  1.00  0.00     0.026 C
ENDROOT
BRANCH   1   3
HETATM    3  C3  UNL     1      20.508   0.218 152.019  1.00  0.00     0.173 C
HETATM    4  O1  UNL     1      19.245   0.020 152.086  1.00  0.00    -0.292 OA
BRANCH   3   5
HETATM    5  C2  UNL     1      21.259  -0.528 150.999  1.00  0.00     0.154 C
BRANCH   5   6
HETATM    6  C1  UNL     1      20.963  -2.022 151.143  1.00  0.00     0.069 C
HETATM    7  N1  UNL     1      20.580  -2.435 152.287  1.00  0.00    -0.410 N
ATOM      8  H12 UNL     1      20.481  -1.783 153.064  1.00  0.00     0.155 HD
ATOM      9  H11 UNL     1      20.383  -3.431 152.383  1.00  0.00     0.155 HD
ENDBRANCH   5   6
BRANCH   5  10
HETATM   10  C13 UNL     1      20.768  -0.252 149.576  1.00  0.00     0.332 C
BRANCH  10  11
HETATM   11  N3  UNL     1      20.226   1.086 149.463  1.00  0.00    -0.052 N
ATOM     12  H33 UNL     1      19.384   1.103 148.888  1.00  0.00     0.277 HD
ATOM     13  H32 UNL     1      19.820   1.403 150.343  1.00  0.00     0.277 HD
ATOM     14  H31 UNL     1      20.929   1.740 149.119  1.00  0.00     0.277 HD
ENDBRANCH  10  11
BRANCH  10  15
HETATM   15  O3  UNL     1      19.646  -1.114 149.433  1.00  0.00    -0.369 OA
ATOM     16  H3  UNL     1      19.876  -1.662 148.691  1.00  0.00     0.212 HD
ENDBRANCH  10  15
ENDBRANCH   5  10
ENDBRANCH   3   5
ENDBRANCH   1   3
BRANCH   1  17
HETATM   17  C12 UNL     1      20.213   2.008 153.789  1.00  0.00     0.354 C
BRANCH  17  18
HETATM   18  N2  UNL     1      19.164   2.690 153.098  1.00  0.00    -0.049 N
ATOM     19  H23 UNL     1      19.545   3.502 152.612  1.00  0.00     0.277 HD
ATOM     20  H22 UNL     1      18.853   2.128 152.306  1.00  0.00     0.277 HD
ATOM     21  H21 UNL     1      18.358   2.970 153.657  1.00  0.00     0.277 HD
ENDBRANCH  17  18
BRANCH  17  22
HETATM   22  O2  UNL     1      19.562   1.189 154.751  1.00  0.00    -0.366 OA
ATOM     23  H2  UNL     1      18.825   1.657 155.124  1.00  0.00     0.212 HD
ENDBRANCH  17  22
ENDBRANCH   1  17
BRANCH   2  24
HETATM   24  C6  UNL     1      23.330   2.054 153.742  1.00  0.00    -0.035 A
HETATM   25  C7  UNL     1      23.880   1.797 154.970  1.00  0.00     0.011 A
HETATM   26  C8  UNL     1      24.762   2.642 155.602  1.00  0.00     0.001 A
HETATM   27  C9  UNL     1      25.134   3.820 154.997  1.00  0.00     0.000 A
HETATM   28  C10 UNL     1      24.601   4.104 153.771  1.00  0.00     0.001 A
HETATM   29  C11 UNL     1      23.723   3.265 153.138  1.00  0.00     0.011 A
ENDBRANCH   2  24
TORSDOF 10
ENDMDL