MODEL 3
REMARK VINA RESULT: -5.380891239      1.461      1.854
REMARK  9 active torsions:
REMARK  status: ('A' for Active; 'I' for Inactive)
REMARK    1  A    between atoms: N1_1  and  N2_4
REMARK    2  A    between atoms: N2_4  and  C1_6
REMARK    3  A    between atoms: C3_13  and  N5_14
REMARK    4  A    between atoms: N5_14  and  C4_16
REMARK    5  A    between atoms: C8_20  and  O2_21
REMARK    6  A    between atoms: O2_21  and  C9_22
REMARK    7  A    between atoms: C9_22  and  C10_23
REMARK    8  A    between atoms: C10_23  and  O3_24
REMARK    9  A    between atoms: O3_24  and  N6_25
ROOT
HETATM    1  N5  UNL     1      21.513   0.354 150.996  1.00  0.00    -0.352 N
ATOM      2  H5  UNL     1      22.327  -0.212 151.233  1.00  0.00     0.166 HD
ENDROOT
BRANCH   1   3
HETATM    3  C3  UNL     1      20.909   1.148 152.036  1.00  0.00     0.149 A
HETATM    4  C1  UNL     1      21.651   2.138 152.697  1.00  0.00     0.167 A
HETATM    5  N3  UNL     1      20.715   2.774 153.562  1.00  0.00    -0.280 N
HETATM    6  N4  UNL     1      19.606   2.228 153.414  1.00  0.00    -0.263 N
ATOM      7  H3  UNL     1      20.919   3.548 154.195  1.00  0.00     0.189 HD
HETATM    8  C2  UNL     1      19.589   1.183 152.520  1.00  0.00     0.290 A
ATOM      9  H4  UNL     1      18.773   2.532 153.919  1.00  0.00     0.190 HD
HETATM   10  O1  UNL     1      18.570   0.519 152.288  1.00  0.00    -0.264 OA
BRANCH   4  11
HETATM   11  N2  UNL     1      23.032   2.310 152.810  1.00  0.00    -0.289 N
ATOM     12  H2  UNL     1      23.611   1.512 152.550  1.00  0.00     0.188 HD
BRANCH  11  13
HETATM   13  N1  UNL     1      23.683   3.414 153.224  1.00  0.00    -0.344 N
ATOM     14  H12 UNL     1      23.330   4.294 152.849  1.00  0.00     0.176 HD
ATOM     15  H11 UNL     1      24.478   3.458 153.863  1.00  0.00     0.176 HD
ENDBRANCH  11  13
ENDBRANCH   4  11
ENDBRANCH   1   3
BRANCH   1  16
HETATM   16  C4  UNL     1      21.043   0.321 149.686  1.00  0.00     0.016 A
HETATM   17  C5  UNL     1      20.029  -0.340 149.200  1.00  0.00     0.025 A
HETATM   18  C6  UNL     1      19.617  -0.633 147.890  1.00  0.00     0.004 A
HETATM   19  C7  UNL     1      20.500  -0.045 146.930  1.00  0.00     0.033 A
HETATM   20  C8  UNL     1      21.539   0.760 147.250  1.00  0.00     0.052 A
HETATM   21  C11 UNL     1      21.848   0.936 148.665  1.00  0.00     0.121 A
BRANCH  20  22
HETATM   22  O2  UNL     1      22.298   1.457 146.376  1.00  0.00    -0.353 OA
BRANCH  22  23
HETATM   23  C9  UNL     1      23.534   1.675 146.757  1.00  0.00     0.204 C
BRANCH  23  24
HETATM   24  C10 UNL     1      24.599   2.301 145.729  1.00  0.00     0.227 C
BRANCH  24  25
HETATM   25  O3  UNL     1      23.976   3.494 145.617  1.00  0.00    -0.285 OA
BRANCH  25  26
HETATM   26  N6  UNL     1      24.297   4.571 146.245  1.00  0.00    -0.311 N
ATOM     27  H62 UNL     1      24.592   4.454 147.214  1.00  0.00     0.184 HD
ATOM     28  H61 UNL     1      24.280   5.514 145.856  1.00  0.00     0.184 HD
ENDBRANCH  25  26
ENDBRANCH  24  25
ENDBRANCH  23  24
ENDBRANCH  22  23
ENDBRANCH  20  22
ENDBRANCH   1  16
TORSDOF 9
ENDMDL