MODEL 2
REMARK VINA RESULT: -5.767244012      1.727      2.350
REMARK  8 active torsions:
REMARK  status: ('A' for Active; 'I' for Inactive)
REMARK    1  A    between atoms: C2_2  and  N1_5
REMARK    2  A    between atoms: N1_5  and  C5_8
REMARK    3  A    between atoms: C5_8  and  C6_9
REMARK    4  A    between atoms: C6_9  and  C7_11
REMARK    5  A    between atoms: C7_11  and  N2_12
REMARK    6  A    between atoms: N2_12  and  N3_13
REMARK    7  A    between atoms: N3_13  and  C8_15
REMARK    8  A    between atoms: C10_22  and  N7_23
ROOT
HETATM    1  N3  UNL     1      20.760  -1.492 148.512  1.00  0.00    -0.135 N
ATOM      2  H3  UNL     1      21.446  -1.988 149.080  1.00  0.00     0.201 HD
ENDROOT
BRANCH   1   3
HETATM    3  N2  UNL     1      19.563  -1.050 149.117  1.00  0.00    -0.119 NA
BRANCH   3   4
HETATM    4  C7  UNL     1      19.960  -0.388 150.327  1.00  0.00     0.215 C
BRANCH   4   5
HETATM    5  C6  UNL     1      20.620   0.947 150.096  1.00  0.00     0.168 C
HETATM    6  O1  UNL     1      20.516   1.595 149.082  1.00  0.00    -0.295 OA
BRANCH   5   7
HETATM    7  C5  UNL     1      21.431   1.430 151.274  1.00  0.00     0.312 C
BRANCH   7   8
HETATM    8  N1  UNL     1      21.043   0.792 152.496  1.00  0.00    -0.061 N
ATOM      9  H12 UNL     1      21.732   0.119 152.829  1.00  0.00     0.278 HD
ATOM     10  H11 UNL     1      20.267   0.141 152.374  1.00  0.00     0.278 HD
BRANCH   8  11
HETATM   11  C2  UNL     1      20.758   1.839 153.467  1.00  0.00     0.115 C
HETATM   12  C1  UNL     1      20.433   1.314 154.824  1.00  0.00     0.045 C
HETATM   13  C3  UNL     1      21.942   2.768 153.502  1.00  0.00     0.045 C
HETATM   14  C4  UNL     1      19.575   2.684 153.004  1.00  0.00     0.045 C
ENDBRANCH   8  11
ENDBRANCH   7   8
ENDBRANCH   5   7
ENDBRANCH   4   5
ENDBRANCH   3   4
ENDBRANCH   1   3
BRANCH   1  15
HETATM   15  C8  UNL     1      21.034  -1.268 147.147  1.00  0.00     0.710 A
HETATM   16  N4  UNL     1      20.940  -0.062 146.534  1.00  0.00    -0.161 N
HETATM   17  C9  UNL     1      21.192   0.110 145.243  1.00  0.00     0.221 A
ATOM     18  H4  UNL     1      20.663   0.747 147.089  1.00  0.00     0.187 HD
HETATM   19  N5  UNL     1      21.121   1.345 144.542  1.00  0.00    -0.062 NA
HETATM   20  N6  UNL     1      21.558  -0.966 144.513  1.00  0.00    -0.163 N
HETATM   21  C10 UNL     1      21.672  -2.172 145.037  1.00  0.00     0.692 A
ATOM     22  H6  UNL     1      21.754  -0.841 143.520  1.00  0.00     0.187 HD
HETATM   23  N8  UNL     1      21.404  -2.298 146.368  1.00  0.00    -0.021 N
ATOM     24  H8  UNL     1      21.488  -3.221 146.794  1.00  0.00     0.203 HD
BRANCH  21  25
HETATM   25  N7  UNL     1      22.022  -3.227 144.346  1.00  0.00    -0.234 N
ATOM     26  H72 UNL     1      21.320  -3.925 144.102  1.00  0.00     0.174 HD
ATOM     27  H71 UNL     1      22.976  -3.398 144.027  1.00  0.00     0.174 HD
ENDBRANCH  21  25
ENDBRANCH   1  15
TORSDOF 8
ENDMDL