MODEL 4
REMARK VINA RESULT: -5.244034778      1.559      2.144
REMARK  9 active torsions:
REMARK  status: ('A' for Active; 'I' for Inactive)
REMARK    1  A    between atoms: N2_4  and  O1_5
REMARK    2  A    between atoms: N2_4  and  C1_7
REMARK    3  A    between atoms: C4_10  and  N3_11
REMARK    4  A    between atoms: N3_11  and  N4_13
REMARK       I    between atoms: N4_13  and  C5_15
REMARK    5  A    between atoms: C6_20  and  O2_21
REMARK    6  A    between atoms: O2_21  and  C7_22
REMARK    7  A    between atoms: C7_22  and  C8_23
REMARK    8  A    between atoms: C8_23  and  C9_27
REMARK    9  A    between atoms: C9_27  and  N8_28
ROOT
HETATM    1  C1  UNL     1      20.023   0.942 151.819  1.00  0.00     0.083 A
HETATM    2  C2  UNL     1      20.219   1.912 150.865  1.00  0.00     0.036 A
HETATM    3  C3  UNL     1      20.382   1.611 149.528  1.00  0.00     0.036 A
HETATM    4  C4  UNL     1      20.354   0.283 149.095  1.00  0.00     0.081 A
HETATM    5  C6  UNL     1      20.159  -0.696 150.040  1.00  0.00     0.099 A
HETATM    6  C10 UNL     1      19.996  -0.384 151.366  1.00  0.00     0.073 A
ENDROOT
BRANCH   5   7
HETATM    7  O2  UNL     1      20.132  -2.026 149.611  1.00  0.00    -0.343 OA
BRANCH   7   8
HETATM    8  C7  UNL     1      21.199  -2.874 150.034  1.00  0.00     0.229 C
BRANCH   8   9
HETATM    9  C8  UNL     1      20.788  -4.294 149.983  1.00  0.00     0.030 C
HETATM   10  N7  UNL     1      20.945  -4.958 148.889  1.00  0.00    -0.403 N
ATOM     11  H72 UNL     1      21.332  -4.502 148.063  1.00  0.00     0.155 HD
ATOM     12  H71 UNL     1      20.661  -5.937 148.855  1.00  0.00     0.155 HD
BRANCH   9  13
HETATM   13  C9  UNL     1      20.226  -4.956 151.183  1.00  0.00     0.283 C
BRANCH  13  14
HETATM   14  N8  UNL     1      19.905  -3.908 152.177  1.00  0.00    -0.074 N
ATOM     15  H83 UNL     1      20.564  -3.888 152.956  1.00  0.00     0.274 HD
ATOM     16  H82 UNL     1      20.079  -2.966 151.826  1.00  0.00     0.274 HD
ATOM     17  H81 UNL     1      18.941  -4.045 152.480  1.00  0.00     0.274 HD
ENDBRANCH  13  14
ENDBRANCH   9  13
ENDBRANCH   8   9
ENDBRANCH   7   8
ENDBRANCH   5   7
BRANCH   4  18
HETATM   18  N3  UNL     1      20.514  -0.011 147.721  1.00  0.00    -0.296 N
ATOM     19  H3  UNL     1      19.956  -0.750 147.293  1.00  0.00     0.187 HD
BRANCH  18  20
HETATM   20  N4  UNL     1      21.433   0.703 146.940  1.00  0.00    -0.273 N
HETATM   21  C5  UNL     1      21.533   0.465 145.547  1.00  0.00     0.200 C
HETATM   22  N5  UNL     1      22.104  -0.622 145.165  1.00  0.00    -0.372 N
HETATM   23  N6  UNL     1      21.028   1.373 144.588  1.00  0.00    -0.062 NA
ATOM     24  H52 UNL     1      22.469  -1.278 145.857  1.00  0.00     0.158 HD
ATOM     25  H51 UNL     1      22.176  -0.794 144.162  1.00  0.00     0.158 HD
ATOM     26  H4  UNL     1      22.035   1.401 147.378  1.00  0.00     0.189 HD
ENDBRANCH  18  20
ENDBRANCH   4  18
BRANCH   1  27
HETATM   27  N2  UNL     1      19.848   1.274 153.188  1.00  0.00    -0.170 N
HETATM   28  N1  UNL     1      19.223   2.357 153.453  1.00  0.00    -0.319 N
ATOM     29  H12 UNL     1      19.097   2.596 154.437  1.00  0.00     0.179 HD
ATOM     30  H11 UNL     1      18.868   2.961 152.710  1.00  0.00     0.179 HD
BRANCH  27  31
HETATM   31  O1  UNL     1      20.321   0.471 154.176  1.00  0.00    -0.268 OA
ATOM     32  H1  UNL     1      20.770  -0.343 153.980  1.00  0.00     0.247 HD
ENDBRANCH  27  31
ENDBRANCH   1  27
TORSDOF 9
ENDMDL