MODEL 5
REMARK VINA RESULT: -5.688412887      3.492      6.836
REMARK  8 active torsions:
REMARK  status: ('A' for Active; 'I' for Inactive)
REMARK    1  A    between atoms: C4_9  and  C5_10
REMARK    2  A    between atoms: C5_10  and  O1_11
REMARK    3  A    between atoms: C5_10  and  N3_13
REMARK    4  A    between atoms: N3_13  and  C6_16
REMARK    5  A    between atoms: C6_16  and  C7_17
REMARK    6  A    between atoms: C7_17  and  O2_18
REMARK    7  A    between atoms: C7_17  and  N4_20
REMARK    8  A    between atoms: N4_20  and  C8_22
ROOT
HETATM    1  N3  UNL     1      19.954   1.124 151.443  1.00  0.00    -0.038 N
ATOM      2  H31 UNL     1      20.964   1.245 151.363  1.00  0.00     0.280 HD
ATOM      3  H32 UNL     1      19.709   1.613 150.582  1.00  0.00     0.280 HD
ENDROOT
BRANCH   1   4
HETATM    4  C5  UNL     1      19.376   1.724 152.651  1.00  0.00     0.387 C
BRANCH   4   5
HETATM    5  C4  UNL     1      20.271   1.522 153.820  1.00  0.00     0.140 A
HETATM    6  N2  UNL     1      21.590   1.500 153.659  1.00  0.00    -0.352 N
HETATM    7  C3  UNL     1      22.456   1.320 154.689  1.00  0.00     0.093 A
ATOM      8  H2  UNL     1      21.968   1.623 152.719  1.00  0.00     0.166 HD
HETATM    9  C2  UNL     1      21.955   1.150 155.962  1.00  0.00     0.065 A
HETATM   10  C1  UNL     1      20.585   1.175 156.112  1.00  0.00     0.101 A
HETATM   11  N1  UNL     1      20.096   1.017 157.308  1.00  0.00    -0.385 N
HETATM   12  N5  UNL     1      19.771   1.358 155.057  1.00  0.00    -0.329 N
ATOM     13  H12 UNL     1      20.713   0.879 158.108  1.00  0.00     0.157 HD
ATOM     14  H11 UNL     1      19.081   1.036 157.418  1.00  0.00     0.157 HD
ATOM     15  H5  UNL     1      18.761   1.373 155.198  1.00  0.00     0.168 HD
ENDBRANCH   4   5
BRANCH   4  16
HETATM   16  O1  UNL     1      19.162   3.074 152.377  1.00  0.00    -0.364 OA
ATOM     17  H1  UNL     1      18.246   3.315 152.449  1.00  0.00     0.212 HD
ENDBRANCH   4  16
ENDBRANCH   1   4
BRANCH   1  18
HETATM   18  C6  UNL     1      19.524  -0.279 151.471  1.00  0.00     0.289 C
BRANCH  18  19
HETATM   19  C7  UNL     1      20.693  -1.211 151.398  1.00  0.00     0.243 C
BRANCH  19  20
HETATM   20  O2  UNL     1      21.914  -0.541 151.424  1.00  0.00    -0.375 OA
ATOM     21  H2  UNL     1      22.292  -0.436 150.559  1.00  0.00     0.212 HD
ENDBRANCH  19  20
BRANCH  19  22
HETATM   22  N4  UNL     1      20.605  -2.243 152.401  1.00  0.00    -0.362 N
ATOM     23  H4  UNL     1      20.811  -2.008 153.372  1.00  0.00     0.162 HD
BRANCH  22  24
HETATM   24  C8  UNL     1      20.242  -3.570 152.077  1.00  0.00     0.029 A
HETATM   25  C9  UNL     1      20.624  -4.143 150.892  1.00  0.00     0.029 A
HETATM   26  C10 UNL     1      20.241  -5.458 150.586  1.00  0.00     0.002 A
HETATM   27  C11 UNL     1      19.481  -6.215 151.444  1.00  0.00     0.000 A
HETATM   28  C12 UNL     1      19.094  -5.641 152.638  1.00  0.00     0.002 A
HETATM   29  C13 UNL     1      19.471  -4.350 152.937  1.00  0.00     0.029 A
ENDBRANCH  22  24
ENDBRANCH  19  22
ENDBRANCH  18  19
ENDBRANCH   1  18
TORSDOF 8
ENDMDL