MODEL 1
REMARK VINA RESULT: -5.739942197      0.000      0.000
REMARK  8 active torsions:
REMARK  status: ('A' for Active; 'I' for Inactive)
REMARK       I    between atoms: C1_4  and  N3_6
REMARK    1  A    between atoms: N3_6  and  N4_8
REMARK    2  A    between atoms: N4_8  and  C2_10
REMARK    3  A    between atoms: C4_13  and  N5_14
REMARK       I    between atoms: N5_14  and  C5_16
REMARK    4  A    between atoms: C5_16  and  C6_18
REMARK    5  A    between atoms: C6_18  and  C7_20
REMARK    6  A    between atoms: C7_20  and  C8_21
REMARK    7  A    between atoms: C8_21  and  C9_22
REMARK    8  A    between atoms: C9_22  and  N6_23
ROOT
HETATM    1  C2  UNL     1      21.501   0.639 146.848  1.00  0.00     0.074 A
HETATM    2  C3  UNL     1      20.412  -0.202 146.882  1.00  0.00     0.175 A
HETATM    3  O1  UNL     1      19.962  -0.281 148.107  1.00  0.00    -0.303 OA
HETATM    4  C4  UNL     1      20.703   0.473 148.906  1.00  0.00     0.152 A
HETATM    5  C10 UNL     1      21.688   1.075 148.155  1.00  0.00     0.089 A
ENDROOT
BRANCH   4   6
HETATM    6  N5  UNL     1      20.500   0.628 150.318  1.00  0.00    -0.301 N
HETATM    7  C5  UNL     1      19.899   1.799 150.817  1.00  0.00     0.293 C
HETATM    8  O2  UNL     1      19.547   2.696 150.032  1.00  0.00    -0.264 OA
ATOM      9  H5  UNL     1      20.790  -0.109 150.960  1.00  0.00     0.171 HD
BRANCH   7  10
HETATM   10  C6  UNL     1      19.698   1.946 152.241  1.00  0.00     0.216 C
HETATM   11  O3  UNL     1      18.876   1.224 152.890  1.00  0.00    -0.287 OA
BRANCH  10  12
HETATM   12  C7  UNL     1      20.477   2.980 153.000  1.00  0.00     0.090 C
BRANCH  12  13
HETATM   13  C8  UNL     1      21.928   2.565 153.117  1.00  0.00     0.035 C
BRANCH  13  14
HETATM   14  C9  UNL     1      22.065   1.784 154.410  1.00  0.00     0.230 C
BRANCH  14  15
HETATM   15  N6  UNL     1      23.288   2.174 155.092  1.00  0.00    -0.079 N
ATOM     16  H63 UNL     1      23.257   3.141 155.415  1.00  0.00     0.274 HD
ATOM     17  H62 UNL     1      23.384   1.719 156.000  1.00  0.00     0.274 HD
ATOM     18  H61 UNL     1      24.090   1.996 154.487  1.00  0.00     0.274 HD
ENDBRANCH  14  15
ENDBRANCH  13  14
ENDBRANCH  12  13
ENDBRANCH  10  12
ENDBRANCH   7  10
ENDBRANCH   4   6
BRANCH   1  19
HETATM   19  N4  UNL     1      22.246   0.964 145.696  1.00  0.00    -0.296 N
ATOM     20  H4  UNL     1      21.761   1.155 144.819  1.00  0.00     0.187 HD
BRANCH  19  21
HETATM   21  N3  UNL     1      23.639   1.029 145.744  1.00  0.00    -0.273 N
HETATM   22  C1  UNL     1      24.218   2.251 146.184  1.00  0.00     0.200 C
HETATM   23  N1  UNL     1      24.937   2.208 147.255  1.00  0.00    -0.372 N
HETATM   24  N2  UNL     1      24.055   3.488 145.529  1.00  0.00    -0.062 NA
ATOM     25  H12 UNL     1      25.353   3.085 147.570  1.00  0.00     0.158 HD
ATOM     26  H11 UNL     1      25.055   1.313 147.729  1.00  0.00     0.158 HD
ATOM     27  H3  UNL     1      24.217   0.233 145.474  1.00  0.00     0.189 HD
ENDBRANCH  19  21
ENDBRANCH   1  19
TORSDOF 8
ENDMDL