MODEL 1
REMARK VINA RESULT: -5.739129864      0.000      0.000
REMARK  9 active torsions:
REMARK  status: ('A' for Active; 'I' for Inactive)
REMARK    1  A    between atoms: C1_4  and  C2_6
REMARK       I    between atoms: C2_6  and  N3_8
REMARK    2  A    between atoms: N3_8  and  C3_9
REMARK    3  A    between atoms: C3_9  and  C4_10
REMARK    4  A    between atoms: C4_10  and  N4_11
REMARK    5  A    between atoms: N4_11  and  C5_13
REMARK    6  A    between atoms: C9_17  and  C10_18
REMARK    7  A    between atoms: C11_20  and  N5_21
REMARK    8  A    between atoms: N5_21  and  N6_22
REMARK    9  A    between atoms: N5_21  and  O3_25
ROOT
HETATM    1  C5  UNL     1      22.742   0.996 151.527  1.00  0.00     0.060 A
HETATM    2  C6  UNL     1      23.594   1.494 152.526  1.00  0.00     0.031 A
HETATM    3  C7  UNL     1      23.045   2.471 153.328  1.00  0.00     0.003 A
HETATM    4  C8  UNL     1      21.787   2.930 153.197  1.00  0.00     0.017 A
HETATM    5  C9  UNL     1      20.937   2.416 152.198  1.00  0.00     0.035 A
HETATM    6  C11 UNL     1      21.426   1.441 151.348  1.00  0.00     0.120 A
ENDROOT
BRANCH   1   7
HETATM    7  N4  UNL     1      23.353   0.029 150.666  1.00  0.00    -0.382 N
ATOM      8  H4  UNL     1      23.371  -0.958 150.926  1.00  0.00     0.160 HD
BRANCH   7   9
HETATM    9  C4  UNL     1      23.942   0.468 149.429  1.00  0.00     0.179 C
BRANCH   9  10
HETATM   10  C3  UNL     1      23.786  -0.425 148.222  1.00  0.00     0.179 C
BRANCH  10  11
HETATM   11  N3  UNL     1      23.137   0.268 147.201  1.00  0.00    -0.380 NA
HETATM   12  C2  UNL     1      22.498   0.963 146.184  1.00  0.00     0.356 C
HETATM   13  O1  UNL     1      23.056   2.015 145.727  1.00  0.00    -0.248 OA
BRANCH  12  14
HETATM   14  C1  UNL     1      21.175   0.572 145.604  1.00  0.00     0.193 C
HETATM   15  N1  UNL     1      20.249   0.109 146.257  1.00  0.00    -0.382 N
ATOM     16  H12 UNL     1      19.348  -0.157 145.862  1.00  0.00     0.157 HD
ATOM     17  H11 UNL     1      20.327  -0.137 147.244  1.00  0.00     0.157 HD
HETATM   18  N2  UNL     1      21.065   0.920 144.210  1.00  0.00    -0.076 NA
ENDBRANCH  12  14
ENDBRANCH  10  11
ENDBRANCH   9  10
ENDBRANCH   7   9
ENDBRANCH   1   7
BRANCH   6  19
HETATM   19  N5  UNL     1      20.653   0.883 150.314  1.00  0.00    -0.167 N
BRANCH  19  20
HETATM   20  N6  UNL     1      19.861  -0.237 150.441  1.00  0.00    -0.319 N
ATOM     21  H62 UNL     1      18.925  -0.036 150.793  1.00  0.00     0.179 HD
ATOM     22  H61 UNL     1      20.152  -1.187 150.205  1.00  0.00     0.179 HD
ENDBRANCH  19  20
BRANCH  19  23
HETATM   23  O3  UNL     1      20.638   1.423 149.051  1.00  0.00    -0.268 OA
ATOM     24  H3  UNL     1      20.154   2.216 148.853  1.00  0.00     0.247 HD
ENDBRANCH  19  23
ENDBRANCH   6  19
BRANCH   5  25
HETATM   25  C10 UNL     1      19.522   2.785 152.296  1.00  0.00     0.272 C
HETATM   26  O2  UNL     1      18.802   3.511 151.670  1.00  0.00    -0.301 OA
ENDBRANCH   5  25
TORSDOF 9
ENDMDL