MODEL 4
REMARK VINA RESULT: -4.307007974      5.026      6.208
REMARK  1 active torsions:
REMARK  status: ('A' for Active; 'I' for Inactive)
REMARK    1  A    between atoms: C4_4  and  N1_5
ROOT
HETATM    1  C1  UNL     1     -16.265 -28.376  12.830  1.00  0.00     0.032 C
HETATM    2  C2  UNL     1     -16.773 -28.659  14.243  1.00  0.00     0.078 C
HETATM    3  C3  UNL     1     -17.302 -30.058  14.246  1.00  0.00     0.047 C
HETATM    4  C4  UNL     1     -18.073 -30.394  15.510  1.00  0.00     0.100 C
HETATM    5  C5  UNL     1     -19.182 -29.413  15.763  1.00  0.00     0.066 C
HETATM    6  C6  UNL     1     -19.043 -28.163  14.903  1.00  0.00     0.057 C
HETATM    7  N2  UNL     1     -17.715 -27.753  14.712  1.00  0.00    -0.398 N
ATOM      8  H2  UNL     1     -17.443 -26.792  14.916  1.00  0.00     0.159 HD
ENDROOT
BRANCH   4   9
HETATM    9  N1  UNL     1     -18.681 -31.700  15.256  1.00  0.00    -0.138 NA
HETATM   10 CL1  UNL     1     -17.591 -32.792  14.488  1.00  0.00    -0.004 Cl
ENDBRANCH   4   9
TORSDOF 1
ENDMDL