MODEL 3
REMARK VINA RESULT: -4.685465222      1.766      1.961
REMARK  2 active torsions:
REMARK  status: ('A' for Active; 'I' for Inactive)
REMARK    1  A    between atoms: O1_2  and  N1_3
REMARK    2  A    between atoms: N1_3  and  C2_4
ROOT
HETATM    1  C2  UNL     1     -18.005 -27.809  14.582  1.00  0.00     0.199 C
HETATM    2  C3  UNL     1     -18.483 -28.810  15.603  1.00  0.00     0.047 C
HETATM    3  C4  UNL     1     -18.864 -30.080  14.849  1.00  0.00     0.041 C
HETATM    4  C5  UNL     1     -17.616 -30.898  14.707  1.00  0.00     0.171 C
HETATM    5  F1  UNL     1     -17.951 -32.241  14.747  1.00  0.00    -0.249 F
HETATM    6  C6  UNL     1     -16.827 -30.623  13.484  1.00  0.00     0.056 C
HETATM    7  C7  UNL     1     -16.698 -29.191  13.104  1.00  0.00     0.118 C
HETATM    8  N2  UNL     1     -17.858 -28.395  13.293  1.00  0.00    -0.403 N
ATOM      9  H2  UNL     1     -18.543 -28.252  12.551  1.00  0.00     0.154 HD
ENDROOT
BRANCH   1  10
HETATM   10  N1  UNL     1     -16.829 -27.164  15.089  1.00  0.00    -0.076 NA
BRANCH  10  11
HETATM   11  O1  UNL     1     -16.902 -25.824  15.093  1.00  0.00    -0.289 OA
HETATM   12  C1  UNL     1     -18.178 -25.382  15.431  1.00  0.00     0.231 C
ENDBRANCH  10  11
ENDBRANCH   1  10
TORSDOF 2
ENDMDL