MODEL 5
REMARK VINA RESULT: -3.764127361      2.403      2.676
REMARK  1 active torsions:
REMARK  status: ('A' for Active; 'I' for Inactive)
REMARK    1  A    between atoms: C1_2  and  C2_3
ROOT
HETATM    1  S1  UNL     1     -17.809 -29.690  14.726  1.00  0.00    -0.084 SA
HETATM    2  C1  UNL     1     -17.838 -28.081  13.836  1.00  0.00     0.046 C
HETATM    3  C3  UNL     1     -17.877 -27.012  14.850  1.00  0.00     0.026 C
HETATM    4  C4  UNL     1     -18.738 -25.842  14.545  1.00  0.00     0.021 C
HETATM    5  C5  UNL     1     -20.024 -26.252  13.891  1.00  0.00     0.113 C
HETATM    6  N1  UNL     1     -19.710 -26.944  12.689  1.00  0.00    -0.420 N
ATOM      7  H1  UNL     1     -20.043 -26.623  11.780  1.00  0.00     0.153 HD
HETATM    8  C6  UNL     1     -18.907 -28.104  12.825  1.00  0.00     0.136 C
ENDROOT
BRANCH   2   9
HETATM    9  C2  UNL     1     -16.484 -28.063  13.103  1.00  0.00     0.137 C
HETATM   10 CL1  UNL     1     -15.271 -27.660  14.347  1.00  0.00    -0.129 Cl
ENDBRANCH   2   9
TORSDOF 1
ENDMDL