MODEL 4
REMARK VINA RESULT: -4.045293840      6.915      7.528
REMARK  2 active torsions:
REMARK  status: ('A' for Active; 'I' for Inactive)
REMARK    1  A    between atoms: O1_1  and  C1_3
REMARK    2  A    between atoms: C4_6  and  C5_7
ROOT
HETATM    1  C1  UNL     1     -15.732 -27.939  14.026  1.00  0.00     0.319 C
HETATM    2  C2  UNL     1     -16.461 -29.258  14.030  1.00  0.00     0.063 C
HETATM    3  C3  UNL     1     -17.829 -28.844  13.506  1.00  0.00     0.041 C
HETATM    4  C4  UNL     1     -18.003 -27.468  14.106  1.00  0.00     0.212 C
HETATM    5  N1  UNL     1     -16.723 -27.049  14.601  1.00  0.00    -0.042 N
ATOM      6  H11 UNL     1     -16.527 -26.064  14.423  1.00  0.00     0.281 HD
ATOM      7  H12 UNL     1     -16.681 -27.009  15.619  1.00  0.00     0.281 HD
ENDROOT
BRANCH   4   8
HETATM    8  C5  UNL     1     -18.971 -27.451  15.223  1.00  0.00     0.018 C
HETATM    9  C6  UNL     1     -20.256 -27.197  15.063  1.00  0.00     0.082 C
HETATM   10 CL1  UNL     1     -20.814 -26.864  13.412  1.00  0.00    -0.097 Cl
ENDBRANCH   4   8
BRANCH   1  11
HETATM   11  O1  UNL     1     -15.341 -27.550  12.753  1.00  0.00    -0.370 OA
ATOM     12  H1  UNL     1     -14.603 -26.951  12.765  1.00  0.00     0.212 HD
ENDBRANCH   1  11
TORSDOF 2
ENDMDL