MODEL 1
REMARK VINA RESULT: -3.823637661      0.000      0.000
REMARK  1 active torsions:
REMARK  status: ('A' for Active; 'I' for Inactive)
REMARK    1  A    between atoms: S1_2  and  C2_3
ROOT
HETATM    1  C2  UNL     1     -16.919 -28.820  13.462  1.00  0.00     0.165 A
HETATM    2 CL1  UNL     1     -16.777 -30.546  13.160  1.00  0.00    -0.083 Cl
HETATM    3  C3  UNL     1     -15.802 -27.940  13.042  1.00  0.00     0.135 A
HETATM    4  C4  UNL     1     -15.627 -27.640  14.510  1.00  0.00     0.077 A
HETATM    5  N1  UNL     1     -14.761 -26.897  15.096  1.00  0.00    -0.389 N
ATOM      6  H11 UNL     1     -14.643 -26.694  16.088  1.00  0.00     0.157 HD
ATOM      7  H12 UNL     1     -13.972 -26.304  14.835  1.00  0.00     0.157 HD
HETATM    8  N2  UNL     1     -16.719 -28.460  14.871  1.00  0.00    -0.349 N
ATOM      9  H2  UNL     1     -17.178 -28.703  15.749  1.00  0.00     0.163 HD
ENDROOT
BRANCH   1  10
HETATM   10  S1  UNL     1     -18.603 -28.242  13.019  1.00  0.00    -0.126 SA
HETATM   11  C1  UNL     1     -19.637 -28.513  14.497  1.00  0.00     0.093 C
ENDBRANCH   1  10
TORSDOF 1
ENDMDL