MODEL 5
REMARK VINA RESULT: -4.165415084      1.366      2.718
REMARK  1 active torsions:
REMARK  status: ('A' for Active; 'I' for Inactive)
REMARK    1  A    between atoms: C2_2  and  N1_3
ROOT
HETATM    1  C1  UNL     1     -18.185 -27.429  13.975  1.00  0.00     0.037 C
HETATM    2  C2  UNL     1     -17.382 -28.602  14.559  1.00  0.00     0.066 C
HETATM    3  C3  UNL     1     -16.997 -29.443  13.388  1.00  0.00     0.031 C
HETATM    4  C4  UNL     1     -16.777 -30.884  13.696  1.00  0.00     0.029 C
HETATM    5  C5  UNL     1     -17.691 -31.430  14.755  1.00  0.00     0.232 C
HETATM    6  N2  UNL     1     -18.806 -30.507  14.950  1.00  0.00    -0.073 N
ATOM      7  H21 UNL     1     -19.591 -30.905  15.465  1.00  0.00     0.277 HD
ATOM      8  H22 UNL     1     -19.325 -30.296  14.097  1.00  0.00     0.277 HD
HETATM    9  C6  UNL     1     -18.208 -29.333  15.588  1.00  0.00     0.259 C
ENDROOT
BRANCH   2  10
HETATM   10  N1  UNL     1     -16.211 -27.977  15.164  1.00  0.00    -0.131 NA
HETATM   11 CL1  UNL     1     -14.988 -27.626  14.019  1.00  0.00    -0.003 Cl
ENDBRANCH   2  10
TORSDOF 1
ENDMDL