MODEL 2
REMARK VINA RESULT: -4.639844034      3.037      4.620
REMARK  1 active torsions:
REMARK  status: ('A' for Active; 'I' for Inactive)
REMARK    1  A    between atoms: C3_3  and  C4_4
ROOT
HETATM    1  C4  UNL     1     -17.663 -35.481  16.731  1.00  0.00     0.216 C
HETATM    2  C5  UNL     1     -16.603 -35.065  15.774  1.00  0.00     0.092 C
HETATM    3  C6  UNL     1     -17.285 -34.118  14.886  1.00  0.00     0.028 C
HETATM    4  N1  UNL     1     -16.880 -33.758  13.729  1.00  0.00    -0.403 N
ATOM      5  H11 UNL     1     -17.354 -33.099  13.111  1.00  0.00     0.155 HD
ATOM      6  H12 UNL     1     -16.030 -34.075  13.261  1.00  0.00     0.155 HD
HETATM    7  C7  UNL     1     -18.512 -33.660  15.563  1.00  0.00     0.326 C
HETATM    8 CL1  UNL     1     -18.330 -31.908  15.917  1.00  0.00    -0.088 Cl
HETATM    9  N2  UNL     1     -18.565 -34.380  16.799  1.00  0.00    -0.045 N
ATOM     10  H21 UNL     1     -18.389 -33.782  17.607  1.00  0.00     0.280 HD
ATOM     11  H22 UNL     1     -19.513 -34.669  17.041  1.00  0.00     0.280 HD
ENDROOT
BRANCH   1  12
HETATM   12  C3  UNL     1     -18.388 -36.710  16.343  1.00  0.00     0.002 C
HETATM   13  C2  UNL     1     -17.845 -37.760  15.783  1.00  0.00    -0.033 C
HETATM   14  C1  UNL     1     -18.636 -38.948  15.426  1.00  0.00     0.036 C
ENDBRANCH   1  12
TORSDOF 1
ENDMDL