MODEL 3
REMARK VINA RESULT: -5.065971822      4.764      8.172
REMARK  2 active torsions:
REMARK  status: ('A' for Active; 'I' for Inactive)
REMARK    1  A    between atoms: C2_2  and  C3_3
REMARK    2  A    between atoms: C3_3  and  N1_4
ROOT
HETATM    1  N1  UNL     1     -16.642 -36.122  14.982  1.00  0.00    -0.358 N
ATOM      2  H1  UNL     1     -15.968 -36.209  14.222  1.00  0.00     0.162 HD
HETATM    3  C4  UNL     1     -17.291 -37.178  15.325  1.00  0.00     0.192 A
HETATM    4  N2  UNL     1     -17.119 -38.435  14.709  1.00  0.00    -0.274 N
ATOM      5  H2  UNL     1     -16.472 -38.623  13.942  1.00  0.00     0.189 HD
HETATM    6  N3  UNL     1     -17.866 -39.283  15.229  1.00  0.00    -0.305 N
ATOM      7  H3  UNL     1     -17.909 -40.261  14.942  1.00  0.00     0.183 HD
HETATM    8  C5  UNL     1     -18.647 -38.726  16.265  1.00  0.00     0.120 A
HETATM    9  C6  UNL     1     -20.065 -39.141  16.470  1.00  0.00     0.059 A
HETATM   10  C7  UNL     1     -19.037 -39.491  17.473  1.00  0.00     0.059 A
HETATM   11  N4  UNL     1     -18.273 -37.349  16.331  1.00  0.00    -0.333 N
ATOM     12  H4  UNL     1     -18.637 -36.640  16.967  1.00  0.00     0.165 HD
ENDROOT
BRANCH   1  13
HETATM   13  C3  UNL     1     -16.793 -34.830  15.588  1.00  0.00     0.149 C
BRANCH  13  14
HETATM   14  C2  UNL     1     -17.348 -33.820  14.642  1.00  0.00    -0.018 C
HETATM   15  C1  UNL     1     -18.246 -32.940  15.048  1.00  0.00     0.008 C
ENDBRANCH  13  14
ENDBRANCH   1  13
TORSDOF 2
ENDMDL