MODEL 5
REMARK VINA RESULT: -3.984626195      2.544      3.698
REMARK  2 active torsions:
REMARK  status: ('A' for Active; 'I' for Inactive)
REMARK    1  A    between atoms: C2_2  and  O1_4
REMARK    2  A    between atoms: C2_2  and  C4_6
ROOT
HETATM    1  C4  UNL     1     -17.827 -28.771  13.406  1.00  0.00     0.044 A
HETATM    2  C5  UNL     1     -16.624 -28.586  14.342  1.00  0.00     0.035 A
HETATM    3  C6  UNL     1     -17.465 -29.883  14.229  1.00  0.00     0.040 A
HETATM    4  C7  UNL     1     -18.080 -30.287  15.518  1.00  0.00     0.033 C
HETATM    5 CL1  UNL     1     -16.574 -31.233  13.429  1.00  0.00    -0.119 Cl
ENDROOT
BRANCH   1   6
HETATM    6  C2  UNL     1     -18.889 -27.769  13.592  1.00  0.00     0.056 C
HETATM    7  C1  UNL     1     -20.218 -28.233  14.039  1.00  0.00     0.045 C
HETATM    8  C3  UNL     1     -18.402 -26.698  14.579  1.00  0.00     0.045 C
BRANCH   6   9
HETATM    9  O1  UNL     1     -19.089 -27.068  12.377  1.00  0.00    -0.390 OA
ATOM     10  H1  UNL     1     -19.710 -26.373  12.559  1.00  0.00     0.210 HD
ENDBRANCH   6   9
ENDBRANCH   1   6
TORSDOF 2
ENDMDL