MODEL 5
REMARK VINA RESULT: -4.741920842      3.734      6.419
REMARK  1 active torsions:
REMARK  status: ('A' for Active; 'I' for Inactive)
REMARK    1  A    between atoms: C5_6  and  C6_7
ROOT
HETATM    1  F1  UNL     1     -17.486 -29.976  12.252  1.00  0.00    -0.219 F
HETATM    2  C1  UNL     1     -16.521 -30.126  13.234  1.00  0.00     0.368 C
HETATM    3  C2  UNL     1     -16.724 -29.077  14.293  1.00  0.00     0.067 C
HETATM    4  C3  UNL     1     -17.790 -29.363  15.267  1.00  0.00     0.007 C
HETATM    5  C4  UNL     1     -18.249 -30.751  15.402  1.00  0.00     0.035 C
HETATM    6  C5  UNL     1     -17.891 -31.664  14.284  1.00  0.00     0.219 C
HETATM    7  N2  UNL     1     -16.530 -31.467  13.803  1.00  0.00    -0.038 N
ATOM      8  H21 UNL     1     -15.815 -31.619  14.514  1.00  0.00     0.281 HD
ATOM      9  H22 UNL     1     -16.211 -32.191  13.158  1.00  0.00     0.281 HD
ENDROOT
BRANCH   6  10
HETATM   10  C6  UNL     1     -18.048 -33.115  14.604  1.00  0.00     0.218 C
HETATM   11  C7  UNL     1     -17.736 -33.537  16.010  1.00  0.00     0.062 C
HETATM   12  C8  UNL     1     -17.226 -34.807  15.317  1.00  0.00     0.235 C
HETATM   13  N1  UNL     1     -16.947 -33.953  14.158  1.00  0.00    -0.069 N
ATOM     14  H12 UNL     1     -16.923 -34.335  13.212  1.00  0.00     0.277 HD
ATOM     15  H11 UNL     1     -16.018 -33.565  13.997  1.00  0.00     0.277 HD
ENDBRANCH   6  10
TORSDOF 1
ENDMDL