MODEL 5
REMARK VINA RESULT: -4.510772025      3.322      5.427
REMARK  3 active torsions:
REMARK  status: ('A' for Active; 'I' for Inactive)
REMARK    1  A    between atoms: C2_2  and  C3_4
REMARK    2  A    between atoms: C3_4  and  N2_8
REMARK    3  A    between atoms: N2_8  and  C4_10
ROOT
HETATM    1  C4  UNL     1      11.864  -6.568 -11.087  1.00  0.00     0.091 C
HETATM    2  C5  UNL     1      11.817  -5.118 -11.462  1.00  0.00     0.009 C
HETATM    3  C6  UNL     1      11.892  -4.188 -10.288  1.00  0.00     0.011 C
HETATM    4  C7  UNL     1      10.792  -4.482  -9.302  1.00  0.00    -0.013 C
HETATM    5  C8  UNL     1       9.445  -4.283  -9.949  1.00  0.00     0.009 C
HETATM    6  C9  UNL     1       9.356  -5.223 -11.127  1.00  0.00    -0.013 C
HETATM    7  C10 UNL     1      10.460  -4.871 -12.110  1.00  0.00     0.011 C
HETATM    8  C11 UNL     1       9.472  -6.666 -10.667  1.00  0.00     0.011 C
HETATM    9  C12 UNL     1      10.838  -6.852 -10.043  1.00  0.00     0.009 C
HETATM   10  C13 UNL     1      10.928  -5.912  -8.861  1.00  0.00     0.011 C
ENDROOT
BRANCH   1  11
HETATM   11  N2  UNL     1      13.151  -7.047 -10.712  1.00  0.00    -0.373 N
ATOM     12  H2  UNL     1      13.895  -6.356 -10.614  1.00  0.00     0.161 HD
BRANCH  11  13
HETATM   13  C3  UNL     1      13.487  -8.394 -10.464  1.00  0.00     0.089 C
HETATM   14  N1  UNL     1      13.138  -9.270 -11.327  1.00  0.00    -0.388 N
ATOM     15  H12 UNL     1      13.382 -10.245 -11.148  1.00  0.00     0.157 HD
ATOM     16  H11 UNL     1      12.633  -8.974 -12.162  1.00  0.00     0.157 HD
BRANCH  13  17
HETATM   17  C2  UNL     1      14.220  -8.824  -9.252  1.00  0.00     0.145 C
HETATM   18  C1  UNL     1      13.541  -8.355  -7.975  1.00  0.00     0.034 C
HETATM   19 CL1  UNL     1      15.895  -8.170  -9.269  1.00  0.00    -0.117 Cl
ENDBRANCH  13  17
ENDBRANCH  11  13
ENDBRANCH   1  11
TORSDOF 3
ENDMDL