MODEL 1
REMARK VINA RESULT: -4.285410257      0.000      0.000
REMARK  4 active torsions:
REMARK  status: ('A' for Active; 'I' for Inactive)
REMARK    1  A    between atoms: C2_2  and  N1_5
REMARK    2  A    between atoms: N1_5  and  C5_7
REMARK    3  A    between atoms: C5_7  and  N2_9
REMARK    4  A    between atoms: N2_9  and  C6_11
ROOT
HETATM    1  C5  UNL     1      10.674  -5.844 -11.047  1.00  0.00     0.168 C
HETATM    2  S1  UNL     1      10.733  -6.249 -12.656  1.00  0.00    -0.041 SA
ENDROOT
BRANCH   1   3
HETATM    3  N1  UNL     1      11.788  -6.094 -10.209  1.00  0.00    -0.359 N
ATOM      4  H1  UNL     1      12.668  -5.620 -10.412  1.00  0.00     0.162 HD
BRANCH   3   5
HETATM    5  C2  UNL     1      11.729  -6.994  -9.076  1.00  0.00     0.021 C
HETATM    6  C1  UNL     1      13.066  -7.677  -8.920  1.00  0.00     0.037 C
HETATM    7  C3  UNL     1      10.687  -8.066  -9.296  1.00  0.00     0.037 C
HETATM    8  C4  UNL     1      11.417  -6.275  -7.790  1.00  0.00     0.037 C
ENDBRANCH   3   5
ENDBRANCH   1   3
BRANCH   1   9
HETATM    9  N2  UNL     1       9.464  -5.251 -10.596  1.00  0.00    -0.363 N
ATOM     10  H2  UNL     1       8.764  -5.832 -10.134  1.00  0.00     0.162 HD
BRANCH   9  11
HETATM   11  C6  UNL     1       9.207  -3.842 -10.778  1.00  0.00     0.083 C
HETATM   12  C7  UNL     1       9.241  -3.048  -9.494  1.00  0.00     0.025 C
HETATM   13  C8  UNL     1       7.866  -2.637  -9.033  1.00  0.00     0.002 C
HETATM   14  C9  UNL     1       7.066  -1.930 -10.070  1.00  0.00     0.000 C
HETATM   15  C10 UNL     1       7.534  -2.214 -11.465  1.00  0.00     0.002 C
HETATM   16  C11 UNL     1       7.924  -3.676 -11.530  1.00  0.00     0.025 C
ENDBRANCH   9  11
ENDBRANCH   1   9
TORSDOF 4
ENDMDL