MODEL 3
REMARK VINA RESULT: -4.750759605      1.490      2.148
REMARK  4 active torsions:
REMARK  status: ('A' for Active; 'I' for Inactive)
REMARK    1  A    between atoms: C2_2  and  N1_4
REMARK    2  A    between atoms: N1_4  and  C4_6
REMARK    3  A    between atoms: C4_6  and  N2_8
REMARK    4  A    between atoms: N2_8  and  C5_10
ROOT
HETATM    1  C5  UNL     1      10.059  -5.754 -10.543  1.00  0.00     0.117 C
HETATM    2  C6  UNL     1      10.685  -6.904 -11.251  1.00  0.00     0.028 C
HETATM    3  C7  UNL     1      12.132  -6.740 -11.565  1.00  0.00     0.002 C
HETATM    4  C8  UNL     1      13.127  -7.340 -10.672  1.00  0.00     0.000 C
HETATM    5  C9  UNL     1      12.640  -8.032  -9.442  1.00  0.00     0.000 C
HETATM    6  C10 UNL     1      12.297  -7.066  -8.324  1.00  0.00     0.003 C
HETATM    7  C11 UNL     1      10.904  -6.544  -8.403  1.00  0.00     0.039 C
HETATM    8  C12 UNL     1      10.751  -5.335  -9.267  1.00  0.00     0.192 C
HETATM    9  F1  UNL     1      11.885  -4.607  -9.445  1.00  0.00    -0.247 F
ENDROOT
BRANCH   1  10
HETATM   10  N2  UNL     1       9.718  -4.628 -11.375  1.00  0.00    -0.360 N
ATOM     11  H2  UNL     1      10.491  -4.069 -11.737  1.00  0.00     0.162 HD
BRANCH  10  12
HETATM   12  C4  UNL     1       8.424  -4.226 -11.733  1.00  0.00     0.168 C
HETATM   13  S1  UNL     1       7.463  -5.271 -12.537  1.00  0.00    -0.041 SA
BRANCH  12  14
HETATM   14  N1  UNL     1       7.917  -2.947 -11.402  1.00  0.00    -0.363 N
ATOM     15  H1  UNL     1       7.979  -2.188 -12.080  1.00  0.00     0.162 HD
BRANCH  14  16
HETATM   16  C2  UNL     1       7.314  -2.707 -10.117  1.00  0.00     0.075 C
HETATM   17  C1  UNL     1       6.526  -1.387 -10.224  1.00  0.00     0.032 C
HETATM   18  C3  UNL     1       8.378  -2.511  -9.044  1.00  0.00     0.032 C
ENDBRANCH  14  16
ENDBRANCH  12  14
ENDBRANCH  10  12
ENDBRANCH   1  10
TORSDOF 4
ENDMDL