MODEL 5
REMARK VINA RESULT: -4.262522591      2.445      5.475
REMARK  5 active torsions:
REMARK  status: ('A' for Active; 'I' for Inactive)
REMARK    1  A    between atoms: C2_2  and  N1_3
REMARK    2  A    between atoms: C2_2  and  C10_15
REMARK    3  A    between atoms: N1_3  and  C3_5
REMARK    4  A    between atoms: C3_5  and  N2_7
REMARK    5  A    between atoms: N2_7  and  C4_9
ROOT
HETATM    1  C3  UNL     1      11.183  -5.961 -11.416  1.00  0.00     0.172 C
HETATM    2  S1  UNL     1      12.494  -5.195 -11.993  1.00  0.00    -0.041 SA
ENDROOT
BRANCH   1   3
HETATM    3  N1  UNL     1      11.388  -7.218 -10.791  1.00  0.00    -0.337 N
ATOM      4  H1  UNL     1      11.057  -8.057 -11.267  1.00  0.00     0.168 HD
BRANCH   3   5
HETATM    5  C2  UNL     1      12.031  -7.364  -9.536  1.00  0.00     0.009 C
HETATM    6  C1  UNL     1      11.601  -6.624  -8.531  1.00  0.00     0.039 C
BRANCH   5   7
HETATM    7  C10 UNL     1      13.140  -8.293  -9.324  1.00  0.00    -0.009 C
HETATM    8  C11 UNL     1      14.360  -7.950 -10.162  1.00  0.00     0.021 C
HETATM    9  C12 UNL     1      12.672  -9.667  -9.825  1.00  0.00     0.021 C
HETATM   10  C13 UNL     1      13.495  -8.470  -7.874  1.00  0.00     0.021 C
ENDBRANCH   5   7
ENDBRANCH   3   5
ENDBRANCH   1   3
BRANCH   1  11
HETATM   11  N2  UNL     1       9.915  -5.398 -11.543  1.00  0.00    -0.362 N
ATOM     12  H2  UNL     1       9.251  -5.943 -12.092  1.00  0.00     0.162 HD
BRANCH  11  13
HETATM   13  C4  UNL     1       9.412  -4.179 -11.020  1.00  0.00     0.083 C
HETATM   14  C5  UNL     1       7.989  -3.923 -11.378  1.00  0.00     0.025 C
HETATM   15  C6  UNL     1       7.473  -2.603 -10.869  1.00  0.00     0.002 C
HETATM   16  C7  UNL     1       7.878  -2.327  -9.443  1.00  0.00     0.000 C
HETATM   17  C8  UNL     1       9.347  -2.587  -9.194  1.00  0.00     0.002 C
HETATM   18  C9  UNL     1       9.550  -4.081  -9.492  1.00  0.00     0.025 C
ENDBRANCH  11  13
ENDBRANCH   1  11
TORSDOF 5
ENDMDL