MODEL 3
REMARK VINA RESULT: -4.904469407      4.640      6.818
REMARK  2 active torsions:
REMARK  status: ('A' for Active; 'I' for Inactive)
REMARK    1  A    between atoms: C10_10  and  N1_11
REMARK       I    between atoms: N1_11  and  C11_13
REMARK       I    between atoms: C11_13  and  N2_15
REMARK    2  A    between atoms: N2_15  and  C12_17
ROOT
HETATM    1  C1  UNL     1       8.030  -2.936 -11.276  1.00  0.00     0.017 C
HETATM    2  C2  UNL     1       8.724  -3.639 -12.118  1.00  0.00    -0.057 C
HETATM    3  C3  UNL     1       9.318  -4.950 -11.664  1.00  0.00     0.017 C
HETATM    4  C4  UNL     1       8.704  -6.076 -12.490  1.00  0.00     0.014 C
HETATM    5  C5  UNL     1       8.807  -5.717 -13.936  1.00  0.00    -0.011 C
HETATM    6  C6  UNL     1      10.294  -5.825 -14.286  1.00  0.00     0.009 C
HETATM    7  C7  UNL     1      10.967  -4.724 -13.477  1.00  0.00    -0.011 C
HETATM    8  C8  UNL     1      10.788  -4.879 -11.998  1.00  0.00     0.014 C
HETATM    9  C9  UNL     1      10.408  -3.435 -13.966  1.00  0.00     0.040 C
HETATM   10  C10 UNL     1       8.953  -3.280 -13.516  1.00  0.00     0.058 C
HETATM   11  C15 UNL     1       8.221  -4.389 -14.315  1.00  0.00     0.040 C
ENDROOT
BRANCH  10  12
HETATM   12  N1  UNL     1       8.455  -1.992 -13.823  1.00  0.00    -0.330 N
HETATM   13  C11 UNL     1       8.327  -1.554 -15.183  1.00  0.00     0.317 C
HETATM   14  O1  UNL     1       8.639  -2.294 -16.168  1.00  0.00    -0.247 OA
HETATM   15  N2  UNL     1       7.840  -0.264 -15.499  1.00  0.00    -0.339 N
ATOM     16  H2  UNL     1       7.573   0.371 -14.746  1.00  0.00     0.164 HD
ATOM     17  H1  UNL     1       8.184  -1.365 -13.066  1.00  0.00     0.165 HD
BRANCH  15  18
HETATM   18  C12 UNL     1       7.716   0.162 -16.857  1.00  0.00     0.078 C
HETATM   19  C13 UNL     1       8.974   0.861 -17.341  1.00  0.00     0.032 C
HETATM   20  C14 UNL     1       6.569   1.157 -16.977  1.00  0.00     0.032 C
ENDBRANCH  15  18
ENDBRANCH  10  12
TORSDOF 2
ENDMDL