MODEL 4
REMARK VINA RESULT: -4.634808179      0.393      2.108
REMARK  3 active torsions:
REMARK  status: ('A' for Active; 'I' for Inactive)
REMARK    1  A    between atoms: C1_2  and  N1_3
REMARK    2  A    between atoms: C1_2  and  N2_6
REMARK    3  A    between atoms: N2_6  and  C2_8
ROOT
HETATM    1  C2  UNL     1       8.926  -4.467 -12.204  1.00  0.00     0.033 C
HETATM    2  C3  UNL     1      10.352  -4.804 -12.457  1.00  0.00     0.035 C
HETATM    3  C4  UNL     1      10.877  -4.506 -13.821  1.00  0.00    -0.012 C
HETATM    4  C5  UNL     1      10.677  -5.630 -14.801  1.00  0.00     0.005 C
HETATM    5  C6  UNL     1       9.370  -6.306 -14.737  1.00  0.00     0.005 C
HETATM    6  C7  UNL     1       8.190  -5.507 -14.362  1.00  0.00    -0.012 C
HETATM    7  C8  UNL     1       8.103  -4.138 -14.968  1.00  0.00     0.009 C
HETATM    8  C9  UNL     1       8.902  -3.109 -14.251  1.00  0.00    -0.012 C
HETATM    9  C10 UNL     1      10.391  -3.255 -14.465  1.00  0.00     0.009 C
HETATM   10  C11 UNL     1       8.669  -3.056 -12.791  1.00  0.00     0.035 C
HETATM   11  C12 UNL     1       7.975  -5.429 -12.865  1.00  0.00     0.035 C
ENDROOT
BRANCH   1  12
HETATM   12  N2  UNL     1       8.578  -4.368 -10.825  1.00  0.00    -0.357 N
ATOM     13  H2  UNL     1       8.138  -5.207 -10.446  1.00  0.00     0.162 HD
BRANCH  12  14
HETATM   14  C1  UNL     1       8.726  -3.336  -9.898  1.00  0.00     0.182 C
HETATM   15  S1  UNL     1       7.413  -2.355  -9.590  1.00  0.00    -0.040 SA
BRANCH  14  16
HETATM   16  N1  UNL     1       9.893  -3.046  -9.193  1.00  0.00    -0.275 N
HETATM   17 CL1  UNL     1      11.139  -4.301  -9.056  1.00  0.00     0.013 Cl
ATOM     18  H1  UNL     1      10.027  -2.130  -8.764  1.00  0.00     0.183 HD
ENDBRANCH  14  16
ENDBRANCH  12  14
ENDBRANCH   1  12
TORSDOF 3
ENDMDL