MODEL 5
REMARK VINA RESULT: -4.275177996      3.435      4.319
REMARK  2 active torsions:
REMARK  status: ('A' for Active; 'I' for Inactive)
REMARK    1  A    between atoms: C2_2  and  N1_4
REMARK       I    between atoms: N1_4  and  C4_6
REMARK       I    between atoms: C4_6  and  N2_8
REMARK    2  A    between atoms: N2_8  and  C5_10
ROOT
HETATM    1  C5  UNL     1      10.109  -6.478 -10.846  1.00  0.00     0.056 C
HETATM    2  C6  UNL     1      10.217  -7.658  -9.885  1.00  0.00     0.038 C
HETATM    3  C7  UNL     1      11.505  -7.273  -9.169  1.00  0.00    -0.010 C
HETATM    4  C8  UNL     1      12.678  -7.159 -10.099  1.00  0.00     0.009 C
HETATM    5  C9  UNL     1      12.378  -6.294 -11.296  1.00  0.00    -0.010 C
HETATM    6  C10 UNL     1      11.958  -4.926 -10.787  1.00  0.00     0.033 C
HETATM    7  C11 UNL     1      10.651  -5.296 -10.072  1.00  0.00     0.063 C
HETATM    8 CL1  UNL     1       9.550  -3.960  -9.874  1.00  0.00    -0.117 Cl
HETATM    9  C12 UNL     1      11.110  -5.871  -8.740  1.00  0.00     0.033 C
HETATM   10  C13 UNL     1      11.065  -6.735 -11.962  1.00  0.00     0.038 C
ENDROOT
BRANCH   1  11
HETATM   11  N2  UNL     1       8.769  -6.225 -11.250  1.00  0.00    -0.332 N
HETATM   12  C4  UNL     1       7.896  -7.087 -11.942  1.00  0.00     0.317 C
HETATM   13  N1  UNL     1       6.592  -6.632 -12.268  1.00  0.00    -0.339 N
HETATM   14  O1  UNL     1       8.229  -8.274 -12.294  1.00  0.00    -0.247 OA
ATOM     15  H1  UNL     1       6.297  -5.692 -12.001  1.00  0.00     0.164 HD
ATOM     16  H2  UNL     1       8.394  -5.308 -11.009  1.00  0.00     0.165 HD
BRANCH  13  17
HETATM   17  C2  UNL     1       5.684  -7.502 -12.978  1.00  0.00     0.078 C
HETATM   18  C1  UNL     1       5.773  -7.247 -14.468  1.00  0.00     0.032 C
HETATM   19  C3  UNL     1       4.281  -7.165 -12.495  1.00  0.00     0.032 C
ENDBRANCH  13  17
ENDBRANCH   1  11
TORSDOF 2
ENDMDL