MODEL 5
REMARK VINA RESULT: -4.717948628      3.600      7.343
REMARK  2 active torsions:
REMARK  status: ('A' for Active; 'I' for Inactive)
REMARK    1  A    between atoms: C2_2  and  N1_5
REMARK       I    between atoms: C5_7  and  N3_9
REMARK    2  A    between atoms: N3_9  and  C6_11
ROOT
HETATM    1  N1  UNL     1       7.842  -3.150 -15.709  1.00  0.00    -0.357 N
ATOM      2  H1  UNL     1       7.153  -3.895 -15.817  1.00  0.00     0.163 HD
HETATM    3  C5  UNL     1       8.720  -3.328 -14.802  1.00  0.00     0.185 C
HETATM    4  N2  UNL     1       9.704  -2.322 -14.607  1.00  0.00    -0.064 NA
HETATM    5  N3  UNL     1       8.682  -4.515 -14.027  1.00  0.00    -0.360 N
ATOM      6  H3  UNL     1       8.202  -5.338 -14.391  1.00  0.00     0.162 HD
ENDROOT
BRANCH   5   7
HETATM    7  C6  UNL     1       9.326  -4.574 -12.704  1.00  0.00     0.084 C
HETATM    8  C7  UNL     1       9.836  -5.950 -12.475  1.00  0.00     0.025 C
HETATM    9  C8  UNL     1      11.308  -6.068 -12.306  1.00  0.00     0.002 C
HETATM   10  C9  UNL     1      11.915  -5.079 -11.365  1.00  0.00     0.000 C
HETATM   11  C10 UNL     1      11.401  -5.226  -9.950  1.00  0.00     0.000 C
HETATM   12  C11 UNL     1      10.871  -3.880  -9.493  1.00  0.00     0.000 C
HETATM   13  C12 UNL     1       9.351  -3.976  -9.456  1.00  0.00     0.000 C
HETATM   14  C13 UNL     1       8.774  -3.267 -10.645  1.00  0.00     0.002 C
HETATM   15  C14 UNL     1       8.249  -4.231 -11.689  1.00  0.00     0.025 C
ENDBRANCH   5   7
BRANCH   1  16
HETATM   16  C2  UNL     1       7.707  -2.039 -16.588  1.00  0.00     0.021 C
HETATM   17  C1  UNL     1       8.851  -1.809 -17.516  1.00  0.00     0.037 C
HETATM   18  C3  UNL     1       7.421  -0.742 -15.831  1.00  0.00     0.037 C
HETATM   19  C4  UNL     1       6.462  -2.279 -17.452  1.00  0.00     0.037 C
ENDBRANCH   1  16
TORSDOF 2
ENDMDL