MODEL 1
REMARK VINA RESULT: -4.620097259      0.000      0.000
REMARK  4 active torsions:
REMARK  status: ('A' for Active; 'I' for Inactive)
REMARK    1  A    between atoms: C6_7  and  N1_8
REMARK    2  A    between atoms: N1_8  and  C7_10
REMARK    3  A    between atoms: C7_10  and  N2_12
REMARK    4  A    between atoms: N2_12  and  C8_14
ROOT
HETATM    1  N1  UNL     1      11.576  -5.126 -11.003  1.00  0.00    -0.363 N
ATOM      2  H1  UNL     1      12.140  -4.311 -10.764  1.00  0.00     0.162 HD
ENDROOT
BRANCH   1   3
HETATM    3  C6  UNL     1      10.156  -4.986 -11.259  1.00  0.00     0.086 C
HETATM    4  C5  UNL     1       9.997  -4.067 -12.443  1.00  0.00     0.062 C
HETATM    5  C4  UNL     1       8.576  -3.747 -12.770  1.00  0.00     0.172 C
HETATM    6  C3  UNL     1       7.765  -3.622 -11.477  1.00  0.00     0.041 C
HETATM    7  F1  UNL     1       8.564  -2.463 -13.331  1.00  0.00    -0.249 F
HETATM    8  C2  UNL     1       8.747  -3.177 -10.413  1.00  0.00    -0.014 C
HETATM    9  C1  UNL     1       8.031  -2.564  -9.230  1.00  0.00     0.010 C
HETATM   10  C12 UNL     1       9.536  -4.406 -10.006  1.00  0.00     0.029 C
ENDBRANCH   1   3
BRANCH   1  11
HETATM   11  C7  UNL     1      12.169  -6.406 -11.088  1.00  0.00     0.168 C
HETATM   12  S1  UNL     1      12.152  -7.196 -12.507  1.00  0.00    -0.041 SA
BRANCH  11  13
HETATM   13  N2  UNL     1      12.763  -6.952  -9.915  1.00  0.00    -0.359 N
ATOM     14  H2  UNL     1      13.778  -6.939  -9.805  1.00  0.00     0.162 HD
BRANCH  13  15
HETATM   15  C8  UNL     1      11.931  -7.525  -8.876  1.00  0.00     0.021 C
HETATM   16  C9  UNL     1      12.705  -8.644  -8.228  1.00  0.00     0.037 C
HETATM   17  C10 UNL     1      10.647  -8.058  -9.458  1.00  0.00     0.037 C
HETATM   18  C11 UNL     1      11.568  -6.484  -7.831  1.00  0.00     0.037 C
ENDBRANCH  13  15
ENDBRANCH  11  13
ENDBRANCH   1  11
TORSDOF 4
ENDMDL