MODEL 1
REMARK VINA RESULT: -4.330995707      0.000      0.000
REMARK  1 active torsions:
REMARK  status: ('A' for Active; 'I' for Inactive)
REMARK    1  A    between atoms: C2_3  and  C3_4
ROOT
HETATM    1  C3  UNL     1      10.782   5.253  41.400  1.00  0.00     0.080 C
HETATM    2  C4  UNL     1       9.751   4.299  42.007  1.00  0.00     0.092 C
HETATM    3  S1  UNL     1      10.726   2.938  42.728  1.00  0.00    -0.167 SA
HETATM    4  C5  UNL     1      11.851   3.503  43.992  1.00  0.00     0.084 C
HETATM    5  C6  UNL     1      12.586   4.754  43.676  1.00  0.00     0.084 C
HETATM    6  S2  UNL     1      11.664   5.985  42.782  1.00  0.00    -0.159 SA
ENDROOT
BRANCH   1   7
HETATM    7  C2  UNL     1      10.097   6.266  40.564  1.00  0.00     0.003 C
HETATM    8  C1  UNL     1       8.832   6.219  40.243  1.00  0.00     0.097 C
HETATM    9  N1  UNL     1       8.261   7.232  39.438  1.00  0.00    -0.115 NA
ENDBRANCH   1   7
TORSDOF 1
ENDMDL