MODEL 1
REMARK VINA RESULT: -5.135569112      0.000      0.000
REMARK  2 active torsions:
REMARK  status: ('A' for Active; 'I' for Inactive)
REMARK    1  A    between atoms: C5_6  and  C6_7
REMARK    2  A    between atoms: C6_7  and  O2_10
ROOT
HETATM    1  C1  UNL     1      10.297   5.592  40.490  1.00  0.00     0.078 C
HETATM    2  C2  UNL     1      10.732   5.024  41.814  1.00  0.00     0.157 C
HETATM    3  C3  UNL     1      11.375   6.151  42.604  1.00  0.00     0.078 C
HETATM    4  O1  UNL     1      11.682   4.062  41.607  1.00  0.00    -0.353 OA
HETATM    5  C4  UNL     1      11.258   2.890  42.229  1.00  0.00     0.206 C
HETATM    6  C5  UNL     1      10.039   3.259  42.995  1.00  0.00     0.182 C
HETATM    7  O3  UNL     1       9.658   4.461  42.472  1.00  0.00    -0.345 OA
ENDROOT
BRANCH   6   8
HETATM    8  C6  UNL     1       8.959   2.206  42.950  1.00  0.00     0.079 C
HETATM    9  C7  UNL     1       7.642   2.799  42.496  1.00  0.00     0.048 C
HETATM   10  C8  UNL     1       8.729   1.549  44.279  1.00  0.00     0.048 C
BRANCH   8  11
HETATM   11  O2  UNL     1       9.314   1.210  42.043  1.00  0.00    -0.388 OA
ATOM     12  H2  UNL     1      10.260   1.175  41.962  1.00  0.00     0.210 HD
ENDBRANCH   8  11
ENDBRANCH   6   8
TORSDOF 2
ENDMDL