MODEL 2
REMARK VINA RESULT: -5.286779652      2.148      3.004
REMARK  2 active torsions:
REMARK  status: ('A' for Active; 'I' for Inactive)
REMARK    1  A    between atoms: C2_2  and  C4_5
REMARK    2  A    between atoms: N2_7  and  O1_8
ROOT
HETATM    1  C1  UNL     1      10.352   5.594  40.306  1.00  0.00     0.026 C
HETATM    2  C2  UNL     1      10.223   5.345  41.824  1.00  0.00     0.096 C
HETATM    3  C3  UNL     1      11.266   6.117  42.438  1.00  0.00     0.064 C
HETATM    4  N1  UNL     1      12.100   6.761  42.919  1.00  0.00    -0.197 NA
ENDROOT
BRANCH   2   5
HETATM    5  C4  UNL     1      10.292   3.906  42.037  1.00  0.00     0.042 C
HETATM    6  C5  UNL     1      11.519   3.301  42.656  1.00  0.00     0.129 C
HETATM    7  N2  UNL     1      10.639   2.169  43.006  1.00  0.00    -0.190 NA
HETATM    8  C6  UNL     1       9.582   3.198  43.115  1.00  0.00     0.037 C
HETATM    9  C7  UNL     1       9.571   3.689  44.505  1.00  0.00     0.034 C
HETATM   10  C8  UNL     1       8.235   2.709  42.638  1.00  0.00     0.034 C
BRANCH   7  11
HETATM   11  O1  UNL     1      10.451   1.393  41.896  1.00  0.00    -0.312 OA
ATOM     12  H1  UNL     1      10.092   0.555  42.162  1.00  0.00     0.237 HD
ENDBRANCH   7  11
ENDBRANCH   2   5
TORSDOF 2
ENDMDL