MODEL 4
REMARK VINA RESULT: -4.991589192      3.961      5.909
REMARK  2 active torsions:
REMARK  status: ('A' for Active; 'I' for Inactive)
REMARK    1  A    between atoms: N1_2  and  O1_3
REMARK    2  A    between atoms: N1_2  and  C2_5
ROOT
HETATM    1  C2  UNL     1      11.773   3.373  45.119  1.00  0.00     0.108 C
HETATM    2  C3  UNL     1      12.581   4.125  44.157  1.00  0.00     0.030 C
HETATM    3  C4  UNL     1      11.847   4.787  43.028  1.00  0.00     0.036 C
HETATM    4  C5  UNL     1      11.125   3.849  42.117  1.00  0.00     0.151 A
HETATM    5  O2  UNL     1       9.899   4.522  41.598  1.00  0.00    -0.375 OA
HETATM    6  C6  UNL     1       9.810   3.482  42.483  1.00  0.00     0.151 A
HETATM    7  C7  UNL     1       9.554   3.725  43.957  1.00  0.00     0.036 C
HETATM    8  C8  UNL     1      10.458   2.841  44.712  1.00  0.00     0.030 C
ENDROOT
BRANCH   1   9
HETATM    9  N1  UNL     1      12.551   2.274  45.601  1.00  0.00    -0.296 N
HETATM   10  C1  UNL     1      13.598   2.558  46.488  1.00  0.00     0.178 C
BRANCH   9  11
HETATM   11  O1  UNL     1      12.665   1.243  44.792  1.00  0.00    -0.292 OA
ATOM     12  H1  UNL     1      11.883   0.895  44.379  1.00  0.00     0.244 HD
ENDBRANCH   9  11
ENDBRANCH   1   9
TORSDOF 2
ENDMDL