MODEL 2
REMARK VINA RESULT: -5.088979555      1.795      3.463
REMARK  2 active torsions:
REMARK  status: ('A' for Active; 'I' for Inactive)
REMARK    1  A    between atoms: O1_2  and  C2_3
REMARK    2  A    between atoms: C9_10  and  O2_11
ROOT
HETATM    1  C2  UNL     1      10.831   3.971  42.487  1.00  0.00     0.093 C
HETATM    2  C3  UNL     1      11.364   5.100  43.281  1.00  0.00     0.042 C
HETATM    3  C4  UNL     1      12.678   4.333  43.435  1.00  0.00     0.015 C
HETATM    4  C5  UNL     1      12.027   3.133  42.852  1.00  0.00    -0.010 C
HETATM    5  C6  UNL     1      12.736   2.577  41.638  1.00  0.00     0.018 C
HETATM    6  C7  UNL     1      11.515   2.103  43.815  1.00  0.00     0.015 C
HETATM    7  C8  UNL     1      10.120   1.839  43.296  1.00  0.00     0.035 C
HETATM    8  C9  UNL     1       9.629   3.248  43.037  1.00  0.00     0.153 C
ENDROOT
BRANCH   1   9
HETATM    9  O1  UNL     1      10.733   4.272  41.142  1.00  0.00    -0.382 OA
HETATM   10  C1  UNL     1      10.153   5.487  40.880  1.00  0.00     0.202 C
ENDBRANCH   1   9
BRANCH   8  11
HETATM   11  O2  UNL     1       9.055   3.845  44.120  1.00  0.00    -0.393 OA
ATOM     12  H2  UNL     1       9.164   4.788  44.153  1.00  0.00     0.210 HD
ENDBRANCH   8  11
TORSDOF 2
ENDMDL