MODEL 3
REMARK VINA RESULT: -5.345524242      1.326      1.423
REMARK  2 active torsions:
REMARK  status: ('A' for Active; 'I' for Inactive)
REMARK    1  A    between atoms: C3_3  and  C4_4
REMARK    2  A    between atoms: C7_8  and  O2_10
ROOT
HETATM    1  C4  UNL     1      11.065   5.061  42.482  1.00  0.00     0.183 C
HETATM    2  C5  UNL     1      11.726   6.368  42.910  1.00  0.00     0.084 C
HETATM    3  O1  UNL     1      10.018   4.748  43.317  1.00  0.00    -0.347 OA
HETATM    4  C6  UNL     1      10.446   3.817  44.235  1.00  0.00     0.239 C
HETATM    5  C7  UNL     1      11.814   3.386  43.751  1.00  0.00     0.183 C
HETATM    6  C8  UNL     1      12.838   3.765  44.804  1.00  0.00     0.081 C
HETATM    7  O3  UNL     1      12.006   4.056  42.555  1.00  0.00    -0.314 OA
ENDROOT
BRANCH   1   8
HETATM    8  C3  UNL     1      10.521   5.225  41.108  1.00  0.00     0.036 C
HETATM    9  C2  UNL     1       9.887   6.323  40.746  1.00  0.00    -0.030 C
HETATM   10  C1  UNL     1       9.341   6.491  39.374  1.00  0.00     0.036 C
ENDBRANCH   1   8
BRANCH   5  11
HETATM   11  O2  UNL     1      11.846   1.998  43.491  1.00  0.00    -0.364 OA
ATOM     12  H2  UNL     1      12.199   1.820  42.628  1.00  0.00     0.213 HD
ENDBRANCH   5  11
TORSDOF 2
ENDMDL