MODEL 2
REMARK VINA RESULT: -4.539242872      0.906      1.256
REMARK  4 active torsions:
REMARK  status: ('A' for Active; 'I' for Inactive)
REMARK    1  A    between atoms: C1_2  and  N1_3
REMARK    2  A    between atoms: N1_3  and  N2_5
REMARK    3  A    between atoms: N2_5  and  S2_7
REMARK    4  A    between atoms: S2_7  and  C2_8
ROOT
HETATM    1  N2  UNL     1       8.575   5.975  40.239  1.00  0.00    -0.273 N
ATOM      2  H2  UNL     1       7.965   5.278  40.666  1.00  0.00     0.195 HD
ENDROOT
BRANCH   1   3
HETATM    3  N1  UNL     1       7.990   7.004  39.519  1.00  0.00    -0.296 N
ATOM      4  H1  UNL     1       6.980   7.056  39.384  1.00  0.00     0.187 HD
BRANCH   3   5
HETATM    5  C1  UNL     1       8.783   7.892  39.028  1.00  0.00     0.188 C
HETATM    6  S1  UNL     1       9.595   8.619  37.831  1.00  0.00    -0.073 SA
ENDBRANCH   3   5
ENDBRANCH   1   3
BRANCH   1   7
HETATM    7  S2  UNL     1      10.171   5.817  40.439  1.00  0.00    -0.034 SA
BRANCH   7   8
HETATM    8  C2  UNL     1      10.750   4.621  41.682  1.00  0.00     0.070 C
HETATM    9  C3  UNL     1      11.270   5.191  42.954  1.00  0.00     0.017 C
HETATM   10  C4  UNL     1      10.329   4.246  43.706  1.00  0.00     0.002 C
HETATM   11  C5  UNL     1       9.543   4.041  42.422  1.00  0.00     0.017 C
ENDBRANCH   7   8
ENDBRANCH   1   7
TORSDOF 4
ENDMDL