MODEL 1
REMARK VINA RESULT: -4.554258585      0.000      0.000
REMARK  3 active torsions:
REMARK  status: ('A' for Active; 'I' for Inactive)
REMARK    1  A    between atoms: O1_2  and  C2_3
REMARK    2  A    between atoms: C2_3  and  N1_4
REMARK    3  A    between atoms: N1_4  and  C3_6
ROOT
HETATM    1  C2  UNL     1       9.493   3.028  43.762  1.00  0.00     0.130 C
HETATM    2  C7  UNL     1       9.534   1.646  43.132  1.00  0.00     0.061 C
HETATM    3  C8  UNL     1       8.034   1.897  42.876  1.00  0.00     0.010 C
HETATM    4  C9  UNL     1       8.507   3.359  42.682  1.00  0.00     0.061 C
ENDROOT
BRANCH   1   5
HETATM    5  O1  UNL     1       8.744   2.894  44.953  1.00  0.00    -0.366 OA
HETATM    6  C1  UNL     1       9.235   3.626  45.999  1.00  0.00     0.204 C
ENDBRANCH   1   5
BRANCH   1   7
HETATM    7  N1  UNL     1      10.632   3.735  43.988  1.00  0.00    -0.384 N
ATOM      8  H1  UNL     1      10.838   3.918  44.970  1.00  0.00     0.157 HD
BRANCH   7   9
HETATM    9  C3  UNL     1      11.548   4.239  43.097  1.00  0.00     0.017 C
HETATM   10  C4  UNL     1      11.973   3.375  41.949  1.00  0.00     0.037 C
HETATM   11  C5  UNL     1      12.850   4.505  43.889  1.00  0.00     0.037 C
HETATM   12  C6  UNL     1      11.159   5.596  42.546  1.00  0.00     0.037 C
ENDBRANCH   7   9
ENDBRANCH   1   7
TORSDOF 3
ENDMDL