MODEL 5
REMARK VINA RESULT: -4.531939232      2.090      2.666
REMARK  2 active torsions:
REMARK  status: ('A' for Active; 'I' for Inactive)
REMARK    1  A    between atoms: C2_2  and  C4_4
REMARK    2  A    between atoms: C7_8  and  O1_9
ROOT
HETATM    1  C4  UNL     1      11.866   2.564  44.676  1.00  0.00     0.137 C
HETATM    2  C5  UNL     1      10.719   2.272  45.584  1.00  0.00     0.106 C
HETATM    3  S1  UNL     1       9.136   2.898  44.931  1.00  0.00    -0.162 SA
HETATM    4  C6  UNL     1       9.326   2.732  43.127  1.00  0.00     0.134 C
HETATM    5  C7  UNL     1      10.502   1.752  42.989  1.00  0.00     0.266 C
HETATM    6  O2  UNL     1      11.631   2.429  43.349  1.00  0.00    -0.354 OA
ENDROOT
BRANCH   1   7
HETATM    7  C2  UNL     1      12.435   3.942  45.023  1.00  0.00     0.007 C
HETATM    8  C1  UNL     1      13.579   3.816  46.005  1.00  0.00     0.012 C
HETATM    9  C3  UNL     1      12.964   4.637  43.790  1.00  0.00     0.012 C
ENDBRANCH   1   7
BRANCH   5  10
HETATM   10  O1  UNL     1      10.583   1.287  41.674  1.00  0.00    -0.370 OA
ATOM     11  H1  UNL     1      10.259   0.395  41.625  1.00  0.00     0.212 HD
ENDBRANCH   5  10
TORSDOF 2
ENDMDL