MODEL 3
REMARK VINA RESULT: -5.251418302      1.602      2.441
REMARK  2 active torsions:
REMARK  status: ('A' for Active; 'I' for Inactive)
REMARK    1  A    between atoms: C2_2  and  C3_3
REMARK    2  A    between atoms: C3_3  and  O1_4
ROOT
HETATM    1  C3  UNL     1      12.029   3.850  44.059  1.00  0.00     0.084 C
HETATM    2  C4  UNL     1      12.240   2.562  43.336  1.00  0.00     0.247 C
HETATM    3  O2  UNL     1      12.424   2.875  41.974  1.00  0.00    -0.237 OA
HETATM    4  O3  UNL     1      11.233   3.128  41.487  1.00  0.00    -0.230 OA
HETATM    5  C5  UNL     1      10.710   4.299  41.989  1.00  0.00     0.092 C
HETATM    6  C6  UNL     1       9.293   4.067  42.525  1.00  0.00     0.049 C
HETATM    7  C7  UNL     1      10.561   5.283  40.848  1.00  0.00     0.049 C
HETATM    8  C8  UNL     1      11.598   4.890  43.051  1.00  0.00     0.080 C
ENDROOT
BRANCH   1   9
HETATM    9  C2  UNL     1      13.176   4.291  44.897  1.00  0.00     0.035 C
HETATM   10  C1  UNL     1      13.251   3.704  46.262  1.00  0.00     0.008 C
ENDBRANCH   1   9
BRANCH   1  11
HETATM   11  O1  UNL     1      10.933   3.669  44.926  1.00  0.00    -0.387 OA
ATOM     12  H1  UNL     1      10.372   4.430  44.826  1.00  0.00     0.210 HD
ENDBRANCH   1  11
TORSDOF 2
ENDMDL