MODEL 1
REMARK VINA RESULT: -8.137330409      0.000      0.000
REMARK  5 active torsions:
REMARK  status: ('A' for Active; 'I' for Inactive)
REMARK    1  A    between atoms: O1_2  and  C2_3
REMARK    2  A    between atoms: C2_3  and  C3_5
REMARK    3  A    between atoms: C4_6  and  O3_7
REMARK    4  A    between atoms: C5_9  and  O4_10
REMARK    5  A    between atoms: C6_12  and  O5_13
ROOT
HETATM    1  C3  UNL     1      25.373  21.947  73.737  1.00  0.00     0.089 A
HETATM    2  C4  UNL     1      25.968  21.182  74.774  1.00  0.00     0.119 A
HETATM    3  C5  UNL     1      27.290  20.886  74.839  1.00  0.00     0.134 A
HETATM    4  C6  UNL     1      28.088  21.356  73.846  1.00  0.00     0.117 A
HETATM    5  C7  UNL     1      27.585  22.112  72.821  1.00  0.00     0.065 A
HETATM    6  C8  UNL     1      26.209  22.435  72.760  1.00  0.00     0.028 A
HETATM    7  C9  UNL     1      25.985  23.265  71.590  1.00  0.00     0.070 A
HETATM    8  C10 UNL     1      27.203  23.380  70.901  1.00  0.00     0.111 A
HETATM    9  C11 UNL     1      27.305  24.130  69.762  1.00  0.00     0.267 A
HETATM   10  O6  UNL     1      28.424  24.191  69.186  1.00  0.00    -0.267 OA
HETATM   11  N1  UNL     1      26.220  24.758  69.317  1.00  0.00    -0.270 N
HETATM   12  C12 UNL     1      26.297  25.534  68.109  1.00  0.00     0.164 C
HETATM   13  C13 UNL     1      25.050  24.667  69.982  1.00  0.00     0.331 A
HETATM   14  O7  UNL     1      24.061  25.283  69.520  1.00  0.00    -0.246 OA
HETATM   15  N2  UNL     1      24.939  23.937  71.111  1.00  0.00    -0.302 N
HETATM   16  C14 UNL     1      23.837  24.407  71.946  1.00  0.00     0.161 C
HETATM   17  C15 UNL     1      28.224  22.683  71.652  1.00  0.00     0.203 A
HETATM   18  O8  UNL     1      29.447  22.588  71.344  1.00  0.00    -0.286 OA
ENDROOT
BRANCH   1  19
HETATM   19  C2  UNL     1      23.958  21.693  73.516  1.00  0.00     0.296 C
HETATM   20  O2  UNL     1      22.877  21.862  74.010  1.00  0.00    -0.259 OA
BRANCH  19  21
HETATM   21  O1  UNL     1      23.688  20.988  72.267  1.00  0.00    -0.322 OA
HETATM   22  C1  UNL     1      22.395  20.994  71.690  1.00  0.00     0.213 C
ENDBRANCH  19  21
ENDBRANCH   1  19
BRANCH   2  23
HETATM   23  O3  UNL     1      25.117  20.726  75.767  1.00  0.00    -0.357 OA
ATOM     24  H3  UNL     1      25.488  20.115  76.393  1.00  0.00     0.217 HD
ENDBRANCH   2  23
BRANCH   3  25
HETATM   25  O4  UNL     1      27.815  20.137  75.875  1.00  0.00    -0.356 OA
ATOM     26  H4  UNL     1      28.610  20.398  76.326  1.00  0.00     0.218 HD
ENDBRANCH   3  25
BRANCH   4  27
HETATM   27  O5  UNL     1      29.439  21.068  73.864  1.00  0.00    -0.357 OA
ATOM     28  H5  UNL     1      30.024  21.601  74.388  1.00  0.00     0.217 HD
ENDBRANCH   4  27
TORSDOF 5
ENDMDL