MODEL 1
REMARK VINA RESULT: -7.828666526      0.000      0.000
REMARK  2 active torsions:
REMARK  status: ('A' for Active; 'I' for Inactive)
REMARK    1  A    between atoms: N2_5  and  N3_6
REMARK    2  A    between atoms: N9_24  and  C9_25
ROOT
HETATM    1  N3  UNL     1      29.249  22.415  70.974  1.00  0.00    -0.215 N
ATOM      2  H3  UNL     1      29.420  21.409  70.952  1.00  0.00     0.201 HD
HETATM    3  C3  UNL     1      29.171  23.139  69.789  1.00  0.00     0.199 C
HETATM    4  N4  UNL     1      29.090  23.751  68.810  1.00  0.00    -0.170 NA
ENDROOT
BRANCH   1   5
HETATM    5  N2  UNL     1      29.095  23.065  72.174  1.00  0.00    -0.161 N
HETATM    6  N1  UNL     1      30.217  23.580  72.825  1.00  0.00    -0.280 N
HETATM    7  C2  UNL     1      30.213  23.887  74.065  1.00  0.00     0.067 C
ATOM      8  H1  UNL     1      31.075  23.716  72.289  1.00  0.00     0.188 HD
HETATM    9  C1  UNL     1      31.401  24.438  74.777  1.00  0.00     0.074 C
HETATM   10  C5  UNL     1      29.004  23.700  74.853  1.00  0.00     0.122 C
HETATM   11  N5  UNL     1      27.832  23.168  74.200  1.00  0.00    -0.318 N
HETATM   12  N6  UNL     1      28.968  24.001  76.107  1.00  0.00    -0.384 N
HETATM   13  C4  UNL     1      27.799  23.209  72.749  1.00  0.00     0.295 C
ATOM     14  H5  UNL     1      27.057  22.777  74.736  1.00  0.00     0.166 HD
HETATM   15  N7  UNL     1      27.132  24.397  72.259  1.00  0.00    -0.301 N
HETATM   16  S1  UNL     1      26.696  21.819  72.259  1.00  0.00     0.028 SA
HETATM   17  C6  UNL     1      25.759  24.374  71.881  1.00  0.00     0.259 C
ATOM     18  H7  UNL     1      27.656  25.269  72.182  1.00  0.00     0.167 HD
HETATM   19  O1  UNL     1      25.377  25.018  70.844  1.00  0.00    -0.270 OA
HETATM   20  C7  UNL     1      24.743  23.620  72.658  1.00  0.00     0.292 C
HETATM   21  C8  UNL     1      24.528  24.399  73.900  1.00  0.00     0.095 C
HETATM   22  N9  UNL     1      25.151  22.301  72.878  1.00  0.00    -0.294 N
HETATM   23  N8  UNL     1      24.378  25.022  74.868  1.00  0.00    -0.195 NA
ATOM     24  H62 UNL     1      29.796  24.377  76.568  1.00  0.00     0.157 HD
ATOM     25  H61 UNL     1      28.121  23.870  76.659  1.00  0.00     0.157 HD
BRANCH  22  26
HETATM   26  C9  UNL     1      24.175  21.295  73.011  1.00  0.00     0.307 C
HETATM   27  C10 UNL     1      23.519  21.407  74.312  1.00  0.00     0.100 C
HETATM   28  N10 UNL     1      22.980  21.478  75.356  1.00  0.00    -0.194 NA
HETATM   29  C11 UNL     1      23.209  21.344  71.912  1.00  0.00     0.100 C
HETATM   30  N11 UNL     1      22.456  21.378  71.024  1.00  0.00    -0.194 NA
ENDBRANCH  22  26
ENDBRANCH   1   5
TORSDOF 2
ENDMDL