MODEL 4
REMARK VINA RESULT: -7.998133964      3.154      4.539
REMARK  4 active torsions:
REMARK  status: ('A' for Active; 'I' for Inactive)
REMARK    1  A    between atoms: O1_2  and  C2_3
REMARK       I    between atoms: C2_3  and  N1_5
REMARK    2  A    between atoms: N1_5  and  C3_7
REMARK    3  A    between atoms: C7_15  and  C8_16
REMARK    4  A    between atoms: C10_21  and  N6_22
ROOT
HETATM    1  C3  UNL     1      29.091  22.733  66.369  1.00  0.00     0.724 A
HETATM    2  N2  UNL     1      29.130  23.279  67.594  1.00  0.00    -0.130 N
ATOM      3  H2  UNL     1      29.840  22.966  68.257  1.00  0.00     0.205 HD
HETATM    4  N3  UNL     1      28.275  24.205  67.959  1.00  0.00    -0.289 N
ATOM      5  H3  UNL     1      28.349  24.585  68.903  1.00  0.00     0.187 HD
HETATM    6  C4  UNL     1      27.288  24.688  67.140  1.00  0.00     0.054 A
HETATM    7  C5  UNL     1      26.358  25.710  67.621  1.00  0.00     0.072 C
HETATM    8  C6  UNL     1      27.226  24.147  65.877  1.00  0.00     0.131 A
HETATM    9  C7  UNL     1      26.426  24.341  64.807  1.00  0.00     0.125 A
HETATM   10  N9  UNL     1      26.903  23.452  63.831  1.00  0.00    -0.280 N
ATOM     11  H9  UNL     1      26.509  23.350  62.896  1.00  0.00     0.189 HD
HETATM   12  N10 UNL     1      27.909  22.781  64.283  1.00  0.00    -0.220 N
ATOM     13  H10 UNL     1      28.435  22.072  63.772  1.00  0.00     0.209 HD
HETATM   14  N11 UNL     1      28.140  23.181  65.539  1.00  0.00    -0.066 N
ENDROOT
BRANCH   9  15
HETATM   15  C8  UNL     1      25.303  25.208  64.566  1.00  0.00     0.154 A
HETATM   16  N4  UNL     1      25.056  26.401  64.958  1.00  0.00    -0.311 N
HETATM   17  C9  UNL     1      23.991  27.186  64.731  1.00  0.00     0.198 A
ATOM     18  H4  UNL     1      25.784  26.823  65.534  1.00  0.00     0.170 HD
HETATM   19  N5  UNL     1      23.033  26.621  63.969  1.00  0.00    -0.151 N
HETATM   20  N8  UNL     1      23.610  28.502  65.097  1.00  0.00    -0.360 N
HETATM   21  C10 UNL     1      23.218  25.351  63.509  1.00  0.00     0.682 A
HETATM   22  C11 UNL     1      21.958  27.578  63.824  1.00  0.00     0.170 C
HETATM   23  N7  UNL     1      24.301  24.669  63.791  1.00  0.00    -0.174 N
ATOM     24  H7  UNL     1      24.404  23.721  63.430  1.00  0.00     0.186 HD
HETATM   25  C12 UNL     1      22.606  28.894  64.154  1.00  0.00     0.143 C
ATOM     26  H8  UNL     1      23.976  29.054  65.872  1.00  0.00     0.162 HD
BRANCH  21  27
HETATM   27  N6  UNL     1      22.251  24.864  62.777  1.00  0.00    -0.234 N
ATOM     28  H62 UNL     1      21.744  24.015  63.029  1.00  0.00     0.174 HD
ATOM     29  H61 UNL     1      22.027  25.386  61.930  1.00  0.00     0.174 HD
ENDBRANCH  21  27
ENDBRANCH   9  15
BRANCH   1  30
HETATM   30  N1  UNL     1      29.936  21.815  66.004  1.00  0.00    -0.132 N
HETATM   31  C2  UNL     1      31.223  21.640  66.516  1.00  0.00     0.378 C
HETATM   32  O2  UNL     1      31.396  20.885  67.532  1.00  0.00    -0.238 OA
ATOM     33  H1  UNL     1      29.632  21.165  65.280  1.00  0.00     0.190 HD
BRANCH  31  34
HETATM   34  O1  UNL     1      32.338  22.255  65.963  1.00  0.00    -0.308 OA
HETATM   35  C1  UNL     1      33.506  22.377  66.756  1.00  0.00     0.215 C
ENDBRANCH  31  34
ENDBRANCH   1  30
TORSDOF 4
ENDMDL