MODEL 2
REMARK VINA RESULT: -8.196358976      1.230      1.492
REMARK  5 active torsions:
REMARK  status: ('A' for Active; 'I' for Inactive)
REMARK    1  A    between atoms: C2_2  and  O1_3
REMARK    2  A    between atoms: N1_6  and  N2_8
REMARK    3  A    between atoms: N2_8  and  C4_10
REMARK    4  A    between atoms: C11_21  and  N5_22
REMARK    5  A    between atoms: N8_29  and  O3_30
ROOT
HETATM    1  C4  UNL     1      25.793  24.811  70.820  1.00  0.00     0.244 A
HETATM    2  N3  UNL     1      26.559  24.867  71.848  1.00  0.00    -0.328 N
ATOM      3  H3  UNL     1      27.391  25.456  71.832  1.00  0.00     0.165 HD
HETATM    4  C5  UNL     1      26.244  24.100  73.022  1.00  0.00     0.109 A
HETATM    5  C6  UNL     1      26.058  25.005  74.235  1.00  0.00     0.054 C
HETATM    6  C7  UNL     1      25.795  24.068  75.414  1.00  0.00     0.004 C
HETATM    7  C8  UNL     1      27.052  23.267  75.659  1.00  0.00     0.000 C
HETATM    8  C9  UNL     1      27.216  22.321  74.477  1.00  0.00     0.004 C
HETATM    9  C10 UNL     1      27.461  23.194  73.262  1.00  0.00     0.054 C
HETATM   10  N4  UNL     1      25.046  23.310  72.926  1.00  0.00    -0.329 N
ATOM     11  H4  UNL     1      24.787  22.751  73.739  1.00  0.00     0.165 HD
HETATM   12  C11 UNL     1      24.275  23.250  71.899  1.00  0.00     0.231 A
HETATM   13  O2  UNL     1      24.653  24.020  70.811  1.00  0.00    -0.245 OA
ENDROOT
BRANCH   1  14
HETATM   14  N2  UNL     1      26.107  25.578  69.644  1.00  0.00    -0.264 N
ATOM     15  H2  UNL     1      27.003  26.058  69.555  1.00  0.00     0.190 HD
BRANCH  14  16
HETATM   16  N1  UNL     1      25.162  25.646  68.641  1.00  0.00    -0.290 N
HETATM   17  C3  UNL     1      25.447  25.538  67.390  1.00  0.00     0.132 C
HETATM   18  C2  UNL     1      24.627  25.576  66.156  1.00  0.00     0.196 C
HETATM   19  S1  UNL     1      26.871  25.292  66.342  1.00  0.00     0.008 SA
HETATM   20  C1  UNL     1      23.171  25.244  66.353  1.00  0.00     0.075 C
HETATM   21  N8  UNL     1      25.449  24.533  65.617  1.00  0.00    -0.090 NA
ATOM     22  H1  UNL     1      24.188  25.789  68.905  1.00  0.00     0.187 HD
BRANCH  18  23
HETATM   23  O1  UNL     1      24.788  26.826  65.539  1.00  0.00    -0.367 OA
ATOM     24  H1  UNL     1      24.327  27.508  66.012  1.00  0.00     0.212 HD
ENDBRANCH  18  23
BRANCH  21  25
HETATM   25  O3  UNL     1      25.462  24.483  64.268  1.00  0.00    -0.299 OA
ATOM     26  H3  UNL     1      25.246  23.630  63.910  1.00  0.00     0.238 HD
ENDBRANCH  21  25
ENDBRANCH  14  16
ENDBRANCH   1  14
BRANCH  12  27
HETATM   27  N5  UNL     1      23.123  22.436  71.920  1.00  0.00    -0.298 N
HETATM   28  C12 UNL     1      23.070  21.214  71.611  1.00  0.00     0.204 C
HETATM   29  N6  UNL     1      21.844  20.513  71.676  1.00  0.00    -0.066 NA
HETATM   30  N7  UNL     1      24.230  20.523  71.197  1.00  0.00    -0.066 NA
ATOM     31  H5  UNL     1      22.250  22.877  72.212  1.00  0.00     0.171 HD
ENDBRANCH  12  27
TORSDOF 5
ENDMDL