MODEL 5
REMARK VINA RESULT: -7.087539323      1.646      1.952
REMARK  6 active torsions:
REMARK  status: ('A' for Active; 'I' for Inactive)
REMARK    1  A    between atoms: C3_5  and  N2_6
REMARK    2  A    between atoms: N2_6  and  C4_8
REMARK    3  A    between atoms: C5_10  and  S2_11
REMARK    4  A    between atoms: S2_11  and  N3_12
REMARK    5  A    between atoms: S2_11  and  N4_16
REMARK    6  A    between atoms: N4_16  and  N5_18
REMARK       I    between atoms: N7_23  and  C6_24
ROOT
HETATM    1  C4  UNL     1      26.791  24.898  68.429  1.00  0.00     0.192 A
HETATM    2  S1  UNL     1      25.656  25.480  67.288  1.00  0.00    -0.020 SA
HETATM    3  C5  UNL     1      26.358  24.800  65.891  1.00  0.00     0.189 A
HETATM    4  N6  UNL     1      27.402  24.182  66.400  1.00  0.00    -0.272 N
ATOM      5  H6  UNL     1      28.032  23.667  65.784  1.00  0.00     0.189 HD
HETATM    6  N7  UNL     1      27.637  24.216  67.655  1.00  0.00    -0.183 N
HETATM    7  C6  UNL     1      28.793  23.529  68.202  1.00  0.00     0.356 C
HETATM    8  N8  UNL     1      29.010  23.597  69.591  1.00  0.00    -0.038 NA
HETATM    9  O2  UNL     1      29.590  22.887  67.469  1.00  0.00    -0.249 OA
ENDROOT
BRANCH   1  10
HETATM   10  N2  UNL     1      26.834  25.068  69.735  1.00  0.00    -0.168 N
ATOM     11  H2  UNL     1      27.597  25.607  70.144  1.00  0.00     0.186 HD
BRANCH  10  12
HETATM   12  C3  UNL     1      25.846  24.518  70.576  1.00  0.00     0.681 A
HETATM   13  N1  UNL     1      24.491  24.835  70.757  1.00  0.00    -0.197 N
HETATM   14  C2  UNL     1      23.929  24.081  71.638  1.00  0.00     0.028 A
ATOM     15  H1  UNL     1      24.007  25.577  70.249  1.00  0.00     0.183 HD
HETATM   16  C1  UNL     1      22.502  24.104  72.110  1.00  0.00     0.066 C
HETATM   17  C7  UNL     1      24.963  23.150  72.125  1.00  0.00     0.079 A
HETATM   18  N9  UNL     1      26.124  23.525  71.383  1.00  0.00    -0.212 N
HETATM   19  C8  UNL     1      24.581  21.702  71.899  1.00  0.00     0.045 C
HETATM   20  C9  UNL     1      25.271  23.367  73.606  1.00  0.00     0.045 C
ATOM     21  H9  UNL     1      27.039  23.082  71.469  1.00  0.00     0.179 HD
ENDBRANCH  10  12
ENDBRANCH   1  10
BRANCH   3  22
HETATM   22  S2  UNL     1      25.870  24.865  64.187  1.00  0.00     0.174 S
HETATM   23  O1  UNL     1      25.548  26.270  63.854  1.00  0.00    -0.220 OA
BRANCH  22  24
HETATM   24  N3  UNL     1      27.038  24.151  63.169  1.00  0.00    -0.338 N
ATOM     25  H32 UNL     1      26.934  23.223  62.762  1.00  0.00     0.167 HD
ATOM     26  H31 UNL     1      27.839  24.767  63.025  1.00  0.00     0.167 HD
ENDBRANCH  22  24
BRANCH  22  27
HETATM   27  N4  UNL     1      24.518  24.041  64.111  1.00  0.00    -0.245 N
ATOM     28  H4  UNL     1      24.405  23.142  64.580  1.00  0.00     0.198 HD
BRANCH  27  29
HETATM   29  N5  UNL     1      23.490  24.621  63.363  1.00  0.00    -0.337 N
ATOM     30  H52 UNL     1      23.492  25.618  63.149  1.00  0.00     0.177 HD
ATOM     31  H51 UNL     1      22.752  23.989  63.053  1.00  0.00     0.177 HD
ENDBRANCH  27  29
ENDBRANCH  22  27
ENDBRANCH   3  22
TORSDOF 6
ENDMDL