MODEL 5
REMARK VINA RESULT: -7.494521070      3.982      5.027
REMARK  2 active torsions:
REMARK  status: ('A' for Active; 'I' for Inactive)
REMARK    1  A    between atoms: C3_3  and  N1_4
REMARK    2  A    between atoms: N2_8  and  C7_9
ROOT
HETATM    1  N1  UNL     1      27.890  23.694  72.136  1.00  0.00    -0.363 N
HETATM    2  C4  UNL     1      29.078  23.335  71.392  1.00  0.00     0.126 C
HETATM    3  C5  UNL     1      28.695  22.731  70.089  1.00  0.00     0.040 C
HETATM    4  C6  UNL     1      28.376  23.816  69.053  1.00  0.00     0.126 C
HETATM    5  N2  UNL     1      27.040  24.314  69.235  1.00  0.00    -0.368 N
HETATM    6  C13 UNL     1      26.199  24.165  70.388  1.00  0.00     0.144 C
HETATM    7  C14 UNL     1      26.846  24.593  71.661  1.00  0.00     0.144 C
ENDROOT
BRANCH   1   8
HETATM    8  C3  UNL     1      27.722  23.142  73.438  1.00  0.00     0.144 C
HETATM    9  C2  UNL     1      28.452  23.233  74.522  1.00  0.00     0.049 C
HETATM   10  C1  UNL     1      29.732  24.017  74.598  1.00  0.00     0.072 C
HETATM   11  N9  UNL     1      27.863  22.485  75.605  1.00  0.00    -0.354 N
HETATM   12  C15 UNL     1      26.480  22.283  75.229  1.00  0.00     0.324 C
ATOM     13  H9  UNL     1      28.324  22.166  76.457  1.00  0.00     0.163 HD
HETATM   14  N4  UNL     1      26.595  22.317  73.777  1.00  0.00    -0.221 N
HETATM   15  N8  UNL     1      25.975  21.002  75.641  1.00  0.00    -0.079 NA
HETATM   16  N5  UNL     1      25.648  21.589  73.057  1.00  0.00    -0.001 NA
HETATM   17  N6  UNL     1      24.524  21.456  73.878  1.00  0.00     0.004 NA
HETATM   18  N7  UNL     1      24.758  20.770  75.044  1.00  0.00    -0.229 N
ATOM     19  H7  UNL     1      24.072  20.128  75.443  1.00  0.00     0.201 HD
ENDBRANCH   1   8
BRANCH   5  20
HETATM   20  C7  UNL     1      26.496  25.031  68.162  1.00  0.00     0.099 C
HETATM   21  N3  UNL     1      27.109  25.273  67.046  1.00  0.00    -0.371 N
HETATM   22  C8  UNL     1      26.371  26.034  66.057  1.00  0.00     0.112 C
ATOM     23  H3  UNL     1      28.059  24.945  66.873  1.00  0.00     0.161 HD
HETATM   24  C9  UNL     1      26.565  25.508  64.628  1.00  0.00     0.030 C
HETATM   25  C11 UNL     1      24.943  25.546  65.960  1.00  0.00     0.144 C
HETATM   26  C10 UNL     1      25.447  24.507  64.951  1.00  0.00     0.036 C
HETATM   27  O1  UNL     1      24.439  25.029  67.124  1.00  0.00    -0.376 OA
HETATM   28  C12 UNL     1      25.099  25.592  68.240  1.00  0.00     0.244 C
ENDBRANCH   5  20
TORSDOF 2
ENDMDL