MODEL 4
REMARK VINA RESULT: -7.465222023      2.404      5.691
REMARK  5 active torsions:
REMARK  status: ('A' for Active; 'I' for Inactive)
REMARK    1  A    between atoms: C2_2  and  O1_3
REMARK    2  A    between atoms: C2_2  and  C3_5
REMARK    3  A    between atoms: C3_5  and  O3_7
REMARK    4  A    between atoms: O3_7  and  C4_8
REMARK    5  A    between atoms: C9_14  and  O5_15
ROOT
HETATM    1  C4  UNL     1      27.998  23.001  73.602  1.00  0.00     0.189 C
HETATM    2  C5  UNL     1      26.662  23.730  73.676  1.00  0.00     0.093 C
HETATM    3  C6  UNL     1      26.262  24.076  75.090  1.00  0.00     0.068 C
HETATM    4  C7  UNL     1      27.158  25.084  75.734  1.00  0.00     0.046 C
HETATM    5  C8  UNL     1      24.874  24.684  75.007  1.00  0.00     0.046 C
HETATM    6  O4  UNL     1      26.119  22.912  75.883  1.00  0.00    -0.326 OA
HETATM    7  C9  UNL     1      27.139  22.044  75.650  1.00  0.00     0.306 C
HETATM    8  N1  UNL     1      26.877  20.652  75.517  1.00  0.00    -0.027 NA
HETATM    9  O6  UNL     1      27.614  20.658  74.350  1.00  0.00    -0.257 OA
HETATM   10  C10 UNL     1      27.253  21.886  74.161  1.00  0.00     0.220 C
HETATM   11  C11 UNL     1      26.077  22.331  73.386  1.00  0.00     0.142 C
HETATM   12  C12 UNL     1      26.017  21.971  71.951  1.00  0.00     0.211 C
HETATM   13  O7  UNL     1      25.190  22.902  71.305  1.00  0.00    -0.380 OA
HETATM   14  C13 UNL     1      23.885  22.763  71.723  1.00  0.00     0.251 C
HETATM   15  C14 UNL     1      23.750  22.077  73.037  1.00  0.00     0.136 C
HETATM   16  N2  UNL     1      22.654  21.449  73.311  1.00  0.00    -0.382 N
ATOM     17  H21 UNL     1      22.561  20.979  74.211  1.00  0.00     0.158 HD
ATOM     18  H22 UNL     1      21.882  21.415  72.645  1.00  0.00     0.158 HD
HETATM   19  O8  UNL     1      24.803  22.124  73.945  1.00  0.00    -0.320 OA
ENDROOT
BRANCH   1  20
HETATM   20  O3  UNL     1      29.025  23.466  74.394  1.00  0.00    -0.310 OA
BRANCH  20  21
HETATM   21  C3  UNL     1      30.338  23.421  73.960  1.00  0.00     0.287 C
HETATM   22  O2  UNL     1      30.845  24.519  73.616  1.00  0.00    -0.262 OA
BRANCH  21  23
HETATM   23  C2  UNL     1      31.129  22.154  73.896  1.00  0.00     0.213 C
HETATM   24  C1  UNL     1      31.125  21.609  72.511  1.00  0.00     0.050 C
BRANCH  23  25
HETATM   25  O1  UNL     1      30.568  21.205  74.739  1.00  0.00    -0.386 OA
ATOM     26  H1  UNL     1      29.924  21.638  75.288  1.00  0.00     0.210 HD
ENDBRANCH  23  25
ENDBRANCH  21  23
ENDBRANCH  20  21
ENDBRANCH   1  20
BRANCH   7  27
HETATM   27  O5  UNL     1      28.335  22.261  76.326  1.00  0.00    -0.348 OA
ATOM     28  H5  UNL     1      28.281  22.537  77.234  1.00  0.00     0.214 HD
ENDBRANCH   7  27
TORSDOF 5
ENDMDL