MODEL 4
REMARK VINA RESULT: -8.683856454      5.051      7.116
REMARK  3 active torsions:
REMARK  status: ('A' for Active; 'I' for Inactive)
REMARK    1  A    between atoms: C2_3  and  C4_6
REMARK    2  A    between atoms: N3_10  and  N4_12
REMARK    3  A    between atoms: N4_12  and  C8_14
ROOT
HETATM    1  N1  UNL     1      27.967  20.429  72.611  1.00  0.00    -0.196 NA
HETATM    2  C1  UNL     1      28.665  21.238  72.158  1.00  0.00     0.080 C
HETATM    3  C2  UNL     1      29.530  22.250  71.570  1.00  0.00     0.222 C
HETATM    4  C3  UNL     1      28.815  23.078  70.615  1.00  0.00     0.080 C
HETATM    5  N2  UNL     1      28.248  23.735  69.836  1.00  0.00    -0.196 NA
ENDROOT
BRANCH   3   6
HETATM    6  C4  UNL     1      30.069  23.128  72.685  1.00  0.00     0.114 C
HETATM    7  C5  UNL     1      30.827  22.265  73.674  1.00  0.00     0.035 C
HETATM    8  C6  UNL     1      30.766  23.117  74.944  1.00  0.00     0.080 C
HETATM    9  C7  UNL     1      29.441  23.741  74.811  1.00  0.00     0.092 C
HETATM   10  N3  UNL     1      28.779  24.273  75.780  1.00  0.00    -0.288 N
HETATM   11  N9  UNL     1      28.966  23.689  73.473  1.00  0.00    -0.372 N
ATOM     12  H3  UNL     1      29.201  24.264  76.708  1.00  0.00     0.188 HD
ATOM     13  H9  UNL     1      28.050  23.981  73.132  1.00  0.00     0.161 HD
BRANCH  10  14
HETATM   14  N4  UNL     1      27.534  24.857  75.642  1.00  0.00    -0.285 N
ATOM     15  H4  UNL     1      27.372  25.816  75.950  1.00  0.00     0.188 HD
BRANCH  14  16
HETATM   16  C8  UNL     1      26.481  24.094  75.062  1.00  0.00     0.130 C
HETATM   17  N5  UNL     1      25.437  24.667  74.568  1.00  0.00    -0.369 N
HETATM   18  C9  UNL     1      24.312  24.009  73.958  1.00  0.00     0.112 C
ATOM     19  H5  UNL     1      25.406  25.685  74.613  1.00  0.00     0.161 HD
HETATM   20  C10 UNL     1      23.991  24.568  72.614  1.00  0.00     0.100 C
HETATM   21  C12 UNL     1      24.377  22.530  73.935  1.00  0.00     0.113 C
HETATM   22  S1  UNL     1      24.971  23.444  71.540  1.00  0.00    -0.165 SA
HETATM   23  C11 UNL     1      24.902  21.995  72.669  1.00  0.00     0.097 C
HETATM   24  N6  UNL     1      25.127  22.174  75.107  1.00  0.00    -0.170 NA
HETATM   25  N7  UNL     1      25.304  20.857  75.374  1.00  0.00     0.019 NA
HETATM   26  C13 UNL     1      26.513  22.623  74.987  1.00  0.00     0.269 C
HETATM   27  O1  UNL     1      26.437  20.763  76.104  1.00  0.00    -0.153 OA
HETATM   28  N8  UNL     1      27.042  21.960  76.153  1.00  0.00    -0.046 NA
ENDBRANCH  14  16
ENDBRANCH  10  14
ENDBRANCH   3   6
TORSDOF 3
ENDMDL