MODEL 4
REMARK VINA RESULT: -6.999223715      2.001      2.989
REMARK  5 active torsions:
REMARK  status: ('A' for Active; 'I' for Inactive)
REMARK    1  A    between atoms: O1_2  and  C2_3
REMARK    2  A    between atoms: C2_3  and  C3_5
REMARK    3  A    between atoms: N2_13  and  O6_15
REMARK    4  A    between atoms: O6_15  and  C5_16
REMARK    5  A    between atoms: C7_21  and  O7_22
ROOT
HETATM    1  C3  UNL     1      26.560  22.210  73.859  1.00  0.00     0.268 C
HETATM    2  O3  UNL     1      26.350  23.546  74.005  1.00  0.00    -0.242 OA
HETATM    3  S1  UNL     1      26.816  24.236  75.428  1.00  0.00     0.364 S
HETATM    4  O4  UNL     1      26.159  25.601  75.525  1.00  0.00    -0.175 OA
HETATM    5  O5  UNL     1      26.461  23.485  76.648  1.00  0.00    -0.175 OA
HETATM    6  N1  UNL     1      28.540  24.389  75.383  1.00  0.00    -0.246 N
ATOM      7  H1  UNL     1      28.953  25.183  75.870  1.00  0.00     0.182 HD
HETATM    8  C4  UNL     1      29.424  23.495  74.721  1.00  0.00     0.152 C
HETATM    9  N2  UNL     1      30.662  23.835  74.797  1.00  0.00    -0.243 N
ATOM     10  H2  UNL     1      31.362  23.245  74.346  1.00  0.00     0.196 HD
HETATM   11  C7  UNL     1      29.127  22.292  73.999  1.00  0.00     0.164 C
HETATM   12  C8  UNL     1      29.244  22.352  72.490  1.00  0.00     0.243 C
HETATM   13  O8  UNL     1      28.733  21.131  72.113  1.00  0.00    -0.282 OA
HETATM   14  N4  UNL     1      28.086  20.544  73.124  1.00  0.00    -0.089 NA
HETATM   15  C9  UNL     1      27.851  21.608  74.132  1.00  0.00     0.191 C
ENDROOT
BRANCH   9  16
HETATM   16  O6  UNL     1      31.076  24.971  75.467  1.00  0.00    -0.224 OA
BRANCH  16  17
HETATM   17  C5  UNL     1      31.592  26.039  74.787  1.00  0.00     0.136 C
HETATM   18  C6  UNL     1      32.629  25.942  73.729  1.00  0.00     0.099 C
HETATM   19  N3  UNL     1      31.147  27.218  75.085  1.00  0.00    -0.382 N
ATOM     20  H32 UNL     1      30.435  27.284  75.813  1.00  0.00     0.158 HD
ATOM     21  H31 UNL     1      31.532  28.014  74.579  1.00  0.00     0.158 HD
ENDBRANCH  16  17
ENDBRANCH   9  16
BRANCH  11  22
HETATM   22  O7  UNL     1      30.131  21.346  74.365  1.00  0.00    -0.378 OA
ATOM     23  H7  UNL     1      29.685  20.516  74.487  1.00  0.00     0.211 HD
ENDBRANCH  11  22
BRANCH   1  24
HETATM   24  C2  UNL     1      25.418  21.481  74.527  1.00  0.00     0.291 C
HETATM   25  O2  UNL     1      25.696  20.733  75.486  1.00  0.00    -0.262 OA
BRANCH  24  26
HETATM   26  O1  UNL     1      24.116  21.629  74.105  1.00  0.00    -0.324 OA
HETATM   27  C1  UNL     1      23.738  21.561  72.731  1.00  0.00     0.213 C
ENDBRANCH  24  26
ENDBRANCH   1  24
TORSDOF 5
ENDMDL