MODEL 1
REMARK VINA RESULT: -7.166947592      0.000      0.000
REMARK  8 active torsions:
REMARK  status: ('A' for Active; 'I' for Inactive)
REMARK    1  A    between atoms: C3_3  and  O1_4
REMARK    2  A    between atoms: C5_6  and  O2_7
REMARK    3  A    between atoms: N1_13  and  O3_15
REMARK    4  A    between atoms: O3_15  and  C10_16
REMARK    5  A    between atoms: C10_16  and  O5_18
REMARK    6  A    between atoms: C12_20  and  O6_21
REMARK    7  A    between atoms: C13_23  and  O7_24
REMARK    8  A    between atoms: C14_26  and  O8_27
ROOT
HETATM    1  C1  UNL     1      23.429  24.519  63.100  1.00  0.00     0.017 C
HETATM    2  C2  UNL     1      23.655  25.548  63.855  1.00  0.00    -0.051 C
HETATM    3  C3  UNL     1      22.662  26.638  63.996  1.00  0.00     0.178 C
HETATM    4  C5  UNL     1      22.970  27.498  65.208  1.00  0.00     0.155 C
HETATM    5  C6  UNL     1      23.518  26.752  66.363  1.00  0.00     0.024 C
HETATM    6  C7  UNL     1      22.382  26.315  67.302  1.00  0.00     0.013 C
HETATM    7  C8  UNL     1      24.448  25.631  66.084  1.00  0.00     0.053 C
HETATM    8  C9  UNL     1      25.549  25.502  67.034  1.00  0.00     0.047 C
HETATM    9  N1  UNL     1      25.335  25.852  68.263  1.00  0.00    -0.261 N
ATOM     10  H1  UNL     1      24.408  26.201  68.507  1.00  0.00     0.194 HD
HETATM   11  C12 UNL     1      26.899  25.001  66.710  1.00  0.00     0.197 C
HETATM   12  C13 UNL     1      27.166  25.037  65.220  1.00  0.00     0.182 C
HETATM   13  C14 UNL     1      25.916  24.620  64.431  1.00  0.00     0.158 C
HETATM   14  C15 UNL     1      24.904  25.702  64.623  1.00  0.00     0.058 C
ENDROOT
BRANCH   9  15
HETATM   15  O3  UNL     1      26.276  25.781  69.249  1.00  0.00    -0.175 OA
BRANCH  15  16
HETATM   16  C10 UNL     1      26.036  25.007  70.377  1.00  0.00     0.428 C
HETATM   17  O4  UNL     1      26.871  25.060  71.315  1.00  0.00    -0.227 OA
BRANCH  16  18
HETATM   18  O5  UNL     1      24.915  24.186  70.499  1.00  0.00    -0.302 OA
HETATM   19  C11 UNL     1      24.102  24.230  71.679  1.00  0.00     0.215 C
ENDBRANCH  16  18
ENDBRANCH  15  16
ENDBRANCH   9  15
BRANCH  11  20
HETATM   20  O6  UNL     1      27.124  23.711  67.222  1.00  0.00    -0.387 OA
ATOM     21  H6  UNL     1      27.929  23.659  67.724  1.00  0.00     0.210 HD
ENDBRANCH  11  20
BRANCH  12  22
HETATM   22  O7  UNL     1      28.262  24.294  64.859  1.00  0.00    -0.390 OA
ATOM     23  H7  UNL     1      28.083  23.700  64.140  1.00  0.00     0.210 HD
ENDBRANCH  12  22
BRANCH   4  24
HETATM   24  O2  UNL     1      21.771  28.100  65.587  1.00  0.00    -0.392 OA
ATOM     25  H2  UNL     1      21.899  29.038  65.509  1.00  0.00     0.210 HD
ENDBRANCH   4  24
BRANCH  13  26
HETATM   26  O8  UNL     1      26.340  24.517  63.104  1.00  0.00    -0.392 OA
ATOM     27  H8  UNL     1      25.543  24.430  62.595  1.00  0.00     0.210 HD
ENDBRANCH  13  26
BRANCH   3  28
HETATM   28  O1  UNL     1      21.363  26.189  64.045  1.00  0.00    -0.384 OA
HETATM   29  C4  UNL     1      20.673  26.525  62.861  1.00  0.00     0.202 C
ENDBRANCH   3  28
TORSDOF 8
ENDMDL