MODEL 4
REMARK VINA RESULT: -8.991297929      2.836      4.276
REMARK  7 active torsions:
REMARK  status: ('A' for Active; 'I' for Inactive)
REMARK    1  A    between atoms: C6_8  and  C7_9
REMARK    2  A    between atoms: C12_14  and  C13_15
REMARK    3  A    between atoms: C12_14  and  C20_25
REMARK       I    between atoms: C13_15  and  N2_17
REMARK    4  A    between atoms: N2_17  and  C14_19
REMARK    5  A    between atoms: C14_19  and  C15_20
REMARK    6  A    between atoms: C20_25  and  O2_26
REMARK    7  A    between atoms: C20_25  and  N3_28
ROOT
HETATM    1  C7  UNL     1       4.680  38.066  28.883  1.00  0.00    -0.041 C
HETATM    2  C8  UNL     1       4.762  38.204  30.388  1.00  0.00     0.037 C
HETATM    3  C9  UNL     1       5.679  39.364  30.751  1.00  0.00     0.004 C
HETATM    4  C10 UNL     1       7.003  39.294  30.101  1.00  0.00     0.002 C
HETATM    5  C11 UNL     1       6.881  39.190  28.618  1.00  0.00     0.032 C
HETATM    6  C12 UNL     1       6.003  38.088  28.158  1.00  0.00     0.129 C
ENDROOT
BRANCH   6   7
HETATM    7  C13 UNL     1       5.728  38.242  26.693  1.00  0.00     0.238 C
HETATM    8  O1  UNL     1       5.882  39.400  26.155  1.00  0.00    -0.272 OA
HETATM    9  N2  UNL     1       5.314  37.219  25.820  1.00  0.00    -0.359 N
ATOM     10  H2  UNL     1       5.136  36.280  26.175  1.00  0.00     0.162 HD
BRANCH   9  11
HETATM   11  C14 UNL     1       5.142  37.513  24.419  1.00  0.00     0.127 C
BRANCH  11  12
HETATM   12  C15 UNL     1       4.170  36.679  23.674  1.00  0.00     0.003 C
HETATM   13  C16 UNL     1       3.092  36.086  24.525  1.00  0.00     0.006 C
HETATM   14  C17 UNL     1       1.817  36.826  24.119  1.00  0.00     0.000 C
HETATM   15  C18 UNL     1       2.028  37.241  22.668  1.00  0.00     0.000 C
HETATM   16  C19 UNL     1       3.501  37.531  22.610  1.00  0.00     0.006 C
ENDBRANCH  11  12
ENDBRANCH   9  11
ENDBRANCH   6   7
BRANCH   6  17
HETATM   17  C20 UNL     1       6.760  36.814  28.296  1.00  0.00     0.136 C
BRANCH  17  18
HETATM   18  O2  UNL     1       5.914  35.787  28.366  1.00  0.00    -0.348 OA
ATOM     19  H2  UNL     1       5.785  35.535  29.273  1.00  0.00     0.219 HD
ENDBRANCH  17  18
BRANCH  17  20
HETATM   20  N3  UNL     1       8.064  36.429  28.358  1.00  0.00    -0.359 N
HETATM   21  C21 UNL     1       8.778  36.380  27.020  1.00  0.00     0.131 C
HETATM   22  C22 UNL     1       8.992  34.946  26.672  1.00  0.00     0.079 C
HETATM   23  C23 UNL     1       9.471  34.175  27.824  1.00  0.00     0.039 A
HETATM   24  N4  UNL     1       9.993  32.946  27.893  1.00  0.00    -0.303 N
HETATM   25  C25 UNL     1       9.452  34.650  29.141  1.00  0.00     0.029 A
HETATM   26  N5  UNL     1      10.287  32.651  29.165  1.00  0.00    -0.285 N
ATOM     27  H4  UNL     1      10.144  32.328  27.097  1.00  0.00     0.186 HD
HETATM   28  C24 UNL     1       9.963  33.685  29.949  1.00  0.00     0.123 A
ATOM     29  H5  UNL     1      10.696  31.773  29.486  1.00  0.00     0.188 HD
HETATM   30  N6  UNL     1      10.124  33.738  31.230  1.00  0.00    -0.384 N
ATOM     31  H62 UNL     1      10.508  33.013  31.837  1.00  0.00     0.157 HD
ATOM     32  H61 UNL     1       9.877  34.527  31.829  1.00  0.00     0.157 HD
HETATM   33  C26 UNL     1       8.951  36.046  29.411  1.00  0.00     0.169 C
ENDBRANCH  17  20
ENDBRANCH   6  17
BRANCH   1  34
HETATM   34  C6  UNL     1       3.379  38.266  28.263  1.00  0.00    -0.003 A
HETATM   35  C2  UNL     1       2.361  37.351  28.036  1.00  0.00    -0.034 A
HETATM   36  C1  UNL     1       2.429  35.886  28.018  1.00  0.00     0.050 C
HETATM   37  C3  UNL     1       1.213  38.021  27.617  1.00  0.00     0.095 A
HETATM   38  N1  UNL     1       1.482  39.319  27.567  1.00  0.00    -0.368 N
HETATM   39  C4  UNL     1       2.748  39.498  27.941  1.00  0.00     0.016 A
ATOM     40  H1  UNL     1       0.830  40.054  27.292  1.00  0.00     0.165 HD
HETATM   41  C5  UNL     1       3.351  40.853  27.967  1.00  0.00     0.069 C
ENDBRANCH   1  34
TORSDOF 7
ENDMDL