MODEL 4
REMARK VINA RESULT: -6.151666667      2.264      5.081
REMARK  7 active torsions:
REMARK  status: ('A' for Active; 'I' for Inactive)
REMARK    1  A    between atoms: C2_2  and  C3_3
REMARK    2  A    between atoms: C3_3  and  C4_4
REMARK    3  A    between atoms: C4_4  and  C5_5
REMARK    4  A    between atoms: C5_5  and  C6_6
REMARK    5  A    between atoms: C8_8  and  O1_9
REMARK    6  A    between atoms: C16_18  and  O2_19
REMARK    7  A    between atoms: C25_29  and  C26_30
REMARK       I    between atoms: C26_30  and  N1_32
REMARK       I    between atoms: N1_32  and  C27_33
ROOT
HETATM    1  C6  UNL     1       4.481  38.194  24.589  1.00  0.00     0.006 C
HETATM    2  C7  UNL     1       4.059  39.578  24.971  1.00  0.00     0.033 C
HETATM    3  C8  UNL     1       5.019  40.018  26.102  1.00  0.00     0.128 C
HETATM    4  C9  UNL     1       4.785  39.206  27.280  1.00  0.00     0.027 C
HETATM    5  C10 UNL     1       3.513  38.708  27.753  1.00  0.00     0.013 C
HETATM    6  C11 UNL     1       2.222  39.234  27.351  1.00  0.00    -0.009 C
HETATM    7  C12 UNL     1       2.404  40.567  26.662  1.00  0.00     0.010 C
HETATM    8  C13 UNL     1       2.779  40.119  25.285  1.00  0.00    -0.002 C
HETATM    9  C14 UNL     1       1.517  39.323  25.050  1.00  0.00    -0.003 C
HETATM   10  C15 UNL     1       1.399  38.747  23.722  1.00  0.00     0.038 C
HETATM   11  C16 UNL     1       2.253  37.576  23.405  1.00  0.00     0.127 C
HETATM   12  C17 UNL     1       3.365  37.202  24.268  1.00  0.00    -0.006 C
HETATM   13  C18 UNL     1       3.978  36.002  23.516  1.00  0.00     0.019 C
HETATM   14  C19 UNL     1       2.712  36.469  25.396  1.00  0.00     0.013 C
HETATM   15  C20 UNL     1       1.631  37.062  26.173  1.00  0.00     0.006 C
HETATM   16  C21 UNL     1       1.426  38.510  26.275  1.00  0.00    -0.006 C
HETATM   17  C22 UNL     1       5.654  37.975  26.957  1.00  0.00    -0.011 C
HETATM   18  C23 UNL     1       5.485  36.892  28.012  1.00  0.00     0.020 C
HETATM   19  C24 UNL     1       7.042  38.475  27.373  1.00  0.00     0.020 C
HETATM   20  C25 UNL     1       5.495  37.551  25.539  1.00  0.00     0.021 C
ENDROOT
BRANCH  20  21
HETATM   21  C26 UNL     1       6.815  37.094  24.931  1.00  0.00     0.322 C
HETATM   22  O3  UNL     1       7.049  35.822  24.870  1.00  0.00    -0.252 OA
HETATM   23  N1  UNL     1       7.826  37.824  24.428  1.00  0.00    -0.334 NA
HETATM   24  C27 UNL     1       8.861  38.570  23.914  1.00  0.00     0.264 C
HETATM   25  N2  UNL     1       8.831  39.907  23.855  1.00  0.00    -0.362 N
HETATM   26  N3  UNL     1      10.094  38.127  23.363  1.00  0.00    -0.049 NA
ATOM     27  H22 UNL     1       7.946  40.224  24.251  1.00  0.00     0.159 HD
ATOM     28  H21 UNL     1       9.599  40.460  23.474  1.00  0.00     0.159 HD
ENDBRANCH  20  21
BRANCH   1  29
HETATM   29  C5  UNL     1       5.296  38.468  23.333  1.00  0.00     0.016 C
BRANCH  29  30
HETATM   30  C4  UNL     1       5.121  39.660  22.506  1.00  0.00     0.001 C
BRANCH  30  31
HETATM   31  C3  UNL     1       4.573  39.354  21.096  1.00  0.00    -0.000 C
BRANCH  31  32
HETATM   32  C2  UNL     1       3.310  40.081  20.801  1.00  0.00    -0.005 C
HETATM   33  C1  UNL     1       3.197  41.254  21.751  1.00  0.00     0.005 C
ENDBRANCH  31  32
ENDBRANCH  30  31
ENDBRANCH  29  30
ENDBRANCH   1  29
BRANCH   3  34
HETATM   34  O1  UNL     1       5.101  41.401  26.245  1.00  0.00    -0.395 OA
ATOM     35  H1  UNL     1       4.548  41.873  25.633  1.00  0.00     0.210 HD
ENDBRANCH   3  34
BRANCH  11  36
HETATM   36  O2  UNL     1       1.248  36.533  23.546  1.00  0.00    -0.395 OA
ATOM     37  H2  UNL     1       1.199  36.262  22.637  1.00  0.00     0.210 HD
ENDBRANCH  11  36
TORSDOF 7
ENDMDL