MODEL 1
REMARK VINA RESULT: -7.427736689      0.000      0.000
REMARK  10 active torsions:
REMARK  status: ('A' for Active; 'I' for Inactive)
REMARK    1  A    between atoms: C2_2  and  C3_3
REMARK    2  A    between atoms: C4_4  and  O1_5
REMARK    3  A    between atoms: C5_7  and  C6_8
REMARK    4  A    between atoms: C6_8  and  N1_9
REMARK    5  A    between atoms: C10_20  and  C11_21
REMARK    6  A    between atoms: C12_22  and  C13_23
REMARK    7  A    between atoms: C13_23  and  C14_24
REMARK    8  A    between atoms: C14_24  and  N5_25
REMARK       I    between atoms: N7_33  and  C20_35
REMARK    9  A    between atoms: C20_35  and  C21_37
REMARK   10  A    between atoms: C21_37  and  C22_38
ROOT
HETATM    1  C6  UNL     1       7.792  37.067  25.942  1.00  0.00     0.105 C
ENDROOT
BRANCH   1   2
HETATM    2  C5  UNL     1       6.303  36.974  26.111  1.00  0.00     0.029 A
HETATM    3  C4  UNL     1       5.484  37.137  25.026  1.00  0.00     0.088 A
HETATM    4  C3  UNL     1       4.132  37.059  25.238  1.00  0.00     0.020 A
HETATM    5  C19 UNL     1       3.594  36.825  26.495  1.00  0.00     0.116 A
HETATM    6  N6  UNL     1       4.428  36.669  27.535  1.00  0.00    -0.351 N
HETATM    7  N7  UNL     1       2.318  36.758  26.645  1.00  0.00    -0.313 N
HETATM    8  C18 UNL     1       5.786  36.744  27.345  1.00  0.00     0.105 A
ATOM      9  H6  UNL     1       4.053  36.495  28.467  1.00  0.00     0.166 HD
HETATM   10  C20 UNL     1       1.668  36.520  27.902  1.00  0.00     0.223 C
ATOM     11  H7  UNL     1       1.733  36.881  25.819  1.00  0.00     0.170 HD
HETATM   12  O2  UNL     1       1.831  35.410  28.452  1.00  0.00    -0.273 OA
BRANCH   3  13
HETATM   13  O1  UNL     1       5.994  37.374  23.754  1.00  0.00    -0.359 OA
ATOM     14  H1  UNL     1       6.885  37.682  23.636  1.00  0.00     0.217 HD
ENDBRANCH   3  13
BRANCH   4  15
HETATM   15  C2  UNL     1       3.175  37.214  24.111  1.00  0.00     0.041 C
HETATM   16  C1  UNL     1       3.019  35.955  23.292  1.00  0.00     0.010 C
ENDBRANCH   4  15
BRANCH  10  17
HETATM   17  C21 UNL     1       0.845  37.573  28.492  1.00  0.00     0.111 C
BRANCH  17  18
HETATM   18  C22 UNL     1       1.549  38.635  29.251  1.00  0.00    -0.043 C
HETATM   19  C23 UNL     1       0.480  39.355  30.090  1.00  0.00     0.015 C
HETATM   20  C24 UNL     1       2.549  38.083  30.249  1.00  0.00     0.015 C
HETATM   21  C25 UNL     1       2.214  39.703  28.445  1.00  0.00     0.015 C
ENDBRANCH  17  18
ENDBRANCH  10  17
ENDBRANCH   1   2
BRANCH   1  22
HETATM   22  N1  UNL     1       8.444  35.875  25.995  1.00  0.00    -0.349 N
HETATM   23  C7  UNL     1       9.034  34.977  26.557  1.00  0.00     0.135 A
HETATM   24  N2  UNL     1       9.512  33.848  25.886  1.00  0.00    -0.283 N
HETATM   25  C17 UNL     1       9.372  34.819  27.900  1.00  0.00     0.075 A
HETATM   26  N3  UNL     1      10.090  33.077  26.750  1.00  0.00    -0.283 N
ATOM     27  H2  UNL     1       9.422  33.663  24.888  1.00  0.00     0.188 HD
HETATM   28  C8  UNL     1      10.036  33.609  27.978  1.00  0.00     0.135 A
ATOM     29  H3  UNL     1      10.528  32.183  26.526  1.00  0.00     0.188 HD
HETATM   30  N4  UNL     1      10.374  33.437  29.283  1.00  0.00    -0.349 N
HETATM   31  C9  UNL     1       9.949  34.478  30.002  1.00  0.00     0.111 A
ATOM     32  H4  UNL     1      10.877  32.633  29.657  1.00  0.00     0.167 HD
HETATM   33  C10 UNL     1       9.300  35.389  29.154  1.00  0.00     0.051 A
ATOM     34  H1  UNL     1       8.427  35.563  25.024  1.00  0.00     0.166 HD
BRANCH  33  35
HETATM   35  C11 UNL     1       8.708  36.628  29.547  1.00  0.00    -0.064 C
HETATM   36  C12 UNL     1       8.231  37.682  29.872  1.00  0.00    -0.099 C
BRANCH  36  37
HETATM   37  C13 UNL     1       7.616  38.959  30.293  1.00  0.00     0.113 C
BRANCH  37  38
HETATM   38  C14 UNL     1       8.651  39.922  30.819  1.00  0.00     0.128 C
BRANCH  38  39
HETATM   39  N5  UNL     1       8.139  41.033  31.528  1.00  0.00    -0.420 N
HETATM   40  C15 UNL     1       6.801  40.965  31.984  1.00  0.00     0.142 C
HETATM   41  C16 UNL     1       8.634  42.320  31.208  1.00  0.00     0.142 C
ENDBRANCH  38  39
ENDBRANCH  37  38
ENDBRANCH  36  37
ENDBRANCH  33  35
ENDBRANCH   1  22
TORSDOF 10
ENDMDL