MODEL 4
REMARK VINA RESULT: -7.896623885      4.435      8.043
REMARK  8 active torsions:
REMARK  status: ('A' for Active; 'I' for Inactive)
REMARK    1  A    between atoms: C2_2  and  C3_3
REMARK    2  A    between atoms: C10_10  and  C11_11
REMARK    3  A    between atoms: C11_11  and  N1_13
REMARK    4  A    between atoms: N1_13  and  N2_15
REMARK    5  A    between atoms: N2_15  and  C12_16
REMARK    6  A    between atoms: C12_16  and  C14_18
REMARK       I    between atoms: C14_18  and  N3_20
REMARK    7  A    between atoms: N3_20  and  N4_22
REMARK       I    between atoms: N4_22  and  C15_24
REMARK    8  A    between atoms: C15_24  and  C16_26
ROOT
HETATM    1  C12 UNL     1       8.648  39.163  22.300  1.00  0.00     0.189 C
HETATM    2  C13 UNL     1       9.370  38.711  21.041  1.00  0.00     0.040 C
ENDROOT
BRANCH   1   3
HETATM    3  N2  UNL     1       7.251  38.753  22.267  1.00  0.00    -0.126 NA
BRANCH   3   4
HETATM    4  N1  UNL     1       6.375  39.792  22.482  1.00  0.00    -0.296 N
ATOM      5  H1  UNL     1       6.416  40.628  21.898  1.00  0.00     0.183 HD
BRANCH   4   6
HETATM    6  C11 UNL     1       5.414  39.693  23.517  1.00  0.00     0.097 C
HETATM    7  S1  UNL     1       5.766  40.244  25.033  1.00  0.00    -0.064 SA
BRANCH   6   8
HETATM    8  C10 UNL     1       4.085  39.099  23.278  1.00  0.00     0.015 C
HETATM    9  C9  UNL     1       3.154  39.627  24.353  1.00  0.00     0.021 C
HETATM   10  C7  UNL     1       1.791  39.061  24.104  1.00  0.00    -0.012 C
HETATM   11  C6  UNL     1       1.317  39.524  22.750  1.00  0.00     0.009 C
HETATM   12  C8  UNL     1       1.825  37.559  24.232  1.00  0.00     0.014 C
HETATM   13  C5  UNL     1       2.210  38.895  21.702  1.00  0.00    -0.012 C
HETATM   14  C4  UNL     1       2.267  37.397  21.846  1.00  0.00     0.014 C
HETATM   15  C23 UNL     1       3.585  39.444  21.899  1.00  0.00     0.021 C
HETATM   16  C3  UNL     1       2.775  37.008  23.227  1.00  0.00    -0.039 C
HETATM   17  C24 UNL     1       4.148  37.612  23.433  1.00  0.00     0.026 C
BRANCH  16  18
HETATM   18  C2  UNL     1       2.880  35.508  23.252  1.00  0.00     0.005 C
HETATM   19  C1  UNL     1       4.038  34.984  24.020  1.00  0.00     0.006 C
ENDBRANCH  16  18
ENDBRANCH   6   8
ENDBRANCH   4   6
ENDBRANCH   3   4
ENDBRANCH   1   3
BRANCH   1  20
HETATM   20  C14 UNL     1       9.285  38.504  23.452  1.00  0.00     0.257 C
HETATM   21  O1  UNL     1      10.520  38.579  23.609  1.00  0.00    -0.270 OA
HETATM   22  N3  UNL     1       8.497  37.793  24.374  1.00  0.00    -0.266 N
ATOM     23  H3  UNL     1       7.489  37.745  24.224  1.00  0.00     0.190 HD
BRANCH  22  24
HETATM   24  N4  UNL     1       9.050  37.140  25.505  1.00  0.00    -0.263 N
HETATM   25  C15 UNL     1       8.160  36.566  26.416  1.00  0.00     0.272 C
HETATM   26  O2  UNL     1       6.896  36.667  26.157  1.00  0.00    -0.266 OA
ATOM     27  H4  UNL     1      10.059  37.092  25.648  1.00  0.00     0.190 HD
BRANCH  25  28
HETATM   28  C16 UNL     1       8.567  35.869  27.620  1.00  0.00     0.063 A
HETATM   29  C17 UNL     1       8.369  36.218  28.915  1.00  0.00     0.022 A
HETATM   30  C18 UNL     1       7.671  37.368  29.520  1.00  0.00     0.069 C
HETATM   31  N5  UNL     1       8.958  35.243  29.693  1.00  0.00    -0.362 N
HETATM   32  C19 UNL     1       9.502  34.320  28.910  1.00  0.00     0.012 A
ATOM     33  H5  UNL     1       8.973  35.234  30.713  1.00  0.00     0.165 HD
HETATM   34  C20 UNL     1      10.243  33.087  29.340  1.00  0.00     0.068 C
HETATM   35  C21 UNL     1       9.282  34.670  27.620  1.00  0.00    -0.022 A
HETATM   36  C22 UNL     1       9.707  33.939  26.420  1.00  0.00     0.051 C
ENDBRANCH  25  28
ENDBRANCH  22  24
ENDBRANCH   1  20
TORSDOF 8
ENDMDL