MODEL 5
REMARK VINA RESULT: -8.240632031      0.629      1.124
REMARK  9 active torsions:
REMARK  status: ('A' for Active; 'I' for Inactive)
REMARK    1  A    between atoms: C5_5  and  N1_6
REMARK       I    between atoms: C6_8  and  N2_9
REMARK       I    between atoms: C6_8  and  N6_30
REMARK    2  A    between atoms: N2_9  and  N3_11
REMARK    3  A    between atoms: N3_11  and  C7_13
REMARK    4  A    between atoms: C7_13  and  N4_15
REMARK    5  A    between atoms: N4_15  and  C8_17
REMARK    6  A    between atoms: C8_17  and  C10_19
REMARK       I    between atoms: C10_19  and  N5_21
REMARK    7  A    between atoms: N5_21  and  C11_23
REMARK    8  A    between atoms: C11_23  and  C12_24
REMARK    9  A    between atoms: N6_30  and  C18_32
ROOT
HETATM    1  N1  UNL     1       9.116  36.609  25.608  1.00  0.00    -0.191 N
ATOM      2  H1  UNL     1       9.893  36.740  24.961  1.00  0.00     0.184 HD
HETATM    3  C6  UNL     1       8.017  37.204  25.357  1.00  0.00     0.693 C
HETATM    4  N2  UNL     1       7.925  38.024  24.187  1.00  0.00    -0.130 N
ATOM      5  H2  UNL     1       7.289  37.767  23.432  1.00  0.00     0.205 HD
HETATM    6  N6  UNL     1       6.875  37.105  26.175  1.00  0.00    -0.220 N
ATOM      7  H6  UNL     1       6.979  37.004  27.185  1.00  0.00     0.178 HD
ENDROOT
BRANCH   4   8
HETATM    8  N3  UNL     1       8.722  39.194  24.080  1.00  0.00    -0.262 N
ATOM      9  H3  UNL     1       9.628  39.262  24.543  1.00  0.00     0.190 HD
BRANCH   8  10
HETATM   10  C7  UNL     1       8.215  40.258  23.310  1.00  0.00     0.187 C
HETATM   11  S1  UNL     1       7.130  41.279  23.976  1.00  0.00    -0.040 SA
BRANCH  10  12
HETATM   12  N4  UNL     1       8.629  40.448  21.984  1.00  0.00    -0.353 N
ATOM     13  H4  UNL     1       8.314  41.302  21.522  1.00  0.00     0.162 HD
BRANCH  12  14
HETATM   14  C8  UNL     1       9.454  39.562  21.210  1.00  0.00     0.172 C
HETATM   15  C9  UNL     1       9.411  39.763  19.739  1.00  0.00     0.042 C
BRANCH  14  16
HETATM   16  C10 UNL     1      10.901  39.581  21.701  1.00  0.00     0.240 C
HETATM   17  O1  UNL     1      11.303  38.628  22.382  1.00  0.00    -0.271 OA
HETATM   18  N5  UNL     1      11.657  40.684  21.337  1.00  0.00    -0.359 N
ATOM     19  H5  UNL     1      11.171  41.398  20.794  1.00  0.00     0.162 HD
BRANCH  18  20
HETATM   20  C11 UNL     1      13.014  40.942  21.624  1.00  0.00     0.127 C
BRANCH  20  21
HETATM   21  C12 UNL     1      13.379  42.098  22.483  1.00  0.00     0.003 C
HETATM   22  C13 UNL     1      12.784  41.792  23.858  1.00  0.00     0.006 C
HETATM   23  C14 UNL     1      13.174  42.711  24.938  1.00  0.00     0.000 C
HETATM   24  C15 UNL     1      14.581  43.247  24.827  1.00  0.00     0.000 C
HETATM   25  C16 UNL     1      14.824  43.783  23.436  1.00  0.00     0.000 C
HETATM   26  C17 UNL     1      14.771  42.521  22.518  1.00  0.00     0.006 C
ENDBRANCH  20  21
ENDBRANCH  18  20
ENDBRANCH  14  16
ENDBRANCH  12  14
ENDBRANCH  10  12
ENDBRANCH   8  10
ENDBRANCH   4   8
BRANCH   1  27
HETATM   27  C5  UNL     1       9.318  35.777  26.733  1.00  0.00     0.049 A
HETATM   28  C4  UNL     1       9.548  34.425  26.655  1.00  0.00     0.030 A
HETATM   29  C3  UNL     1       9.739  33.659  27.811  1.00  0.00     0.009 A
HETATM   30  C2  UNL     1       9.704  34.222  29.068  1.00  0.00    -0.062 A
HETATM   31  C1  UNL     1       9.909  33.400  30.294  1.00  0.00     0.048 C
HETATM   32  C25 UNL     1       9.472  35.580  29.155  1.00  0.00     0.009 A
HETATM   33  C24 UNL     1       9.284  36.335  28.017  1.00  0.00     0.030 A
ENDBRANCH   1  27
BRANCH   6  34
HETATM   34  C18 UNL     1       5.565  37.146  25.592  1.00  0.00     0.099 C
HETATM   35  C19 UNL     1       4.516  37.129  26.689  1.00  0.00     0.026 C
HETATM   36  C20 UNL     1       3.171  36.737  26.152  1.00  0.00     0.002 C
HETATM   37  C21 UNL     1       3.048  36.874  24.653  1.00  0.00     0.000 C
HETATM   38  C22 UNL     1       4.107  36.068  23.927  1.00  0.00     0.002 C
HETATM   39  C23 UNL     1       5.353  35.908  24.772  1.00  0.00     0.026 C
ENDBRANCH   6  34
TORSDOF 9
ENDMDL