MODEL 5
REMARK VINA RESULT: -6.600787509      2.157      3.746
REMARK  15 active torsions:
REMARK  status: ('A' for Active; 'I' for Inactive)
REMARK    1  A    between atoms: C3_3  and  O1_4
REMARK    2  A    between atoms: C5_7  and  O2_8
REMARK    3  A    between atoms: C7_11  and  C8_12
REMARK    4  A    between atoms: C8_12  and  C9_13
REMARK    5  A    between atoms: C10_14  and  C11_15
REMARK    6  A    between atoms: C10_14  and  N3_38
REMARK    7  A    between atoms: C11_15  and  C12_16
REMARK    8  A    between atoms: C12_16  and  C13_17
REMARK    9  A    between atoms: C13_17  and  C14_18
REMARK   10  A    between atoms: C14_18  and  C15_19
REMARK   11  A    between atoms: C15_19  and  C16_20
REMARK   12  A    between atoms: C16_20  and  C17_21
REMARK   13  A    between atoms: C17_21  and  C18_22
REMARK   14  A    between atoms: C18_22  and  C19_23
REMARK   15  A    between atoms: C19_23  and  C20_24
ROOT
HETATM    1  C13 UNL     1       8.664  41.344  19.693  1.00  0.00    -0.009 C
ENDROOT
BRANCH   1   2
HETATM    2  C12 UNL     1       9.006  42.043  18.746  1.00  0.00    -0.062 C
BRANCH   2   3
HETATM    3  C11 UNL     1       9.406  42.908  17.695  1.00  0.00     0.094 C
BRANCH   3   4
HETATM    4  C10 UNL     1      10.575  43.725  17.843  1.00  0.00     0.032 C
HETATM    5  C9  UNL     1      11.715  43.568  18.338  1.00  0.00     0.004 C
BRANCH   5   6
HETATM    6  C8  UNL     1      12.381  42.469  18.998  1.00  0.00     0.038 C
BRANCH   6   7
HETATM    7  C7  UNL     1      12.102  42.640  20.508  1.00  0.00     0.022 C
HETATM    8  C2  UNL     1      12.614  41.520  21.300  1.00  0.00    -0.056 C
HETATM    9  C1  UNL     1      11.850  40.561  21.820  1.00  0.00     0.017 C
HETATM   10  C3  UNL     1      14.077  41.445  21.549  1.00  0.00     0.149 C
HETATM   11  C4  UNL     1      14.742  42.778  21.438  1.00  0.00     0.068 C
HETATM   12  C5  UNL     1      13.850  43.939  21.755  1.00  0.00     0.121 C
HETATM   13  C6  UNL     1      12.587  43.979  20.949  1.00  0.00     0.041 C
BRANCH  10  14
HETATM   14  O1  UNL     1      14.631  40.594  20.596  1.00  0.00    -0.391 OA
ATOM     15  H1  UNL     1      15.328  40.102  21.014  1.00  0.00     0.210 HD
ENDBRANCH  10  14
BRANCH  12  16
HETATM   16  O2  UNL     1      14.570  45.111  21.530  1.00  0.00    -0.395 OA
ATOM     17  H2  UNL     1      13.959  45.784  21.253  1.00  0.00     0.210 HD
ENDBRANCH  12  16
ENDBRANCH   6   7
ENDBRANCH   5   6
BRANCH   4  18
HETATM   18  N3  UNL     1      10.378  45.105  17.259  1.00  0.00    -0.394 N
HETATM   19  C30 UNL     1      10.633  45.366  15.898  1.00  0.00     0.146 C
ATOM     20  H3  UNL     1      10.055  45.861  17.862  1.00  0.00     0.159 HD
ENDBRANCH   4  18
ENDBRANCH   3   4
ENDBRANCH   2   3
ENDBRANCH   1   2
BRANCH   1  21
HETATM   21  C14 UNL     1       8.287  40.521  20.781  1.00  0.00    -0.001 C
BRANCH  21  22
HETATM   22  C15 UNL     1       7.975  39.831  21.725  1.00  0.00    -0.001 C
BRANCH  22  23
HETATM   23  C16 UNL     1       7.624  39.035  22.846  1.00  0.00    -0.009 C
BRANCH  23  24
HETATM   24  C17 UNL     1       7.316  38.343  23.788  1.00  0.00    -0.065 C
BRANCH  24  25
HETATM   25  C18 UNL     1       6.949  37.503  24.891  1.00  0.00     0.062 C
BRANCH  25  26
HETATM   26  C19 UNL     1       7.811  36.768  25.568  1.00  0.00    -0.007 C
BRANCH  26  27
HETATM   27  C20 UNL     1       8.428  37.232  26.813  1.00  0.00     0.059 C
HETATM   28  C21 UNL     1       7.506  38.111  27.579  1.00  0.00     0.015 C
HETATM   29  C22 UNL     1       6.844  37.430  28.749  1.00  0.00     0.006 C
HETATM   30  C23 UNL     1       7.881  36.859  29.687  1.00  0.00     0.043 C
HETATM   31  C24 UNL     1       8.648  35.838  28.915  1.00  0.00    -0.006 A
HETATM   32  C25 UNL     1       8.886  36.038  27.582  1.00  0.00     0.026 A
HETATM   33  C29 UNL     1       9.225  34.631  29.254  1.00  0.00     0.067 A
HETATM   34  N1  UNL     1       9.583  34.990  27.134  1.00  0.00    -0.357 N
HETATM   35  C26 UNL     1       9.795  34.137  28.123  1.00  0.00     0.061 A
ATOM     36  H1  UNL     1       9.904  34.866  26.173  1.00  0.00     0.166 HD
HETATM   37  C27 UNL     1      10.375  32.924  28.471  1.00  0.00     0.049 A
HETATM   38  C28 UNL     1      10.131  32.730  29.809  1.00  0.00     0.090 A
HETATM   39  N2  UNL     1       9.421  33.797  30.269  1.00  0.00    -0.364 N
ATOM     40  H2  UNL     1       9.096  33.933  31.227  1.00  0.00     0.165 HD
ENDBRANCH  26  27
ENDBRANCH  25  26
ENDBRANCH  24  25
ENDBRANCH  23  24
ENDBRANCH  22  23
ENDBRANCH  21  22
ENDBRANCH   1  21
TORSDOF 15
ENDMDL