MODEL 5
REMARK VINA RESULT: -7.120809971      2.954      4.899
REMARK  6 active torsions:
REMARK  status: ('A' for Active; 'I' for Inactive)
REMARK    1  A    between atoms: C5_5  and  O1_6
REMARK    2  A    between atoms: C16_18  and  N1_19
REMARK       I    between atoms: N1_19  and  C17_21
REMARK       I    between atoms: C17_21  and  N2_23
REMARK    3  A    between atoms: N2_23  and  C18_25
REMARK    4  A    between atoms: C18_25  and  C19_26
REMARK    5  A    between atoms: C19_26  and  C20_27
REMARK    6  A    between atoms: C20_27  and  N3_28
REMARK       I    between atoms: N3_28  and  C21_30
ROOT
HETATM    1  C1  UNL     1       2.332  40.860  20.815  1.00  0.00     0.016 C
HETATM    2  C2  UNL     1       2.010  41.054  22.298  1.00  0.00    -0.036 C
HETATM    3  C3  UNL     1       2.640  42.373  22.713  1.00  0.00     0.012 C
HETATM    4  C4  UNL     1       2.232  43.493  21.798  1.00  0.00     0.032 C
HETATM    5  C5  UNL     1       0.872  43.337  21.209  1.00  0.00     0.118 C
HETATM    6  C6  UNL     1      -0.037  42.502  22.067  1.00  0.00     0.037 C
HETATM    7  C7  UNL     1       0.502  41.141  22.388  1.00  0.00    -0.004 C
HETATM    8  C8  UNL     1       0.021  40.818  23.795  1.00  0.00     0.006 C
HETATM    9  C9  UNL     1       0.381  39.421  24.217  1.00  0.00     0.006 C
HETATM   10  C10 UNL     1       1.516  38.859  23.440  1.00  0.00    -0.001 C
HETATM   11  C11 UNL     1       2.567  39.903  23.047  1.00  0.00    -0.001 C
HETATM   12  C12 UNL     1       3.287  40.233  24.316  1.00  0.00     0.007 C
HETATM   13  C13 UNL     1       4.085  39.008  24.705  1.00  0.00     0.012 C
HETATM   14  C14 UNL     1       3.194  37.793  25.004  1.00  0.00    -0.016 C
HETATM   15  C15 UNL     1       2.596  38.146  26.384  1.00  0.00     0.018 C
HETATM   16  C16 UNL     1       4.112  36.631  25.229  1.00  0.00     0.095 C
HETATM   17  C22 UNL     1       4.188  35.575  24.181  1.00  0.00     0.026 C
HETATM   18  C23 UNL     1       3.062  35.522  23.213  1.00  0.00     0.003 C
HETATM   19  C24 UNL     1       2.778  36.933  22.780  1.00  0.00     0.010 C
HETATM   20  C25 UNL     1       2.134  37.616  23.984  1.00  0.00    -0.031 C
HETATM   21  C26 UNL     1       0.994  36.760  24.527  1.00  0.00     0.016 C
ENDROOT
BRANCH  16  22
HETATM   22  N1  UNL     1       5.452  37.010  25.575  1.00  0.00    -0.338 N
HETATM   23  C17 UNL     1       5.953  36.784  26.870  1.00  0.00     0.316 C
HETATM   24  O2  UNL     1       5.208  36.230  27.741  1.00  0.00    -0.247 OA
HETATM   25  N2  UNL     1       7.275  37.151  27.259  1.00  0.00    -0.343 N
ATOM     26  H2  UNL     1       7.884  37.590  26.569  1.00  0.00     0.164 HD
ATOM     27  H1  UNL     1       6.048  37.449  24.874  1.00  0.00     0.164 HD
BRANCH  25  28
HETATM   28  C18 UNL     1       7.783  36.928  28.580  1.00  0.00     0.126 C
BRANCH  28  29
HETATM   29  C19 UNL     1       9.248  36.679  28.669  1.00  0.00     0.039 C
BRANCH  29  30
HETATM   30  C20 UNL     1       9.655  35.381  27.996  1.00  0.00     0.125 C
BRANCH  30  31
HETATM   31  N3  UNL     1      10.093  34.383  28.916  1.00  0.00    -0.345 N
HETATM   32  C21 UNL     1      10.117  33.027  28.551  1.00  0.00     0.328 C
HETATM   33  N4  UNL     1      10.549  32.034  29.452  1.00  0.00    -0.040 NA
HETATM   34  O3  UNL     1       9.749  32.674  27.400  1.00  0.00    -0.251 OA
ATOM     35  H3  UNL     1      10.394  34.658  29.851  1.00  0.00     0.163 HD
ENDBRANCH  30  31
ENDBRANCH  29  30
ENDBRANCH  28  29
ENDBRANCH  25  28
ENDBRANCH  16  22
BRANCH   5  36
HETATM   36  O1  UNL     1       0.294  44.630  21.174  1.00  0.00    -0.396 OA
ATOM     37  H1  UNL     1      -0.638  44.507  21.035  1.00  0.00     0.210 HD
ENDBRANCH   5  36
TORSDOF 6
ENDMDL