MODEL 1
REMARK VINA RESULT: -8.846979831      0.000      0.000
REMARK  9 active torsions:
REMARK  status: ('A' for Active; 'I' for Inactive)
REMARK    1  A    between atoms: N1_1  and  C1_5
REMARK    2  A    between atoms: C1_5  and  C2_6
REMARK    3  A    between atoms: C1_5  and  C7_15
REMARK    4  A    between atoms: C2_6  and  C3_7
REMARK    5  A    between atoms: C5_11  and  O1_12
REMARK       I    between atoms: C7_15  and  N3_17
REMARK    6  A    between atoms: C8_19  and  N4_20
REMARK    7  A    between atoms: C8_19  and  C19_32
REMARK    8  A    between atoms: N4_20  and  C9_22
REMARK       I    between atoms: C19_32  and  N5_34
REMARK    9  A    between atoms: N5_34  and  C20_36
ROOT
HETATM    1  C7  UNL     1       8.676  35.646  26.653  1.00  0.00     0.254 C
HETATM    2  O2  UNL     1       9.859  35.617  26.201  1.00  0.00    -0.271 OA
HETATM    3  N3  UNL     1       7.530  35.500  25.860  1.00  0.00    -0.307 N
ATOM      4  H3  UNL     1       7.120  34.567  25.835  1.00  0.00     0.170 HD
HETATM    5  C8  UNL     1       6.938  36.388  25.168  1.00  0.00     0.173 C
ENDROOT
BRANCH   5   6
HETATM    6  N4  UNL     1       5.787  36.038  24.431  1.00  0.00    -0.362 N
ATOM      7  H4  UNL     1       5.861  35.264  23.771  1.00  0.00     0.162 HD
BRANCH   6   8
HETATM    8  C9  UNL     1       4.517  36.702  24.550  1.00  0.00     0.033 C
HETATM    9  C10 UNL     1       4.593  37.988  23.756  1.00  0.00     0.035 C
HETATM   10  C11 UNL     1       3.318  38.796  23.876  1.00  0.00    -0.012 C
HETATM   11  C12 UNL     1       3.127  39.101  25.343  1.00  0.00     0.009 C
HETATM   12  C16 UNL     1       2.199  37.983  23.306  1.00  0.00     0.009 C
HETATM   13  C13 UNL     1       2.921  37.820  26.082  1.00  0.00    -0.012 C
HETATM   14  C14 UNL     1       1.784  37.017  25.499  1.00  0.00     0.009 C
HETATM   15  C18 UNL     1       4.161  36.960  26.002  1.00  0.00     0.035 C
HETATM   16  C15 UNL     1       2.121  36.682  24.059  1.00  0.00    -0.012 C
HETATM   17  C17 UNL     1       3.380  35.881  23.966  1.00  0.00     0.035 C
ENDBRANCH   6   8
ENDBRANCH   5   6
BRANCH   5  18
HETATM   18  C19 UNL     1       7.430  37.743  25.127  1.00  0.00     0.285 C
HETATM   19  O3  UNL     1       7.165  38.569  26.047  1.00  0.00    -0.264 OA
HETATM   20  N5  UNL     1       8.229  38.163  24.030  1.00  0.00    -0.350 N
ATOM     21  H5  UNL     1       8.430  37.483  23.297  1.00  0.00     0.163 HD
BRANCH  20  22
HETATM   22  C20 UNL     1       8.773  39.490  23.884  1.00  0.00     0.084 C
HETATM   23  C21 UNL     1      10.142  39.364  23.269  1.00  0.00     0.025 C
HETATM   24  C22 UNL     1      10.709  40.761  23.109  1.00  0.00     0.002 C
HETATM   25  C23 UNL     1      10.603  41.094  21.623  1.00  0.00     0.000 C
HETATM   26  C24 UNL     1       9.200  41.534  21.313  1.00  0.00     0.000 C
HETATM   27  C25 UNL     1       8.178  40.471  21.646  1.00  0.00     0.002 C
HETATM   28  C26 UNL     1       7.867  40.402  23.102  1.00  0.00     0.025 C
ENDBRANCH  20  22
ENDBRANCH   5  18
BRANCH   1  29
HETATM   29  C1  UNL     1       8.527  35.849  28.121  1.00  0.00     0.279 C
BRANCH  29  30
HETATM   30  N1  UNL     1       8.181  37.204  28.456  1.00  0.00    -0.066 N
ATOM     31  H13 UNL     1       8.936  37.867  28.276  1.00  0.00     0.275 HD
ATOM     32  H12 UNL     1       7.496  37.612  27.819  1.00  0.00     0.275 HD
ATOM     33  H11 UNL     1       7.872  37.203  29.427  1.00  0.00     0.275 HD
ENDBRANCH  29  30
BRANCH  29  34
HETATM   34  C2  UNL     1       9.865  35.549  28.801  1.00  0.00     0.082 C
BRANCH  34  35
HETATM   35  C3  UNL     1       9.923  34.139  29.239  1.00  0.00    -0.036 A
HETATM   36  C4  UNL     1       9.803  33.616  30.509  1.00  0.00     0.097 A
HETATM   37  N2  UNL     1       9.913  32.277  30.495  1.00  0.00    -0.347 N
HETATM   38  C5  UNL     1      10.105  31.922  29.217  1.00  0.00     0.140 A
ATOM     39  H2  UNL     1       9.861  31.652  31.299  1.00  0.00     0.167 HD
HETATM   40  C6  UNL     1      10.118  33.039  28.406  1.00  0.00     0.064 A
BRANCH  38  41
HETATM   41  O1  UNL     1      10.270  30.604  28.761  1.00  0.00    -0.346 OA
ATOM     42  H1  UNL     1      10.152  30.319  27.863  1.00  0.00     0.219 HD
ENDBRANCH  38  41
ENDBRANCH  34  35
ENDBRANCH  29  34
ENDBRANCH   1  29
TORSDOF 9
ENDMDL