MODEL 4
REMARK VINA RESULT: -6.788901782      6.843     11.797
REMARK  6 active torsions:
REMARK  status: ('A' for Active; 'I' for Inactive)
REMARK    1  A    between atoms: C2_2  and  C3_3
REMARK    2  A    between atoms: C3_3  and  C4_4
REMARK    3  A    between atoms: C4_4  and  O1_5
REMARK    4  A    between atoms: C5_7  and  C6_8
REMARK    5  A    between atoms: C6_8  and  C7_9
REMARK       I    between atoms: C7_9  and  N1_11
REMARK       I    between atoms: N1_11  and  C8_13
REMARK    6  A    between atoms: C21_30  and  O3_31
ROOT
HETATM    1  C4  UNL     1       8.927  40.624  22.103  1.00  0.00     0.070 C
HETATM    2  C5  UNL     1       8.065  40.346  23.384  1.00  0.00     0.057 C
HETATM    3  C9  UNL     1       7.245  41.580  23.571  1.00  0.00    -0.080 C
HETATM    4  C10 UNL     1       5.793  41.484  23.306  1.00  0.00     0.043 C
HETATM    5  C11 UNL     1       7.591  42.809  23.915  1.00  0.00    -0.024 C
HETATM    6  C12 UNL     1       8.859  43.460  24.242  1.00  0.00     0.028 C
HETATM    7  C13 UNL     1       9.727  43.886  23.126  1.00  0.00     0.014 C
HETATM    8  C14 UNL     1      10.226  42.840  22.153  1.00  0.00    -0.033 C
HETATM    9  C15 UNL     1       9.601  43.203  20.828  1.00  0.00     0.016 C
HETATM   10  C16 UNL     1      11.713  43.199  21.971  1.00  0.00    -0.001 C
HETATM   11  C17 UNL     1      12.314  42.804  20.685  1.00  0.00     0.007 C
HETATM   12  C18 UNL     1      13.594  43.654  20.549  1.00  0.00     0.012 C
HETATM   13  C19 UNL     1      14.516  43.428  21.701  1.00  0.00    -0.014 C
HETATM   14  C20 UNL     1      15.478  42.309  21.332  1.00  0.00     0.018 C
HETATM   15  C21 UNL     1      15.382  44.689  21.829  1.00  0.00     0.126 C
HETATM   16  C22 UNL     1      14.656  45.562  22.828  1.00  0.00     0.033 C
HETATM   17  C23 UNL     1      13.995  44.594  23.752  1.00  0.00     0.008 C
HETATM   18  C24 UNL     1      13.921  43.256  23.023  1.00  0.00     0.001 C
HETATM   19  C25 UNL     1      12.535  42.746  23.115  1.00  0.00    -0.005 C
HETATM   20  C26 UNL     1      12.515  41.269  23.221  1.00  0.00     0.006 C
HETATM   21  C27 UNL     1      11.310  40.582  22.656  1.00  0.00     0.009 C
HETATM   22  C28 UNL     1      10.069  41.429  22.591  1.00  0.00     0.029 C
ENDROOT
BRANCH   2  23
HETATM   23  C6  UNL     1       7.332  39.090  23.367  1.00  0.00     0.115 C
BRANCH  23  24
HETATM   24  C7  UNL     1       7.523  38.420  24.696  1.00  0.00     0.224 C
HETATM   25  O2  UNL     1       7.270  38.976  25.790  1.00  0.00    -0.273 OA
HETATM   26  N1  UNL     1       8.017  37.089  24.723  1.00  0.00    -0.301 N
HETATM   27  C8  UNL     1       8.209  36.431  25.946  1.00  0.00     0.188 C
ATOM     28  H1  UNL     1       8.233  36.609  23.850  1.00  0.00     0.171 HD
HETATM   29  N2  UNL     1       8.660  35.217  25.931  1.00  0.00    -0.373 N
HETATM   30  N3  UNL     1       7.920  37.062  27.195  1.00  0.00    -0.064 NA
ATOM     31  H22 UNL     1       8.865  34.766  25.039  1.00  0.00     0.158 HD
ATOM     32  H21 UNL     1       8.799  34.738  26.820  1.00  0.00     0.158 HD
ENDBRANCH  23  24
ENDBRANCH   2  23
BRANCH   1  33
HETATM   33  C3  UNL     1       9.159  39.332  21.436  1.00  0.00     0.038 C
BRANCH  33  34
HETATM   34  C2  UNL     1       8.768  39.201  19.994  1.00  0.00    -0.002 C
HETATM   35  C1  UNL     1       9.846  39.911  19.153  1.00  0.00     0.005 C
ENDBRANCH  33  34
ENDBRANCH   1  33
BRANCH   1  36
HETATM   36  O1  UNL     1       7.973  41.289  21.334  1.00  0.00    -0.389 OA
ATOM     37  H1  UNL     1       7.141  41.155  21.773  1.00  0.00     0.210 HD
ENDBRANCH   1  36
BRANCH  15  38
HETATM   38  O3  UNL     1      15.447  45.383  20.635  1.00  0.00    -0.395 OA
ATOM     39  H3  UNL     1      15.919  46.202  20.733  1.00  0.00     0.210 HD
ENDBRANCH  15  38
TORSDOF 6
ENDMDL