MODEL 2
REMARK VINA RESULT: -7.539170873      2.884      7.881
REMARK  8 active torsions:
REMARK  status: ('A' for Active; 'I' for Inactive)
REMARK    1  A    between atoms: C2_2  and  C3_3
REMARK    2  A    between atoms: C4_4  and  C5_5
REMARK    3  A    between atoms: C5_5  and  C6_6
REMARK    4  A    between atoms: C6_6  and  O1_9
REMARK    5  A    between atoms: C9_11  and  C10_12
REMARK    6  A    between atoms: C13_15  and  O2_16
REMARK    7  A    between atoms: C21_28  and  N2_29
REMARK       I    between atoms: N2_29  and  C22_31
REMARK       I    between atoms: C22_31  and  N3_33
REMARK    8  A    between atoms: N3_33  and  C23_35
ROOT
HETATM    1  C10 UNL     1       4.452  37.615  26.936  1.00  0.00     0.032 C
HETATM    2  C11 UNL     1       4.769  36.692  25.772  1.00  0.00     0.013 C
HETATM    3  C12 UNL     1       6.042  37.248  25.169  1.00  0.00     0.039 C
HETATM    4  C13 UNL     1       7.270  36.551  25.676  1.00  0.00     0.064 C
HETATM    5  C14 UNL     1       8.421  37.483  25.920  1.00  0.00     0.041 C
HETATM    6  C15 UNL     1       9.167  36.865  27.064  1.00  0.00     0.035 C
HETATM    7  C16 UNL     1       8.531  35.521  27.332  1.00  0.00     0.047 C
HETATM    8  C17 UNL     1       9.269  34.352  26.746  1.00  0.00     0.134 C
HETATM    9  C18 UNL     1       9.862  34.270  28.114  1.00  0.00     0.220 C
HETATM   10  O3  UNL     1      10.932  33.791  28.571  1.00  0.00    -0.274 OA
HETATM   11  N1  UNL     1       8.701  34.958  28.626  1.00  0.00    -0.351 N
ATOM     12  H1  UNL     1       8.216  35.015  29.521  1.00  0.00     0.163 HD
HETATM   13  C19 UNL     1       7.078  35.675  26.853  1.00  0.00     0.050 C
HETATM   14  C20 UNL     1       6.187  36.100  27.925  1.00  0.00     0.036 C
HETATM   15  C21 UNL     1       5.625  37.476  27.887  1.00  0.00     0.094 C
ENDROOT
BRANCH   1  16
HETATM   16  C9  UNL     1       3.169  37.339  27.557  1.00  0.00    -0.013 C
HETATM   17  C2  UNL     1       1.999  37.619  27.004  1.00  0.00    -0.066 C
HETATM   18  C1  UNL     1       0.720  37.297  27.725  1.00  0.00     0.048 C
BRANCH  17  19
HETATM   19  C3  UNL     1       1.862  38.240  25.698  1.00  0.00     0.002 C
HETATM   20  C4  UNL     1       1.573  37.474  24.652  1.00  0.00    -0.023 C
BRANCH  20  21
HETATM   21  C5  UNL     1       1.409  37.991  23.278  1.00  0.00     0.064 C
BRANCH  21  22
HETATM   22  C6  UNL     1       2.390  37.285  22.358  1.00  0.00     0.054 C
HETATM   23  C7  UNL     1       3.592  38.149  22.139  1.00  0.00     0.045 C
HETATM   24  C8  UNL     1       2.718  35.948  22.978  1.00  0.00     0.045 C
BRANCH  22  25
HETATM   25  O1  UNL     1       1.736  37.024  21.137  1.00  0.00    -0.390 OA
ATOM     26  H1  UNL     1       1.777  36.089  20.972  1.00  0.00     0.210 HD
ENDBRANCH  22  25
ENDBRANCH  21  22
ENDBRANCH  20  21
ENDBRANCH  17  19
ENDBRANCH   1  16
BRANCH  15  27
HETATM   27  N2  UNL     1       5.043  37.715  29.221  1.00  0.00    -0.338 N
HETATM   28  C22 UNL     1       5.312  38.881  29.970  1.00  0.00     0.317 C
HETATM   29  O4  UNL     1       6.076  39.760  29.487  1.00  0.00    -0.247 OA
HETATM   30  N3  UNL     1       4.729  39.056  31.241  1.00  0.00    -0.335 N
ATOM     31  H3  UNL     1       4.117  38.325  31.604  1.00  0.00     0.165 HD
ATOM     32  H2  UNL     1       4.422  37.009  29.618  1.00  0.00     0.164 HD
BRANCH  30  33
HETATM   33  C23 UNL     1       4.965  40.233  32.057  1.00  0.00     0.023 C
HETATM   34  C24 UNL     1       6.416  40.599  32.142  1.00  0.00     0.037 C
HETATM   35  C25 UNL     1       4.120  41.388  31.512  1.00  0.00     0.037 C
HETATM   36  C26 UNL     1       4.448  39.960  33.449  1.00  0.00     0.037 C
ENDBRANCH  30  33
ENDBRANCH  15  27
BRANCH   4  37
HETATM   37  O2  UNL     1       7.691  35.715  24.608  1.00  0.00    -0.389 OA
ATOM     38  H2  UNL     1       8.175  35.009  25.020  1.00  0.00     0.210 HD
ENDBRANCH   4  37
TORSDOF 8
ENDMDL