MODEL 1
REMARK VINA RESULT: -6.171749458      0.000      0.000
REMARK  3 active torsions:
REMARK  status: ('A' for Active; 'I' for Inactive)
REMARK    1  A    between atoms: O1_2  and  C2_3
REMARK    2  A    between atoms: C4_10  and  C5_11
REMARK    3  A    between atoms: C6_12  and  C7_13
ROOT
HETATM    1  C7  UNL     1      25.832  29.016   5.943  1.00  0.00     0.111 C
HETATM    2  C8  UNL     1      24.827  28.137   5.196  1.00  0.00     0.029 C
HETATM    3  C9  UNL     1      25.801  28.657   7.356  1.00  0.00     0.067 C
HETATM    4  N3  UNL     1      25.754  28.371   8.498  1.00  0.00    -0.197 NA
ENDROOT
BRANCH   1   5
HETATM    5  C6  UNL     1      27.185  28.762   5.413  1.00  0.00    -0.006 C
HETATM    6  C5  UNL     1      28.261  29.231   6.009  1.00  0.00     0.031 C
BRANCH   6   7
HETATM    7  C4  UNL     1      29.604  28.982   5.488  1.00  0.00     0.085 A
HETATM    8  C2  UNL     1      30.674  28.492   6.203  1.00  0.00     0.171 A
HETATM    9  N1  UNL     1      31.691  28.429   5.325  1.00  0.00    -0.312 N
HETATM   10  C3  UNL     1      31.296  28.856   4.113  1.00  0.00     0.178 A
ATOM     11  H1  UNL     1      32.631  28.102   5.548  1.00  0.00     0.170 HD
HETATM   12  S1  UNL     1      32.209  28.950   2.742  1.00  0.00    -0.040 SA
HETATM   13  N2  UNL     1      30.000  29.204   4.196  1.00  0.00    -0.330 N
ATOM     14  H2  UNL     1      29.420  29.565   3.439  1.00  0.00     0.168 HD
BRANCH   8  15
HETATM   15  O1  UNL     1      30.636  28.155   7.547  1.00  0.00    -0.339 OA
HETATM   16  C1  UNL     1      30.721  26.865   8.048  1.00  0.00     0.211 C
ENDBRANCH   8  15
ENDBRANCH   6   7
ENDBRANCH   1   5
TORSDOF 3
ENDMDL