MODEL 5
REMARK VINA RESULT: -5.449863415      6.242      8.131
REMARK  4 active torsions:
REMARK  status: ('A' for Active; 'I' for Inactive)
REMARK    1  A    between atoms: C2_2  and  C4_4
REMARK    2  A    between atoms: C4_4  and  N1_5
REMARK    3  A    between atoms: C4_4  and  N2_10
REMARK    4  A    between atoms: N1_5  and  C5_7
ROOT
HETATM    1  C4  UNL     1      19.893  32.093   2.543  1.00  0.00     0.216 C
ENDROOT
BRANCH   1   2
HETATM    2  C2  UNL     1      20.558  32.060   3.843  1.00  0.00    -0.051 C
HETATM    3  C1  UNL     1      20.523  33.167   4.575  1.00  0.00     0.017 C
HETATM    4  C3  UNL     1      21.248  30.919   4.464  1.00  0.00     0.046 C
ENDBRANCH   1   2
BRANCH   1   5
HETATM    5  N1  UNL     1      18.895  33.035   2.276  1.00  0.00    -0.394 N
ATOM      6  H1  UNL     1      19.052  34.030   2.429  1.00  0.00     0.155 HD
BRANCH   5   7
HETATM    7  C5  UNL     1      17.653  32.553   1.782  1.00  0.00     0.070 C
HETATM    8  C6  UNL     1      17.557  32.857   0.303  1.00  0.00     0.031 C
HETATM    9  C7  UNL     1      17.488  31.055   1.946  1.00  0.00     0.031 C
ENDBRANCH   5   7
ENDBRANCH   1   5
BRANCH   1  10
HETATM   10  N2  UNL     1      20.893  32.070   1.505  1.00  0.00    -0.307 N
HETATM   11  C8  UNL     1      21.562  33.127   1.028  1.00  0.00     0.113 A
HETATM   12  C9  UNL     1      22.456  32.702   0.051  1.00  0.00     0.107 A
HETATM   13  N3  UNL     1      22.323  31.388  -0.052  1.00  0.00    -0.342 N
HETATM   14  C10 UNL     1      21.379  31.003   0.824  1.00  0.00     0.179 A
ATOM     15  H3  UNL     1      22.844  30.778  -0.683  1.00  0.00     0.167 HD
HETATM   16  S1  UNL     1      20.900  29.457   1.016  1.00  0.00    -0.040 SA
ENDBRANCH   1  10
TORSDOF 4
ENDMDL