MODEL 1
REMARK VINA RESULT: -6.547094307      0.000      0.000
REMARK  6 active torsions:
REMARK  status: ('A' for Active; 'I' for Inactive)
REMARK    1  A    between atoms: C2_2  and  C3_3
REMARK    2  A    between atoms: C2_2  and  N1_10
REMARK    3  A    between atoms: C3_3  and  C4_4
REMARK    4  A    between atoms: N1_10  and  C10_12
REMARK    5  A    between atoms: C10_12  and  O1_14
REMARK    6  A    between atoms: O1_14  and  N2_15
ROOT
HETATM    1  C1  UNL     1      29.110  28.916   2.950  1.00  0.00     0.038 C
HETATM    2  C2  UNL     1      28.967  28.965   4.250  1.00  0.00     0.006 C
ENDROOT
BRANCH   2   3
HETATM    3  C3  UNL     1      27.645  28.699   4.853  1.00  0.00     0.083 C
BRANCH   3   4
HETATM    4  C4  UNL     1      27.621  29.081   6.271  1.00  0.00    -0.018 C
HETATM    5  C5  UNL     1      26.497  29.217   6.981  1.00  0.00    -0.083 C
HETATM    6  C6  UNL     1      25.146  28.995   6.400  1.00  0.00     0.034 C
HETATM    7  C9  UNL     1      26.382  29.598   8.428  1.00  0.00     0.034 C
HETATM    8  C7  UNL     1      24.249  29.681   7.402  1.00  0.00     0.005 C
HETATM    9  C8  UNL     1      24.912  29.331   8.710  1.00  0.00     0.005 C
ENDBRANCH   3   4
ENDBRANCH   2   3
BRANCH   2  10
HETATM   10  N1  UNL     1      30.106  29.277   5.046  1.00  0.00    -0.330 N
ATOM     11  H1  UNL     1      30.228  30.231   5.386  1.00  0.00     0.168 HD
BRANCH  10  12
HETATM   12  C10 UNL     1      31.071  28.297   5.375  1.00  0.00     0.238 C
HETATM   13  S1  UNL     1      32.184  27.882   4.264  1.00  0.00    -0.031 SA
BRANCH  12  14
HETATM   14  O1  UNL     1      31.047  27.714   6.632  1.00  0.00    -0.214 OA
BRANCH  14  15
HETATM   15  N2  UNL     1      30.697  28.367   7.768  1.00  0.00    -0.303 N
ATOM     16  H22 UNL     1      31.457  28.734   8.340  1.00  0.00     0.184 HD
ATOM     17  H21 UNL     1      29.735  28.507   8.075  1.00  0.00     0.184 HD
ENDBRANCH  14  15
ENDBRANCH  12  14
ENDBRANCH  10  12
ENDBRANCH   2  10
TORSDOF 6
ENDMDL