MODEL 3
REMARK VINA RESULT: -4.972468719      5.218      6.243
REMARK  5 active torsions:
REMARK  status: ('A' for Active; 'I' for Inactive)
REMARK    1  A    between atoms: C2_2  and  O1_4
REMARK    2  A    between atoms: C2_2  and  C4_6
REMARK    3  A    between atoms: C4_6  and  S1_9
REMARK    4  A    between atoms: S1_9  and  C7_10
REMARK    5  A    between atoms: C7_10  and  C8_11
ROOT
HETATM    1  S1  UNL     1      20.122  31.654   3.220  1.00  0.00    -0.155 SA
ENDROOT
BRANCH   1   2
HETATM    2  C4  UNL     1      20.209  32.003   1.469  1.00  0.00     0.031 C
HETATM    3  C5  UNL     1      21.300  33.049   1.266  1.00  0.00     0.030 C
HETATM    4  C6  UNL     1      20.563  30.802   0.653  1.00  0.00     0.030 C
BRANCH   2   5
HETATM    5  C2  UNL     1      18.852  32.570   1.081  1.00  0.00     0.067 C
HETATM    6  C1  UNL     1      17.727  32.030   1.875  1.00  0.00     0.047 C
HETATM    7  C3  UNL     1      18.661  32.333  -0.400  1.00  0.00     0.047 C
BRANCH   5   8
HETATM    8  O1  UNL     1      18.901  33.964   1.264  1.00  0.00    -0.389 OA
ATOM      9  H1  UNL     1      19.551  34.324   0.672  1.00  0.00     0.210 HD
ENDBRANCH   5   8
ENDBRANCH   2   5
ENDBRANCH   1   2
BRANCH   1  10
HETATM   10  C7  UNL     1      20.343  33.007   4.330  1.00  0.00     0.107 C
BRANCH  10  11
HETATM   11  C8  UNL     1      21.459  32.748   5.302  1.00  0.00     0.195 C
HETATM   12  C9  UNL     1      21.676  31.283   5.507  1.00  0.00     0.035 C
HETATM   13  C10 UNL     1      21.984  31.167   6.972  1.00  0.00     0.029 C
HETATM   14  C11 UNL     1      21.527  32.431   7.616  1.00  0.00     0.233 C
HETATM   15  N1  UNL     1      21.058  33.307   6.592  1.00  0.00    -0.070 N
ATOM     16  H12 UNL     1      21.372  34.269   6.719  1.00  0.00     0.277 HD
ATOM     17  H11 UNL     1      20.054  33.483   6.651  1.00  0.00     0.277 HD
ENDBRANCH  10  11
ENDBRANCH   1  10
TORSDOF 5
ENDMDL