MODEL 2
REMARK VINA RESULT: -6.555656164      3.500      7.530
REMARK  3 active torsions:
REMARK  status: ('A' for Active; 'I' for Inactive)
REMARK    1  A    between atoms: N1_4  and  N2_6
REMARK    2  A    between atoms: C4_8  and  C5_9
REMARK    3  A    between atoms: C6_10  and  C7_11
ROOT
HETATM    1  C5  UNL     1      28.630  28.500   7.205  1.00  0.00     0.021 C
HETATM    2  C6  UNL     1      27.482  28.918   6.816  1.00  0.00     0.032 C
ENDROOT
BRANCH   1   3
HETATM    3  C4  UNL     1      29.095  28.173   8.521  1.00  0.00     0.107 C
HETATM    4  N2  UNL     1      30.312  27.652   8.620  1.00  0.00    -0.312 N
ATOM      5  H2  UNL     1      30.692  27.400   9.533  1.00  0.00     0.186 HD
BRANCH   4   6
HETATM    6  N1  UNL     1      31.061  27.452   7.472  1.00  0.00    -0.310 N
HETATM    7  C2  UNL     1      31.563  26.314   7.230  1.00  0.00    -0.004 C
HETATM    8  C1  UNL     1      31.351  25.191   8.178  1.00  0.00     0.064 C
HETATM    9  C3  UNL     1      32.374  26.078   6.002  1.00  0.00     0.064 C
ATOM     10  H1  UNL     1      31.209  28.222   6.821  1.00  0.00     0.186 HD
ENDBRANCH   4   6
ENDBRANCH   1   3
BRANCH   2  11
HETATM   11  C7  UNL     1      26.264  29.210   7.519  1.00  0.00     0.049 A
HETATM   12  C8  UNL     1      25.976  29.241   8.848  1.00  0.00     0.120 A
HETATM   13  N3  UNL     1      24.653  29.579   8.954  1.00  0.00    -0.341 N
HETATM   14  C9  UNL     1      24.112  29.757   7.754  1.00  0.00     0.176 A
ATOM     15  H3  UNL     1      24.150  29.680   9.836  1.00  0.00     0.167 HD
HETATM   16  S1  UNL     1      22.546  30.172   7.426  1.00  0.00    -0.041 SA
HETATM   17  N4  UNL     1      25.092  29.533   6.876  1.00  0.00    -0.332 N
ATOM     18  H4  UNL     1      24.986  29.592   5.864  1.00  0.00     0.168 HD
ENDBRANCH   2  11
TORSDOF 3
ENDMDL