MODEL 2
REMARK VINA RESULT: -5.772631559      1.623      7.027
REMARK  5 active torsions:
REMARK  status: ('A' for Active; 'I' for Inactive)
REMARK    1  A    between atoms: C2_2  and  C3_3
REMARK    2  A    between atoms: C3_3  and  C9_16
REMARK    3  A    between atoms: N1_4  and  N2_6
REMARK       I    between atoms: N2_6  and  C4_8
REMARK       I    between atoms: C4_8  and  N3_10
REMARK    4  A    between atoms: N3_10  and  O2_11
REMARK    5  A    between atoms: O2_11  and  C5_12
ROOT
HETATM    1  N2  UNL     1      25.491  28.647   6.518  1.00  0.00    -0.238 N
ATOM      2  H2  UNL     1      25.900  27.919   5.931  1.00  0.00     0.193 HD
HETATM    3  C4  UNL     1      26.322  29.080   7.555  1.00  0.00     0.437 C
HETATM    4  O1  UNL     1      25.858  30.004   8.341  1.00  0.00    -0.226 OA
HETATM    5  N3  UNL     1      27.641  28.599   7.806  1.00  0.00    -0.215 NA
ENDROOT
BRANCH   1   6
HETATM    6  N1  UNL     1      24.276  29.010   6.163  1.00  0.00    -0.304 N
HETATM    7  C3  UNL     1      23.470  28.902   5.245  1.00  0.00     0.007 C
ATOM      8  H1  UNL     1      23.864  29.574   6.906  1.00  0.00     0.186 HD
BRANCH   7   9
HETATM    9  C2  UNL     1      23.745  28.141   3.977  1.00  0.00     0.050 C
HETATM   10  C1  UNL     1      23.144  26.723   3.988  1.00  0.00     0.011 C
ENDBRANCH   7   9
BRANCH   7  11
HETATM   11  C9  UNL     1      22.096  29.518   5.383  1.00  0.00     0.025 C
HETATM   12  C10 UNL     1      22.116  30.509   6.509  1.00  0.00     0.016 C
HETATM   13  C11 UNL     1      21.539  30.044   4.137  1.00  0.00     0.016 C
ENDBRANCH   7  11
ENDBRANCH   1   6
BRANCH   5  14
HETATM   14  O2  UNL     1      28.732  28.212   8.023  1.00  0.00    -0.194 OA
BRANCH  14  15
HETATM   15  C5  UNL     1      29.930  27.860   8.062  1.00  0.00     0.092 C
HETATM   16  C6  UNL     1      30.463  26.514   8.537  1.00  0.00     0.049 C
HETATM   17  C7  UNL     1      30.707  28.057   6.728  1.00  0.00     0.049 C
HETATM   18  C8  UNL     1      30.651  28.836   9.087  1.00  0.00     0.049 C
ENDBRANCH  14  15
ENDBRANCH   5  14
TORSDOF 5
ENDMDL