MODEL 3
REMARK VINA RESULT: -7.916005901      1.130      1.852
REMARK  3 active torsions:
REMARK  status: ('A' for Active; 'I' for Inactive)
REMARK    1  A    between atoms: C4_7  and  C5_8
REMARK    2  A    between atoms: C5_8  and  C6_9
REMARK    3  A    between atoms: C6_9  and  C7_10
ROOT
HETATM    1  C5  UNL     1      22.017  31.918   6.564  1.00  0.00     0.016 C
ENDROOT
BRANCH   1   2
HETATM    2  C4  UNL     1      20.931  31.771   5.550  1.00  0.00     0.052 C
HETATM    3  C1  UNL     1      20.587  33.141   5.050  1.00  0.00     0.093 C
HETATM    4  N1  UNL     1      20.547  34.324   5.892  1.00  0.00    -0.087 NA
HETATM    5  N2  UNL     1      20.340  33.078   3.811  1.00  0.00    -0.382 N
HETATM    6  C2  UNL     1      20.463  31.766   3.251  1.00  0.00     0.121 C
ATOM      7  H2  UNL     1      20.075  33.893   3.257  1.00  0.00     0.160 HD
HETATM    8  C3  UNL     1      21.255  31.002   4.330  1.00  0.00     0.031 C
ENDBRANCH   1   2
BRANCH   1   9
HETATM    9  C6  UNL     1      22.472  30.722   7.300  1.00  0.00     0.028 C
BRANCH   9  10
HETATM   10  C7  UNL     1      23.480  29.961   6.548  1.00  0.00    -0.024 C
HETATM   11  C8  UNL     1      24.558  29.372   7.011  1.00  0.00    -0.084 C
HETATM   12  C9  UNL     1      24.951  29.383   8.447  1.00  0.00     0.034 C
HETATM   13  C13 UNL     1      25.438  28.648   6.035  1.00  0.00     0.034 C
HETATM   14  C10 UNL     1      26.398  29.906   8.469  1.00  0.00     0.004 C
HETATM   15  C11 UNL     1      27.225  28.843   7.779  1.00  0.00     0.001 C
HETATM   16  C12 UNL     1      26.897  28.925   6.305  1.00  0.00     0.004 C
ENDBRANCH   9  10
ENDBRANCH   1   9
TORSDOF 3
ENDMDL