MODEL 3
REMARK VINA RESULT: -5.614822800      1.345      1.967
REMARK  4 active torsions:
REMARK  status: ('A' for Active; 'I' for Inactive)
REMARK    1  A    between atoms: C3_5  and  N2_6
REMARK    2  A    between atoms: C4_10  and  S2_11
REMARK    3  A    between atoms: S2_11  and  C5_12
REMARK    4  A    between atoms: C5_12  and  C7_14
ROOT
HETATM    1  C1  UNL     1      21.692  32.249   7.445  1.00  0.00     0.070 C
HETATM    2  C2  UNL     1      21.393  31.991   5.981  1.00  0.00     0.031 A
HETATM    3  N1  UNL     1      20.883  32.902   5.193  1.00  0.00    -0.339 N
ATOM      4  H1  UNL     1      20.663  33.834   5.544  1.00  0.00     0.168 HD
HETATM    5  C3  UNL     1      20.657  32.581   3.921  1.00  0.00     0.143 A
HETATM    6  S1  UNL     1      21.171  30.965   3.821  1.00  0.00    -0.045 SA
HETATM    7  C4  UNL     1      21.663  30.762   5.447  1.00  0.00     0.067 A
ENDROOT
BRANCH   7   8
HETATM    8  S2  UNL     1      22.346  29.309   6.270  1.00  0.00    -0.116 SA
BRANCH   8   9
HETATM    9  C5  UNL     1      24.109  29.591   6.547  1.00  0.00     0.053 C
HETATM   10  C6  UNL     1      24.380  29.814   8.005  1.00  0.00     0.022 C
BRANCH   9  11
HETATM   11  C7  UNL     1      24.875  28.477   5.927  1.00  0.00    -0.001 A
HETATM   12  C8  UNL     1      25.130  28.401   4.468  1.00  0.00     0.006 A
HETATM   13  C9  UNL     1      26.244  28.672   5.437  1.00  0.00     0.006 A
ENDBRANCH   9  11
ENDBRANCH   8   9
ENDBRANCH   7   8
BRANCH   5  14
HETATM   14  N2  UNL     1      20.159  33.328   2.973  1.00  0.00    -0.380 N
ATOM     15  H22 UNL     1      19.190  33.385   2.661  1.00  0.00     0.158 HD
ATOM     16  H21 UNL     1      20.644  33.993   2.370  1.00  0.00     0.158 HD
ENDBRANCH   5  14
TORSDOF 4
ENDMDL