MODEL 5
REMARK VINA RESULT: -5.650941162      1.386      3.546
REMARK  5 active torsions:
REMARK  status: ('A' for Active; 'I' for Inactive)
REMARK    1  A    between atoms: O1_2  and  C2_3
REMARK    2  A    between atoms: C6_10  and  N3_11
REMARK    3  A    between atoms: N3_11  and  O2_13
REMARK    4  A    between atoms: C7_15  and  C8_16
REMARK    5  A    between atoms: C8_16  and  N4_17
ROOT
HETATM    1  C2  UNL     1      30.866  20.666  -2.797  1.00  0.00     0.107 A
HETATM    2  C3  UNL     1      32.072  20.369  -3.361  1.00  0.00     0.104 A
HETATM    3  N1  UNL     1      33.125  19.775  -2.627  1.00  0.00    -0.098 NA
HETATM    4  C4  UNL     1      32.299  20.648  -4.692  1.00  0.00     0.087 A
HETATM    5 CL1  UNL     1      33.871  20.259  -5.419  1.00  0.00    -0.080 Cl
HETATM    6  C5  UNL     1      31.301  21.218  -5.420  1.00  0.00     0.099 A
HETATM    7  N2  UNL     1      31.513  21.511  -6.782  1.00  0.00    -0.098 NA
HETATM    8  C6  UNL     1      30.077  21.512  -4.820  1.00  0.00     0.094 A
HETATM    9  C7  UNL     1      29.812  21.256  -3.512  1.00  0.00     0.040 A
ENDROOT
BRANCH   9  10
HETATM   10  C8  UNL     1      28.575  21.464  -2.784  1.00  0.00     0.076 C
BRANCH  10  11
HETATM   11  N4  UNL     1      27.680  22.490  -3.127  1.00  0.00    -0.288 NA
HETATM   12  C9  UNL     1      27.978  23.809  -2.606  1.00  0.00     0.095 C
HETATM   13  C10 UNL     1      26.984  23.988  -1.455  1.00  0.00     0.016 C
HETATM   14  C11 UNL     1      25.754  23.349  -2.075  1.00  0.00     0.021 C
HETATM   15  C12 UNL     1      26.323  22.183  -2.833  1.00  0.00     0.058 C
HETATM   16  C13 UNL     1      26.121  20.947  -1.983  1.00  0.00     0.026 C
ENDBRANCH  10  11
ENDBRANCH   9  10
BRANCH   1  17
HETATM   17  O1  UNL     1      30.690  20.368  -1.464  1.00  0.00    -0.353 OA
HETATM   18  C1  UNL     1      31.087  21.288  -0.482  1.00  0.00     0.210 C
ENDBRANCH   1  17
BRANCH   8  19
HETATM   19  N3  UNL     1      29.064  22.063  -5.665  1.00  0.00    -0.267 N
ATOM     20  H3  UNL     1      28.326  21.482  -6.064  1.00  0.00     0.194 HD
BRANCH  19  21
HETATM   21  O2  UNL     1      29.127  23.291  -5.892  1.00  0.00    -0.289 OA
ATOM     22  H2  UNL     1      28.492  23.646  -6.503  1.00  0.00     0.244 HD
ENDBRANCH  19  21
ENDBRANCH   8  19
TORSDOF 5
ENDMDL