MODEL 3
REMARK VINA RESULT: -6.774778156      4.262      5.125
REMARK  5 active torsions:
REMARK  status: ('A' for Active; 'I' for Inactive)
REMARK       I    between atoms: C1_2  and  N1_3
REMARK    1  A    between atoms: C1_2  and  C7_11
REMARK    2  A    between atoms: N1_3  and  N2_5
REMARK    3  A    between atoms: C10_15  and  N3_16
REMARK    4  A    between atoms: N4_18  and  N5_20
REMARK    5  A    between atoms: N5_20  and  O2_22
ROOT
HETATM    1  C7  UNL     1      30.823  20.888  -3.693  1.00  0.00     0.078 A
HETATM    2  C8  UNL     1      30.713  21.296  -4.989  1.00  0.00     0.051 A
HETATM    3  C9  UNL     1      31.793  21.193  -5.771  1.00  0.00     0.070 A
HETATM    4 CL1  UNL     1      31.829  21.682  -7.487  1.00  0.00    -0.081 Cl
HETATM    5  C10 UNL     1      32.930  20.684  -5.201  1.00  0.00     0.112 A
HETATM    6  S1  UNL     1      32.447  20.369  -3.597  1.00  0.00    -0.064 SA
ENDROOT
BRANCH   1   7
HETATM    7  C1  UNL     1      29.808  20.890  -2.627  1.00  0.00     0.276 C
HETATM    8  O1  UNL     1      29.975  20.073  -1.685  1.00  0.00    -0.265 OA
HETATM    9  N1  UNL     1      28.708  21.751  -2.645  1.00  0.00    -0.268 N
ATOM     10  H1  UNL     1      28.624  22.393  -3.433  1.00  0.00     0.190 HD
BRANCH   9  11
HETATM   11  N2  UNL     1      27.734  21.796  -1.683  1.00  0.00    -0.325 N
HETATM   12  C2  UNL     1      27.885  22.798  -0.694  1.00  0.00     0.142 C
HETATM   13  C3  UNL     1      27.050  24.033  -0.933  1.00  0.00     0.021 C
HETATM   14  C4  UNL     1      25.613  23.685  -1.258  1.00  0.00     0.003 C
HETATM   15  C5  UNL     1      25.678  22.798  -2.493  1.00  0.00     0.021 C
HETATM   16  C6  UNL     1      26.401  21.539  -2.093  1.00  0.00     0.142 C
ENDBRANCH   9  11
ENDBRANCH   1   7
BRANCH   5  17
HETATM   17  N3  UNL     1      34.230  20.448  -5.761  1.00  0.00    -0.276 N
HETATM   18  N4  UNL     1      34.359  20.439  -6.997  1.00  0.00    -0.222 N
ATOM     19  H4  UNL     1      33.519  20.604  -7.552  1.00  0.00     0.210 HD
ATOM     20  H3  UNL     1      35.036  20.290  -5.155  1.00  0.00     0.189 HD
BRANCH  18  21
HETATM   21  N5  UNL     1      35.530  20.228  -7.685  1.00  0.00    -0.196 N
ATOM     22  H5  UNL     1      35.487  19.870  -8.639  1.00  0.00     0.217 HD
BRANCH  21  23
HETATM   23  O2  UNL     1      36.730  20.481  -7.137  1.00  0.00    -0.273 OA
ATOM     24  H2  UNL     1      37.426  20.904  -7.625  1.00  0.00     0.246 HD
ENDBRANCH  21  23
ENDBRANCH  18  21
ENDBRANCH   5  17
TORSDOF 5
ENDMDL