MODEL 3
REMARK VINA RESULT: -7.078932695      3.485      4.366
REMARK  5 active torsions:
REMARK  status: ('A' for Active; 'I' for Inactive)
REMARK    1  A    between atoms: C2_2  and  O1_3
REMARK    2  A    between atoms: O1_3  and  C3_4
REMARK    3  A    between atoms: C3_4  and  C4_6
REMARK    4  A    between atoms: C6_10  and  N2_11
REMARK       I    between atoms: N2_11  and  C7_13
REMARK    5  A    between atoms: C7_13  and  C8_15
ROOT
HETATM    1  C4  UNL     1      29.138  25.883  -6.972  1.00  0.00     0.079 A
HETATM    2  C5  UNL     1      29.315  24.579  -7.400  1.00  0.00     0.105 A
HETATM    3  N1  UNL     1      29.691  24.127  -8.724  1.00  0.00    -0.093 NA
HETATM    4  S1  UNL     1      28.992  23.662  -6.025  1.00  0.00    -0.056 SA
HETATM    5  C6  UNL     1      28.625  24.954  -4.890  1.00  0.00     0.085 A
HETATM    6  C11 UNL     1      28.785  26.054  -5.670  1.00  0.00    -0.009 A
HETATM    7  C12 UNL     1      28.639  27.444  -5.036  1.00  0.00     0.052 C
ENDROOT
BRANCH   5   8
HETATM    8  N2  UNL     1      28.273  24.695  -3.531  1.00  0.00    -0.318 N
HETATM    9  C7  UNL     1      27.372  23.927  -2.866  1.00  0.00     0.261 C
HETATM   10  O3  UNL     1      26.505  23.134  -3.251  1.00  0.00    -0.269 OA
ATOM     11  H2  UNL     1      28.854  25.232  -2.886  1.00  0.00     0.169 HD
BRANCH   9  12
HETATM   12  C8  UNL     1      27.406  24.039  -1.331  1.00  0.00     0.176 C
HETATM   13  C9  UNL     1      27.626  25.504  -1.054  1.00  0.00     0.062 C
HETATM   14  C10 UNL     1      26.180  23.460  -0.730  1.00  0.00     0.062 C
HETATM   15  F1  UNL     1      28.519  23.366  -0.854  1.00  0.00    -0.233 F
ENDBRANCH   9  12
ENDBRANCH   5   8
BRANCH   1  16
HETATM   16  C3  UNL     1      29.317  26.975  -7.972  1.00  0.00     0.296 C
HETATM   17  O2  UNL     1      30.448  27.171  -8.510  1.00  0.00    -0.259 OA
BRANCH  16  18
HETATM   18  O1  UNL     1      28.351  27.840  -8.405  1.00  0.00    -0.318 OA
BRANCH  18  19
HETATM   19  C2  UNL     1      28.262  29.190  -8.064  1.00  0.00     0.174 C
HETATM   20  C1  UNL     1      27.459  30.003  -9.059  1.00  0.00     0.034 C
ENDBRANCH  18  19
ENDBRANCH  16  18
ENDBRANCH   1  16
TORSDOF 5
ENDMDL