MODEL 4
REMARK VINA RESULT: -5.867554160      2.352      2.943
REMARK  5 active torsions:
REMARK  status: ('A' for Active; 'I' for Inactive)
REMARK    1  A    between atoms: C3_5  and  N2_6
REMARK    2  A    between atoms: N2_6  and  N3_8
REMARK       I    between atoms: N3_8  and  C5_10
REMARK    3  A    between atoms: C5_10  and  C6_12
REMARK    4  A    between atoms: C7_14  and  N4_15
REMARK    5  A    between atoms: N4_15  and  O2_17
ROOT
HETATM    1  C1  UNL     1      29.061  22.303  -5.613  1.00  0.00     0.070 C
HETATM    2  C2  UNL     1      30.153  21.532  -4.943  1.00  0.00     0.029 A
HETATM    3  N1  UNL     1      29.989  21.066  -3.688  1.00  0.00    -0.342 N
ATOM      4  H1  UNL     1      29.108  21.244  -3.207  1.00  0.00     0.167 HD
HETATM    5  C3  UNL     1      30.958  20.367  -3.042  1.00  0.00     0.153 A
HETATM    6  C7  UNL     1      32.149  20.121  -3.682  1.00  0.00     0.122 A
HETATM    7  C8  UNL     1      32.380  20.578  -4.987  1.00  0.00     0.086 A
HETATM    8  S1  UNL     1      33.796  20.270  -5.722  1.00  0.00    -0.076 SA
HETATM    9  C9  UNL     1      31.348  21.285  -5.586  1.00  0.00     0.090 A
HETATM   10  C10 UNL     1      31.526  21.775  -6.907  1.00  0.00     0.103 C
HETATM   11  N5  UNL     1      31.680  22.164  -8.007  1.00  0.00    -0.191 NA
ENDROOT
BRANCH   6  12
HETATM   12  N4  UNL     1      33.144  19.391  -2.983  1.00  0.00    -0.264 N
ATOM     13  H4  UNL     1      33.739  19.858  -2.300  1.00  0.00     0.194 HD
BRANCH  12  14
HETATM   14  O2  UNL     1      33.283  18.173  -3.212  1.00  0.00    -0.289 OA
ATOM     15  H2  UNL     1      33.809  17.896  -3.952  1.00  0.00     0.244 HD
ENDBRANCH  12  14
ENDBRANCH   6  12
BRANCH   5  16
HETATM   16  N2  UNL     1      30.754  19.884  -1.741  1.00  0.00    -0.277 N
HETATM   17  C4  UNL     1      31.393  20.391  -0.554  1.00  0.00     0.179 C
BRANCH  16  18
HETATM   18  N3  UNL     1      29.856  18.820  -1.584  1.00  0.00    -0.266 N
HETATM   19  C5  UNL     1      30.361  17.528  -1.342  1.00  0.00     0.249 C
HETATM   20  O1  UNL     1      31.608  17.336  -1.263  1.00  0.00    -0.271 OA
ATOM     21  H3  UNL     1      28.850  18.980  -1.644  1.00  0.00     0.190 HD
BRANCH  19  22
HETATM   22  C6  UNL     1      29.426  16.384  -1.180  1.00  0.00     0.219 C
HETATM   23 CL1  UNL     1      29.396  15.428  -2.660  1.00  0.00    -0.121 Cl
ENDBRANCH  19  22
ENDBRANCH  16  18
ENDBRANCH   5  16
TORSDOF 5
ENDMDL