MODEL 2
REMARK VINA RESULT: -5.676126496      1.106      2.470
REMARK  7 active torsions:
REMARK  status: ('A' for Active; 'I' for Inactive)
REMARK    1  A    between atoms: C2_2  and  C3_3
REMARK    2  A    between atoms: C3_3  and  O1_4
REMARK    3  A    between atoms: C3_3  and  N1_6
REMARK    4  A    between atoms: N1_6  and  C4_7
REMARK    5  A    between atoms: N1_6  and  C10_18
REMARK    6  A    between atoms: C5_9  and  O3_10
REMARK    7  A    between atoms: C6_12  and  C7_13
ROOT
HETATM    1  C4  UNL     1      32.728  20.244  -3.700  1.00  0.00     0.174 A
HETATM    2  O2  UNL     1      33.859  20.044  -4.374  1.00  0.00    -0.268 OA
HETATM    3  C5  UNL     1      33.737  20.423  -5.621  1.00  0.00     0.201 A
HETATM    4  C6  UNL     1      32.447  20.902  -5.771  1.00  0.00     0.093 A
HETATM    5  C9  UNL     1      31.811  20.789  -4.559  1.00  0.00     0.104 A
HETATM    6 CL1  UNL     1      30.169  21.252  -4.211  1.00  0.00    -0.079 Cl
ENDROOT
BRANCH   1   7
HETATM    7  N1  UNL     1      32.560  19.921  -2.298  1.00  0.00    -0.325 N
BRANCH   7   8
HETATM    8  C3  UNL     1      32.618  20.979  -1.367  1.00  0.00     0.222 C
BRANCH   8   9
HETATM    9  C2  UNL     1      31.874  20.944  -0.102  1.00  0.00     0.049 C
HETATM   10  C1  UNL     1      30.567  21.660  -0.034  1.00  0.00     0.009 C
ENDBRANCH   8   9
BRANCH   8  11
HETATM   11  O1  UNL     1      34.003  21.055  -0.986  1.00  0.00    -0.377 OA
ATOM     12  H1  UNL     1      34.089  21.881  -0.527  1.00  0.00     0.212 HD
ENDBRANCH   8  11
ENDBRANCH   7   8
BRANCH   7  13
HETATM   13  C10 UNL     1      32.350  18.556  -2.008  1.00  0.00     0.026 C
HETATM   14  C11 UNL     1      32.951  17.944  -0.802  1.00  0.00     0.037 C
HETATM   15  C12 UNL     1      32.648  17.672  -3.246  1.00  0.00     0.037 C
HETATM   16  C13 UNL     1      30.811  18.375  -1.816  1.00  0.00     0.037 C
ENDBRANCH   7  13
ENDBRANCH   1   7
BRANCH   3  17
HETATM   17  O3  UNL     1      34.693  20.372  -6.628  1.00  0.00    -0.340 OA
ATOM     18  H3  UNL     1      34.818  19.693  -7.281  1.00  0.00     0.220 HD
ENDBRANCH   3  17
BRANCH   4  19
HETATM   19  C7  UNL     1      31.838  21.433  -6.970  1.00  0.00     0.162 C
HETATM   20  C8  UNL     1      30.678  22.354  -6.842  1.00  0.00     0.097 C
HETATM   21  O4  UNL     1      32.233  21.161  -8.130  1.00  0.00    -0.293 OA
ENDBRANCH   4  19
TORSDOF 7
ENDMDL