MODEL 3
REMARK VINA RESULT: -7.837109201      0.768      1.069
REMARK  7 active torsions:
REMARK  status: ('A' for Active; 'I' for Inactive)
REMARK    1  A    between atoms: O1_2  and  C2_3
REMARK    2  A    between atoms: C2_3  and  C3_5
REMARK    3  A    between atoms: C3_5  and  N1_6
REMARK    4  A    between atoms: C4_7  and  O3_8
REMARK    5  A    between atoms: C6_11  and  C7_12
REMARK    6  A    between atoms: C8_13  and  C9_15
REMARK    7  A    between atoms: C14_20  and  O4_21
ROOT
HETATM    1  N1  UNL     1      29.318  23.352  -6.362  1.00  0.00    -0.298 N
HETATM    2  C4  UNL     1      28.712  23.899  -5.273  1.00  0.00     0.145 A
HETATM    3  C5  UNL     1      28.535  25.243  -5.516  1.00  0.00     0.072 A
HETATM    4  C6  UNL     1      29.033  25.534  -6.767  1.00  0.00     0.020 A
HETATM    5  C14 UNL     1      29.515  24.319  -7.264  1.00  0.00     0.155 A
ENDROOT
BRANCH   4   6
HETATM    6  C7  UNL     1      29.034  26.843  -7.394  1.00  0.00     0.035 C
HETATM    7  C8  UNL     1      28.993  27.961  -6.725  1.00  0.00     0.017 C
HETATM    8 CL1  UNL     1      28.936  27.981  -4.966  1.00  0.00    -0.088 Cl
BRANCH   7   9
HETATM    9  C9  UNL     1      28.979  29.282  -7.443  1.00  0.00     0.030 C
HETATM   10  C10 UNL     1      28.418  30.314  -6.505  1.00  0.00     0.010 C
HETATM   11  C11 UNL     1      27.082  30.663  -7.099  1.00  0.00     0.001 C
HETATM   12  C12 UNL     1      27.359  30.566  -8.585  1.00  0.00     0.001 C
HETATM   13  C13 UNL     1      28.063  29.203  -8.635  1.00  0.00     0.010 C
ENDBRANCH   7   9
ENDBRANCH   4   6
BRANCH   5  14
HETATM   14  O4  UNL     1      30.098  24.215  -8.515  1.00  0.00    -0.345 OA
ATOM     15  H4  UNL     1      29.695  24.358  -9.363  1.00  0.00     0.219 HD
ENDBRANCH   5  14
BRANCH   2  16
HETATM   16  O3  UNL     1      28.359  23.162  -4.134  1.00  0.00    -0.346 OA
ATOM     17  H3  UNL     1      28.157  23.560  -3.296  1.00  0.00     0.219 HD
ENDBRANCH   2  16
BRANCH   1  18
HETATM   18  C3  UNL     1      29.659  21.960  -6.482  1.00  0.00     0.244 C
BRANCH  18  19
HETATM   19  C2  UNL     1      30.797  21.538  -5.658  1.00  0.00     0.276 C
HETATM   20  O2  UNL     1      30.687  21.179  -4.459  1.00  0.00    -0.263 OA
BRANCH  19  21
HETATM   21  O1  UNL     1      32.046  21.535  -6.233  1.00  0.00    -0.325 OA
HETATM   22  C1  UNL     1      32.201  21.469  -7.637  1.00  0.00     0.213 C
ENDBRANCH  19  21
ENDBRANCH  18  19
ENDBRANCH   1  18
TORSDOF 7
ENDMDL