MODEL 1
REMARK VINA RESULT: -7.502982232      0.000      0.000
REMARK  6 active torsions:
REMARK  status: ('A' for Active; 'I' for Inactive)
REMARK    1  A    between atoms: C2_2  and  C3_3
REMARK    2  A    between atoms: C3_3  and  C4_4
REMARK    3  A    between atoms: C4_4  and  C5_5
REMARK    4  A    between atoms: C6_10  and  N3_11
REMARK    5  A    between atoms: N3_11  and  N4_13
REMARK    6  A    between atoms: N4_13  and  C7_15
ROOT
HETATM    1  C5  UNL     1      28.976  26.925  -7.619  1.00  0.00     0.065 A
HETATM    2  N1  UNL     1      29.266  26.357  -8.823  1.00  0.00    -0.287 N
ATOM      3  H1  UNL     1      29.229  26.947  -9.654  1.00  0.00     0.187 HD
HETATM    4  N2  UNL     1      29.591  25.087  -8.975  1.00  0.00    -0.130 N
ATOM      5  H2  UNL     1      29.798  24.714  -9.901  1.00  0.00     0.205 HD
HETATM    6  C6  UNL     1      29.645  24.291  -7.894  1.00  0.00     0.712 A
HETATM    7  N5  UNL     1      29.368  24.818  -6.703  1.00  0.00    -0.177 N
ATOM      8  H5  UNL     1      29.413  24.209  -5.886  1.00  0.00     0.185 HD
HETATM    9  C10 UNL     1      29.030  26.121  -6.513  1.00  0.00     0.140 A
HETATM   10  S2  UNL     1      28.666  26.618  -4.994  1.00  0.00    -0.058 SA
ENDROOT
BRANCH   6  11
HETATM   11  N3  UNL     1      29.961  23.051  -8.072  1.00  0.00    -0.128 N
ATOM     12  H3  UNL     1      30.326  22.756  -8.978  1.00  0.00     0.205 HD
BRANCH  11  13
HETATM   13  N4  UNL     1      29.815  22.103  -7.054  1.00  0.00    -0.259 N
ATOM     14  H4  UNL     1      28.900  21.792  -6.729  1.00  0.00     0.190 HD
BRANCH  13  15
HETATM   15  C7  UNL     1      30.935  21.636  -6.540  1.00  0.00     0.207 A
HETATM   16  O1  UNL     1      31.142  21.267  -5.321  1.00  0.00    -0.274 OA
HETATM   17  C8  UNL     1      32.256  20.839  -4.944  1.00  0.00     0.154 A
HETATM   18 CL1  UNL     1      32.556  20.329  -3.262  1.00  0.00    -0.056 Cl
HETATM   19  C9  UNL     1      33.273  20.766  -5.868  1.00  0.00     0.104 A
HETATM   20  S1  UNL     1      32.455  21.360  -7.260  1.00  0.00    -0.053 SA
ENDBRANCH  13  15
ENDBRANCH  11  13
ENDBRANCH   6  11
BRANCH   1  21
HETATM   21  C4  UNL     1      28.666  28.361  -7.493  1.00  0.00     0.062 C
BRANCH  21  22
HETATM   22  C3  UNL     1      28.211  29.073  -8.701  1.00  0.00     0.006 C
BRANCH  22  23
HETATM   23  C2  UNL     1      27.453  30.332  -8.557  1.00  0.00    -0.004 C
HETATM   24  C1  UNL     1      26.547  30.452  -9.805  1.00  0.00     0.005 C
ENDBRANCH  22  23
ENDBRANCH  21  22
ENDBRANCH   1  21
TORSDOF 6
ENDMDL