MODEL 1
REMARK VINA RESULT: -5.890027442      0.000      0.000
REMARK  7 active torsions:
REMARK  status: ('A' for Active; 'I' for Inactive)
REMARK    1  A    between atoms: C2_2  and  C3_3
REMARK    2  A    between atoms: C3_3  and  N1_4
REMARK    3  A    between atoms: C4_5  and  O1_6
REMARK    4  A    between atoms: C5_8  and  C6_9
REMARK    5  A    between atoms: C10_14  and  N2_15
REMARK    6  A    between atoms: N2_15  and  N3_17
REMARK    7  A    between atoms: C11_19  and  C13_21
ROOT
HETATM    1  N1  UNL     1      29.321  21.829  -4.711  1.00  0.00    -0.303 N
HETATM    2  C4  UNL     1      30.144  21.140  -3.933  1.00  0.00     0.158 A
HETATM    3  C5  UNL     1      31.367  20.812  -4.417  1.00  0.00     0.045 A
HETATM    4  S1  UNL     1      31.339  21.482  -5.964  1.00  0.00    -0.052 SA
HETATM    5  C10 UNL     1      29.716  22.171  -5.922  1.00  0.00     0.168 A
ENDROOT
BRANCH   5   6
HETATM    6  N2  UNL     1      29.201  22.792  -6.923  1.00  0.00    -0.280 N
ATOM      7  H2  UNL     1      28.337  22.374  -7.269  1.00  0.00     0.189 HD
BRANCH   6   8
HETATM    8  N3  UNL     1      29.582  23.870  -7.591  1.00  0.00    -0.306 N
HETATM    9  C11 UNL     1      29.403  25.107  -7.339  1.00  0.00     0.013 C
HETATM   10  C12 UNL     1      28.672  25.553  -6.148  1.00  0.00     0.066 C
ATOM     11  H3  UNL     1      30.103  23.680  -8.447  1.00  0.00     0.186 HD
BRANCH   9  12
HETATM   12  C13 UNL     1      29.944  26.132  -8.268  1.00  0.00     0.168 C
HETATM   13 CL1  UNL     1      28.830  27.537  -8.364  1.00  0.00    -0.124 Cl
ENDBRANCH   9  12
ENDBRANCH   6   8
ENDBRANCH   5   6
BRANCH   1  14
HETATM   14  C3  UNL     1      27.956  22.198  -4.206  1.00  0.00     0.160 C
BRANCH  14  15
HETATM   15  C2  UNL     1      27.972  23.539  -3.597  1.00  0.00    -0.017 C
HETATM   16  C1  UNL     1      27.926  23.772  -2.307  1.00  0.00     0.008 C
ENDBRANCH  14  15
ENDBRANCH   1  14
BRANCH   2  17
HETATM   17  O1  UNL     1      29.795  20.728  -2.607  1.00  0.00    -0.345 OA
ATOM     18  H1  UNL     1      30.259  21.030  -1.836  1.00  0.00     0.219 HD
ENDBRANCH   2  17
BRANCH   3  19
HETATM   19  C6  UNL     1      32.492  20.058  -3.799  1.00  0.00    -0.013 C
HETATM   20  C7  UNL     1      33.611  19.930  -4.819  1.00  0.00     0.020 C
HETATM   21  C8  UNL     1      32.068  18.652  -3.432  1.00  0.00     0.020 C
HETATM   22  C9  UNL     1      33.052  20.716  -2.587  1.00  0.00     0.020 C
ENDBRANCH   3  19
TORSDOF 7
ENDMDL