MODEL 1
REMARK VINA RESULT: -7.076532737      0.000      0.000
REMARK  10 active torsions:
REMARK  status: ('A' for Active; 'I' for Inactive)
REMARK    1  A    between atoms: C2_2  and  C3_3
REMARK    2  A    between atoms: C3_3  and  C4_4
REMARK    3  A    between atoms: C4_4  and  C5_5
REMARK    4  A    between atoms: C5_5  and  C6_6
REMARK    5  A    between atoms: C6_6  and  C7_8
REMARK    6  A    between atoms: C10_12  and  N2_13
REMARK    7  A    between atoms: C11_18  and  N4_19
REMARK    8  A    between atoms: N4_19  and  N5_21
REMARK    9  A    between atoms: N5_21  and  C12_23
REMARK   10  A    between atoms: C12_23  and  N6_25
ROOT
HETATM    1  N6  UNL     1      32.921  29.076   2.581  1.00  0.00    -0.269 N
ATOM      2  H6  UNL     1      33.238  28.649   1.711  1.00  0.00     0.180 HD
HETATM    3  C13 UNL     1      33.507  30.278   2.990  1.00  0.00     0.184 C
HETATM    4  N7  UNL     1      33.978  31.283   3.325  1.00  0.00    -0.172 NA
ENDROOT
BRANCH   1   5
HETATM    5  C12 UNL     1      31.900  28.426   3.329  1.00  0.00     0.199 C
HETATM    6  S1  UNL     1      30.440  28.262   2.615  1.00  0.00    -0.038 SA
BRANCH   5   7
HETATM    7  N5  UNL     1      32.150  27.944   4.636  1.00  0.00    -0.274 N
ATOM      8  H5  UNL     1      33.032  27.459   4.803  1.00  0.00     0.189 HD
BRANCH   7   9
HETATM    9  N4  UNL     1      31.354  28.075   5.613  1.00  0.00    -0.282 N
ATOM     10  H4  UNL     1      30.694  28.849   5.683  1.00  0.00     0.188 HD
BRANCH   9  11
HETATM   11  C11 UNL     1      31.449  27.045   6.622  1.00  0.00     0.137 A
HETATM   12  C7  UNL     1      30.792  27.160   7.826  1.00  0.00     0.079 A
HETATM   13  C8  UNL     1      30.951  26.114   8.733  1.00  0.00     0.067 A
HETATM   14  N1  UNL     1      30.290  26.190   9.989  1.00  0.00    -0.101 NA
HETATM   15  C9  UNL     1      31.740  25.060   8.367  1.00  0.00     0.075 A
HETATM   16  C10 UNL     1      32.389  24.980   7.142  1.00  0.00     0.102 A
HETATM   17  N3  UNL     1      32.221  25.999   6.284  1.00  0.00    -0.327 N
ATOM     18  H3  UNL     1      32.680  25.978   5.373  1.00  0.00     0.169 HD
BRANCH  12  19
HETATM   19  C6  UNL     1      29.970  28.294   8.172  1.00  0.00     0.165 C
HETATM   20  O1  UNL     1      30.600  29.367   8.505  1.00  0.00    -0.292 OA
BRANCH  19  21
HETATM   21  C5  UNL     1      28.486  28.297   8.166  1.00  0.00     0.084 C
BRANCH  21  22
HETATM   22  C4  UNL     1      28.033  28.818   6.805  1.00  0.00     0.008 C
BRANCH  22  23
HETATM   23  C3  UNL     1      26.543  28.949   6.712  1.00  0.00     0.000 C
BRANCH  23  24
HETATM   24  C2  UNL     1      25.912  29.051   8.057  1.00  0.00    -0.005 C
HETATM   25  C1  UNL     1      24.432  29.440   7.929  1.00  0.00     0.005 C
ENDBRANCH  23  24
ENDBRANCH  22  23
ENDBRANCH  21  22
ENDBRANCH  19  21
ENDBRANCH  12  19
BRANCH  16  26
HETATM   26  N2  UNL     1      33.125  23.965   6.838  1.00  0.00    -0.385 N
ATOM     27  H22 UNL     1      34.039  24.087   6.402  1.00  0.00     0.157 HD
ATOM     28  H21 UNL     1      32.815  23.011   7.024  1.00  0.00     0.157 HD
ENDBRANCH  16  26
ENDBRANCH   9  11
ENDBRANCH   7   9
ENDBRANCH   5   7
ENDBRANCH   1   5
TORSDOF 10
ENDMDL