MODEL 2
REMARK VINA RESULT: -7.622234974      4.320      6.314
REMARK  8 active torsions:
REMARK  status: ('A' for Active; 'I' for Inactive)
REMARK    1  A    between atoms: C2_3  and  O1_4
REMARK    2  A    between atoms: C3_6  and  N2_7
REMARK    3  A    between atoms: N2_7  and  C4_9
REMARK    4  A    between atoms: C4_9  and  O2_10
REMARK    5  A    between atoms: C4_9  and  C5_12
REMARK    6  A    between atoms: C5_12  and  C6_13
REMARK    7  A    between atoms: C6_13  and  S1_14
REMARK    8  A    between atoms: S1_14  and  C7_15
ROOT
HETATM    1  N2  UNL     1      31.896  24.976   8.753  1.00  0.00    -0.346 N
ATOM      2  H2  UNL     1      32.350  24.679   9.617  1.00  0.00     0.163 HD
ENDROOT
BRANCH   1   3
HETATM    3  C3  UNL     1      32.444  24.604   7.496  1.00  0.00     0.157 A
HETATM    4  C2  UNL     1      33.789  24.430   7.188  1.00  0.00     0.189 A
HETATM    5  N1  UNL     1      33.917  24.078   5.914  1.00  0.00    -0.306 N
HETATM    6  C1  UNL     1      35.146  23.796   5.170  1.00  0.00     0.161 C
HETATM    7  C13 UNL     1      32.675  24.024   5.400  1.00  0.00     0.181 A
HETATM    8  N3  UNL     1      31.781  24.340   6.353  1.00  0.00    -0.316 N
HETATM    9  S2  UNL     1      32.343  23.628   3.849  1.00  0.00    -0.040 SA
ATOM     10  H3  UNL     1      30.768  24.375   6.231  1.00  0.00     0.170 HD
BRANCH   4  11
HETATM   11  O1  UNL     1      34.848  24.603   8.094  1.00  0.00    -0.343 OA
ATOM     12  H1  UNL     1      35.226  23.919   8.635  1.00  0.00     0.219 HD
ENDBRANCH   4  11
ENDBRANCH   1   3
BRANCH   1  13
HETATM   13  C4  UNL     1      30.689  25.783   8.804  1.00  0.00     0.219 C
BRANCH  13  14
HETATM   14  O2  UNL     1      30.349  25.970  10.141  1.00  0.00    -0.377 OA
ATOM     15  H2  UNL     1      30.807  25.316  10.657  1.00  0.00     0.212 HD
ENDBRANCH  13  14
BRANCH  13  16
HETATM   16  C5  UNL     1      30.945  27.139   8.123  1.00  0.00     0.064 C
BRANCH  16  17
HETATM   17  C6  UNL     1      29.663  27.918   8.191  1.00  0.00     0.078 C
BRANCH  17  18
HETATM   18  S1  UNL     1      29.053  28.581   6.674  1.00  0.00    -0.164 SA
BRANCH  18  19
HETATM   19  C7  UNL     1      27.445  29.387   6.717  1.00  0.00     0.047 C
HETATM   20  C8  UNL     1      27.056  29.485   8.176  1.00  0.00     0.015 C
HETATM   21  C9  UNL     1      25.790  28.739   8.484  1.00  0.00     0.001 C
HETATM   22  C10 UNL     1      24.730  29.337   7.549  1.00  0.00     0.000 C
HETATM   23  C11 UNL     1      25.029  28.799   6.196  1.00  0.00     0.001 C
HETATM   24  C12 UNL     1      26.486  28.669   5.853  1.00  0.00     0.015 C
ENDBRANCH  18  19
ENDBRANCH  17  18
ENDBRANCH  16  17
ENDBRANCH  13  16
ENDBRANCH   1  13
TORSDOF 8
ENDMDL