MODEL 2
REMARK VINA RESULT: -6.979879430      3.879      7.800
REMARK  7 active torsions:
REMARK  status: ('A' for Active; 'I' for Inactive)
REMARK    1  A    between atoms: C2_2  and  C3_3
REMARK    2  A    between atoms: C3_3  and  C4_4
REMARK    3  A    between atoms: C4_4  and  N1_6
REMARK    4  A    between atoms: N1_6  and  C6_8
REMARK    5  A    between atoms: C7_9  and  N2_10
REMARK    6  A    between atoms: N2_10  and  C8_12
REMARK    7  A    between atoms: C13_20  and  O1_21
ROOT
HETATM    1  C6  UNL     1      22.641  29.136   4.951  1.00  0.00     0.122 A
HETATM    2  C7  UNL     1      23.825  28.577   5.447  1.00  0.00     0.198 A
HETATM    3  O2  UNL     1      24.377  27.969   4.442  1.00  0.00    -0.214 OA
HETATM    4  N4  UNL     1      23.670  28.082   3.364  1.00  0.00    -0.242 N
HETATM    5  C14 UNL     1      23.945  27.547   2.035  1.00  0.00     0.187 C
HETATM    6  C15 UNL     1      22.559  28.809   3.615  1.00  0.00     0.154 A
HETATM    7  S1  UNL     1      21.375  29.219   2.572  1.00  0.00    -0.056 SA
ENDROOT
BRANCH   2   8
HETATM    8  N2  UNL     1      24.266  28.699   6.808  1.00  0.00    -0.337 N
ATOM      9  H2  UNL     1      23.572  28.821   7.546  1.00  0.00     0.163 HD
BRANCH   8  10
HETATM   10  C8  UNL     1      25.649  28.655   7.156  1.00  0.00     0.314 C
HETATM   11  N3  UNL     1      26.481  29.442   6.261  1.00  0.00    -0.052 N
HETATM   12  C9  UNL     1      27.636  28.718   5.782  1.00  0.00     0.235 C
ATOM     13  H32 UNL     1      25.933  29.810   5.483  1.00  0.00     0.279 HD
ATOM     14  H31 UNL     1      26.758  30.321   6.700  1.00  0.00     0.279 HD
HETATM   15  C10 UNL     1      28.789  28.718   6.729  1.00  0.00     0.028 C
HETATM   16  C11 UNL     1      28.383  28.383   8.147  1.00  0.00     0.004 C
HETATM   17  C12 UNL     1      27.417  29.376   8.716  1.00  0.00     0.036 C
HETATM   18  C13 UNL     1      25.972  28.953   8.583  1.00  0.00     0.168 C
BRANCH  18  19
HETATM   19  O1  UNL     1      25.197  29.923   9.180  1.00  0.00    -0.392 OA
ATOM     20  H1  UNL     1      24.668  29.632   9.914  1.00  0.00     0.210 HD
ENDBRANCH  18  19
ENDBRANCH   8  10
ENDBRANCH   2   8
BRANCH   1  21
HETATM   21  N1  UNL     1      21.723  29.893   5.699  1.00  0.00    -0.380 N
ATOM     22  H1  UNL     1      20.832  29.469   5.953  1.00  0.00     0.160 HD
BRANCH  21  23
HETATM   23  C4  UNL     1      21.988  31.230   6.119  1.00  0.00     0.077 C
HETATM   24  C5  UNL     1      22.035  31.362   7.635  1.00  0.00     0.032 C
BRANCH  23  25
HETATM   25  C3  UNL     1      20.980  32.232   5.643  1.00  0.00     0.024 C
BRANCH  25  26
HETATM   26  C2  UNL     1      21.226  32.596   4.214  1.00  0.00    -0.003 C
HETATM   27  C1  UNL     1      19.913  32.633   3.455  1.00  0.00     0.005 C
ENDBRANCH  25  26
ENDBRANCH  23  25
ENDBRANCH  21  23
ENDBRANCH   1  21
TORSDOF 7
ENDMDL