MODEL 4
REMARK VINA RESULT: -6.887859470      5.965      9.991
REMARK  10 active torsions:
REMARK  status: ('A' for Active; 'I' for Inactive)
REMARK    1  A    between atoms: C1_2  and  C2_3
REMARK    2  A    between atoms: C1_2  and  C7_16
REMARK    3  A    between atoms: C2_3  and  O2_4
REMARK    4  A    between atoms: C2_3  and  N1_6
REMARK    5  A    between atoms: N2_8  and  C3_10
REMARK    6  A    between atoms: C7_16  and  C8_17
REMARK    7  A    between atoms: C7_16  and  C15_24
REMARK    8  A    between atoms: C8_17  and  C9_18
REMARK    9  A    between atoms: C15_24  and  O3_25
REMARK   10  A    between atoms: N4_27  and  O4_29
ROOT
HETATM    1  O1  UNL     1      23.631  30.395   7.944  1.00  0.00    -0.292 OA
HETATM    2  C1  UNL     1      23.148  30.178   6.814  1.00  0.00     0.188 C
ENDROOT
BRANCH   2   3
HETATM    3  C2  UNL     1      21.868  30.851   6.552  1.00  0.00     0.304 C
BRANCH   3   4
HETATM    4  O2  UNL     1      20.797  30.421   7.290  1.00  0.00    -0.368 OA
ATOM      5  H2  UNL     1      19.990  30.911   7.184  1.00  0.00     0.212 HD
ENDBRANCH   3   4
BRANCH   3   6
HETATM    6  N1  UNL     1      22.025  32.273   6.743  1.00  0.00    -0.299 N
HETATM    7  N2  UNL     1      21.511  33.075   5.923  1.00  0.00    -0.287 N
ATOM      8  H2  UNL     1      21.623  34.080   6.057  1.00  0.00     0.188 HD
ATOM      9  H1  UNL     1      22.551  32.626   7.542  1.00  0.00     0.183 HD
BRANCH   7  10
HETATM   10  C3  UNL     1      20.784  32.591   4.823  1.00  0.00     0.119 A
HETATM   11  C4  UNL     1      21.170  31.597   3.943  1.00  0.00     0.051 A
HETATM   12  C5  UNL     1      20.172  31.447   3.033  1.00  0.00     0.021 A
HETATM   13  C6  UNL     1      19.171  32.327   3.326  1.00  0.00     0.090 A
HETATM   14  N3  UNL     1      19.556  33.004   4.402  1.00  0.00    -0.351 N
ATOM     15  H3  UNL     1      19.006  33.736   4.853  1.00  0.00     0.166 HD
ENDBRANCH   7  10
ENDBRANCH   3   6
ENDBRANCH   2   3
BRANCH   2  16
HETATM   16  C7  UNL     1      23.917  29.302   5.929  1.00  0.00     0.137 C
BRANCH  16  17
HETATM   17  C8  UNL     1      24.889  28.497   6.724  1.00  0.00     0.025 C
BRANCH  17  18
HETATM   18  C9  UNL     1      26.252  29.124   6.889  1.00  0.00    -0.013 C
HETATM   19  C10 UNL     1      26.790  28.601   8.204  1.00  0.00     0.005 C
HETATM   20  C11 UNL     1      28.203  28.974   8.469  1.00  0.00     0.000 C
HETATM   21  C12 UNL     1      29.134  28.665   7.321  1.00  0.00     0.000 C
HETATM   22  C13 UNL     1      28.570  29.033   5.993  1.00  0.00     0.000 C
HETATM   23  C14 UNL     1      27.141  28.592   5.783  1.00  0.00     0.005 C
ENDBRANCH  17  18
ENDBRANCH  16  17
BRANCH  16  24
HETATM   24  C15 UNL     1      23.117  28.454   5.038  1.00  0.00     0.147 C
HETATM   25  N4  UNL     1      23.545  27.977   3.912  1.00  0.00    -0.250 N
ATOM     26  H4  UNL     1      22.958  27.390   3.319  1.00  0.00     0.196 HD
BRANCH  24  27
HETATM   27  O3  UNL     1      21.822  28.121   5.384  1.00  0.00    -0.348 OA
ATOM     28  H3  UNL     1      21.508  27.235   5.246  1.00  0.00     0.219 HD
ENDBRANCH  24  27
BRANCH  25  29
HETATM   29  O4  UNL     1      24.835  28.305   3.560  1.00  0.00    -0.288 OA
ATOM     30  H4  UNL     1      25.018  29.230   3.441  1.00  0.00     0.244 HD
ENDBRANCH  25  29
ENDBRANCH  16  24
ENDBRANCH   2  16
TORSDOF 10
ENDMDL