MODEL 2
REMARK VINA RESULT: -8.251164733      2.215      3.545
REMARK  9 active torsions:
REMARK  status: ('A' for Active; 'I' for Inactive)
REMARK    1  A    between atoms: C2_2  and  C4_4
REMARK    2  A    between atoms: C4_4  and  O1_5
REMARK    3  A    between atoms: C4_4  and  C5_7
REMARK    4  A    between atoms: C5_7  and  O2_8
REMARK    5  A    between atoms: C5_7  and  C6_10
REMARK    6  A    between atoms: C8_12  and  N1_13
REMARK    7  A    between atoms: N1_13  and  N2_15
REMARK    8  A    between atoms: C9_17  and  C10_18
REMARK    9  A    between atoms: C17_25  and  O3_26
ROOT
HETATM    1  C6  UNL     1      26.470  28.750   7.987  1.00  0.00     0.089 A
HETATM    2  C7  UNL     1      27.214  28.937   6.842  1.00  0.00     0.071 A
HETATM    3  C8  UNL     1      28.534  28.669   7.174  1.00  0.00     0.108 A
HETATM    4  C17 UNL     1      28.519  28.332   8.507  1.00  0.00     0.212 A
HETATM    5  O4  UNL     1      27.289  28.395   8.935  1.00  0.00    -0.288 OA
ENDROOT
BRANCH   3   6
HETATM    6  N1  UNL     1      29.636  28.743   6.279  1.00  0.00    -0.297 N
ATOM      7  H1  UNL     1      29.607  29.400   5.499  1.00  0.00     0.187 HD
BRANCH   6   8
HETATM    8  N2  UNL     1      30.747  27.938   6.450  1.00  0.00    -0.315 N
HETATM    9  C9  UNL     1      31.335  27.416   5.430  1.00  0.00     0.084 C
ATOM     10  H2  UNL     1      31.103  27.757   7.389  1.00  0.00     0.185 HD
BRANCH   9  11
HETATM   11  C10 UNL     1      32.521  26.556   5.596  1.00  0.00     0.025 C
HETATM   12  C11 UNL     1      32.975  26.067   4.258  1.00  0.00     0.010 C
HETATM   13  C12 UNL     1      32.213  24.852   3.785  1.00  0.00     0.001 C
HETATM   14  C13 UNL     1      32.512  23.615   4.549  1.00  0.00     0.000 C
HETATM   15  C14 UNL     1      33.665  23.721   5.495  1.00  0.00     0.000 C
HETATM   16  C15 UNL     1      33.341  24.487   6.736  1.00  0.00     0.001 C
HETATM   17  C16 UNL     1      32.191  25.441   6.561  1.00  0.00     0.010 C
ENDBRANCH   9  11
ENDBRANCH   6   8
ENDBRANCH   3   6
BRANCH   4  18
HETATM   18  O3  UNL     1      29.623  27.985   9.272  1.00  0.00    -0.339 OA
ATOM     19  H3  UNL     1      29.678  28.020  10.220  1.00  0.00     0.220 HD
ENDBRANCH   4  18
BRANCH   1  20
HETATM   20  C5  UNL     1      24.980  28.921   8.128  1.00  0.00     0.204 C
BRANCH  20  21
HETATM   21  C4  UNL     1      24.477  29.425   6.793  1.00  0.00     0.156 C
BRANCH  21  22
HETATM   22  C2  UNL     1      22.978  29.595   6.783  1.00  0.00     0.009 C
HETATM   23  C1  UNL     1      22.533  31.010   6.938  1.00  0.00     0.012 C
HETATM   24  C3  UNL     1      22.498  29.100   5.418  1.00  0.00     0.012 C
ENDBRANCH  21  22
BRANCH  21  25
HETATM   25  O1  UNL     1      24.803  28.525   5.780  1.00  0.00    -0.392 OA
ATOM     26  H1  UNL     1      25.736  28.354   5.839  1.00  0.00     0.210 HD
ENDBRANCH  21  25
ENDBRANCH  20  21
BRANCH  20  27
HETATM   27  O2  UNL     1      24.765  29.888   9.100  1.00  0.00    -0.386 OA
ATOM     28  H2  UNL     1      23.951  30.343   8.921  1.00  0.00     0.210 HD
ENDBRANCH  20  27
ENDBRANCH   1  20
TORSDOF 9
ENDMDL