MODEL 2
REMARK VINA RESULT: -8.996399071      6.142     10.271
REMARK  8 active torsions:
REMARK  status: ('A' for Active; 'I' for Inactive)
REMARK    1  A    between atoms: C5_5  and  C6_6
REMARK    2  A    between atoms: C6_6  and  C8_8
REMARK    3  A    between atoms: C8_8  and  C9_9
REMARK    4  A    between atoms: C9_9  and  C10_10
REMARK    5  A    between atoms: C10_10  and  C11_11
REMARK    6  A    between atoms: C11_11  and  C12_13
REMARK    7  A    between atoms: C15_19  and  O2_20
REMARK    8  A    between atoms: C16_24  and  O3_25
ROOT
HETATM    1  C12 UNL     1      20.943  30.584   3.083  1.00  0.00     0.155 A
HETATM    2  N1  UNL     1      21.346  31.413   4.053  1.00  0.00    -0.327 N
ATOM      3  H1  UNL     1      22.234  31.368   4.552  1.00  0.00     0.168 HD
HETATM    4  C13 UNL     1      20.376  32.308   4.249  1.00  0.00     0.167 A
HETATM    5  C14 UNL     1      20.355  33.407   5.198  1.00  0.00     0.122 C
HETATM    6  N2  UNL     1      20.332  34.282   5.963  1.00  0.00    -0.190 NA
HETATM    7  C15 UNL     1      19.354  32.022   3.381  1.00  0.00     0.180 A
HETATM    8  N3  UNL     1      19.723  30.949   2.664  1.00  0.00    -0.318 N
ATOM      9  H3  UNL     1      19.174  30.495   1.934  1.00  0.00     0.169 HD
ENDROOT
BRANCH   7  10
HETATM   10  O2  UNL     1      18.136  32.730   3.264  1.00  0.00    -0.344 OA
ATOM     11  H2  UNL     1      17.687  32.943   2.454  1.00  0.00     0.219 HD
ENDBRANCH   7  10
BRANCH   1  12
HETATM   12  C11 UNL     1      21.706  29.441   2.540  1.00  0.00     0.193 C
HETATM   13  O1  UNL     1      22.117  29.440   1.372  1.00  0.00    -0.289 OA
BRANCH  12  14
HETATM   14  C10 UNL     1      21.957  28.305   3.438  1.00  0.00     0.087 C
BRANCH  14  15
HETATM   15  C9  UNL     1      22.266  28.636   4.852  1.00  0.00     0.008 C
BRANCH  15  16
HETATM   16  C8  UNL     1      23.736  28.679   5.154  1.00  0.00     0.005 C
BRANCH  16  17
HETATM   17  C6  UNL     1      23.940  29.119   6.587  1.00  0.00    -0.012 C
HETATM   18  C7  UNL     1      22.955  30.232   6.860  1.00  0.00     0.010 C
BRANCH  17  19
HETATM   19  C5  UNL     1      25.344  29.433   6.924  1.00  0.00     0.018 C
HETATM   20  C4  UNL     1      26.251  28.633   6.008  1.00  0.00     0.008 C
HETATM   21  C3  UNL     1      27.708  28.967   6.227  1.00  0.00     0.005 C
HETATM   22  C2  UNL     1      27.978  28.608   7.697  1.00  0.00    -0.016 C
HETATM   23  C1  UNL     1      29.438  28.588   7.999  1.00  0.00     0.010 C
HETATM   24  C17 UNL     1      27.205  29.612   8.511  1.00  0.00     0.036 C
HETATM   25  C16 UNL     1      25.733  29.358   8.353  1.00  0.00     0.122 C
BRANCH  25  26
HETATM   26  O3  UNL     1      25.423  28.196   9.003  1.00  0.00    -0.395 OA
ATOM     27  H3  UNL     1      25.754  27.396   8.613  1.00  0.00     0.210 HD
ENDBRANCH  25  26
ENDBRANCH  17  19
ENDBRANCH  16  17
ENDBRANCH  15  16
ENDBRANCH  14  15
ENDBRANCH  12  14
ENDBRANCH   1  12
TORSDOF 8
ENDMDL