MODEL 5
REMARK VINA RESULT: -5.507599480      2.434      2.830
REMARK  10 active torsions:
REMARK  status: ('A' for Active; 'I' for Inactive)
REMARK    1  A    between atoms: C2_2  and  C3_4
REMARK    2  A    between atoms: C3_4  and  O1_5
REMARK    3  A    between atoms: C3_4  and  C4_7
REMARK    4  A    between atoms: C3_4  and  C7_12
REMARK    5  A    between atoms: C5_8  and  O2_10
REMARK    6  A    between atoms: C7_12  and  C8_13
REMARK    7  A    between atoms: C8_13  and  C9_14
REMARK    8  A    between atoms: C10_15  and  C11_16
REMARK    9  A    between atoms: C11_16  and  O3_17
REMARK   10  A    between atoms: N1_19  and  O4_21
ROOT
HETATM    1  C9  UNL     1      33.289  25.534   4.208  1.00  0.00     0.013 C
HETATM    2  C10 UNL     1      33.031  24.618   3.071  1.00  0.00     0.089 C
HETATM    3  C12 UNL     1      34.395  23.971   2.922  1.00  0.00    -0.017 C
HETATM    4  C13 UNL     1      35.128  24.152   3.989  1.00  0.00    -0.021 C
HETATM    5  C14 UNL     1      34.375  24.950   5.028  1.00  0.00    -0.026 C
HETATM    6  C15 UNL     1      34.052  24.144   6.200  1.00  0.00     0.019 C
HETATM    7  C16 UNL     1      35.383  26.032   5.460  1.00  0.00     0.019 C
ENDROOT
BRANCH   1   8
HETATM    8  C8  UNL     1      32.127  26.091   4.932  1.00  0.00     0.010 C
BRANCH   8   9
HETATM    9  C7  UNL     1      31.866  27.542   4.612  1.00  0.00     0.048 C
BRANCH   9  10
HETATM   10  C3  UNL     1      30.994  28.234   5.633  1.00  0.00     0.111 C
BRANCH  10  11
HETATM   11  C2  UNL     1      29.783  28.637   4.872  1.00  0.00     0.021 C
HETATM   12  C1  UNL     1      28.539  28.935   5.597  1.00  0.00     0.060 C
HETATM   13  S1  UNL     1      29.846  28.729   3.466  1.00  0.00    -0.086 SA
ENDBRANCH  10  11
BRANCH  10  14
HETATM   14  O1  UNL     1      31.670  29.390   6.021  1.00  0.00    -0.380 OA
ATOM     15  H1  UNL     1      31.181  29.797   6.727  1.00  0.00     0.211 HD
ENDBRANCH  10  14
BRANCH  10  16
HETATM   16  C4  UNL     1      30.690  27.410   6.792  1.00  0.00     0.047 C
HETATM   17  C5  UNL     1      30.603  27.909   7.999  1.00  0.00     0.038 C
HETATM   18  C6  UNL     1      30.290  27.060   9.191  1.00  0.00     0.076 C
BRANCH  17  19
HETATM   19  O2  UNL     1      30.801  29.254   8.204  1.00  0.00    -0.366 OA
ATOM     20  H2  UNL     1      31.662  29.578   8.441  1.00  0.00     0.217 HD
ENDBRANCH  17  19
ENDBRANCH  10  16
ENDBRANCH   9  10
ENDBRANCH   8   9
ENDBRANCH   1   8
BRANCH   2  21
HETATM   21  C11 UNL     1      32.064  23.552   3.246  1.00  0.00     0.143 C
HETATM   22  N1  UNL     1      31.032  23.490   2.489  1.00  0.00    -0.251 N
ATOM     23  H1  UNL     1      30.931  24.212   1.776  1.00  0.00     0.196 HD
BRANCH  21  24
HETATM   24  O3  UNL     1      32.183  22.567   4.201  1.00  0.00    -0.348 OA
ATOM     25  H3  UNL     1      31.517  21.910   4.363  1.00  0.00     0.219 HD
ENDBRANCH  21  24
BRANCH  22  26
HETATM   26  O4  UNL     1      30.066  22.544   2.558  1.00  0.00    -0.288 OA
ATOM     27  H4  UNL     1      30.086  21.705   2.114  1.00  0.00     0.244 HD
ENDBRANCH  22  26
ENDBRANCH   2  21
TORSDOF 10
ENDMDL