MODEL 4
REMARK VINA RESULT: -7.542400946      0.561      1.183
REMARK  11 active torsions:
REMARK  status: ('A' for Active; 'I' for Inactive)
REMARK    1  A    between atoms: C3_3  and  C4_4
REMARK    2  A    between atoms: C4_4  and  O1_5
REMARK    3  A    between atoms: C4_4  and  O2_7
REMARK    4  A    between atoms: O2_7  and  C5_8
REMARK    5  A    between atoms: C5_8  and  C7_10
REMARK    6  A    between atoms: C12_15  and  O3_16
REMARK    7  A    between atoms: N1_18  and  C13_19
REMARK    8  A    between atoms: C13_19  and  C14_20
REMARK    9  A    between atoms: C15_21  and  C16_22
REMARK   10  A    between atoms: C16_22  and  O4_23
REMARK   11  A    between atoms: N2_25  and  O5_27
ROOT
HETATM    1  C1  UNL     1      25.105  29.622   8.555  1.00  0.00     0.069 C
HETATM    2  C2  UNL     1      25.024  29.188   7.124  1.00  0.00     0.021 A
HETATM    3  C3  UNL     1      26.137  28.917   6.344  1.00  0.00     0.023 A
HETATM    4  C11 UNL     1      25.620  28.557   5.116  1.00  0.00     0.070 A
HETATM    5  C12 UNL     1      24.247  28.623   5.194  1.00  0.00     0.143 A
HETATM    6  N1  UNL     1      23.909  29.012   6.435  1.00  0.00    -0.328 N
ENDROOT
BRANCH   3   7
HETATM    7  C4  UNL     1      27.543  28.999   6.803  1.00  0.00     0.293 C
BRANCH   7   8
HETATM    8  O1  UNL     1      27.531  28.230   8.025  1.00  0.00    -0.367 OA
ATOM      9  H1  UNL     1      28.437  27.957   8.115  1.00  0.00     0.213 HD
ENDBRANCH   7   8
BRANCH   7  10
HETATM   10  O2  UNL     1      28.483  28.418   6.033  1.00  0.00    -0.351 OA
BRANCH  10  11
HETATM   11  C5  UNL     1      29.735  28.942   5.996  1.00  0.00     0.128 C
HETATM   12  C6  UNL     1      30.721  28.231   6.903  1.00  0.00     0.040 C
BRANCH  11  13
HETATM   13  C7  UNL     1      30.236  29.077   4.605  1.00  0.00    -0.025 C
HETATM   14  C8  UNL     1      29.236  28.631   3.579  1.00  0.00     0.017 C
HETATM   15  C9  UNL     1      31.485  28.228   4.469  1.00  0.00     0.017 C
HETATM   16  C10 UNL     1      30.634  30.498   4.255  1.00  0.00     0.017 C
ENDBRANCH  11  13
ENDBRANCH  10  11
ENDBRANCH   7  10
ENDBRANCH   3   7
BRANCH   6  17
HETATM   17  C13 UNL     1      22.543  29.210   6.949  1.00  0.00     0.158 C
BRANCH  17  18
HETATM   18  C14 UNL     1      22.202  30.623   7.037  1.00  0.00    -0.002 C
HETATM   19  C15 UNL     1      21.679  31.251   6.010  1.00  0.00     0.055 C
BRANCH  19  20
HETATM   20  C16 UNL     1      21.331  32.655   6.071  1.00  0.00     0.159 C
HETATM   21  N2  UNL     1      21.269  33.380   5.022  1.00  0.00    -0.248 N
ATOM     22  H2  UNL     1      21.022  34.367   5.093  1.00  0.00     0.196 HD
BRANCH  20  23
HETATM   23  O4  UNL     1      21.060  33.225   7.299  1.00  0.00    -0.345 OA
ATOM     24  H4  UNL     1      20.295  33.780   7.391  1.00  0.00     0.219 HD
ENDBRANCH  20  23
BRANCH  21  25
HETATM   25  O5  UNL     1      21.539  32.817   3.791  1.00  0.00    -0.288 OA
ATOM     26  H5  UNL     1      20.844  32.371   3.320  1.00  0.00     0.244 HD
ENDBRANCH  21  25
ENDBRANCH  19  20
ENDBRANCH  17  18
ENDBRANCH   6  17
BRANCH   5  27
HETATM   27  O3  UNL     1      23.350  28.338   4.172  1.00  0.00    -0.346 OA
ATOM     28  H3  UNL     1      22.424  28.157   4.271  1.00  0.00     0.219 HD
ENDBRANCH   5  27
TORSDOF 11
ENDMDL