MODEL 3
REMARK VINA RESULT: -6.186539912      1.151      1.363
REMARK  14 active torsions:
REMARK  status: ('A' for Active; 'I' for Inactive)
REMARK    1  A    between atoms: C6_12  and  N4_13
REMARK    2  A    between atoms: N4_13  and  C7_15
REMARK    3  A    between atoms: N10_25  and  O1_26
REMARK    4  A    between atoms: C12_31  and  O3_32
REMARK    5  A    between atoms: C13_34  and  N11_35
REMARK    6  A    between atoms: N11_35  and  C14_37
REMARK    7  A    between atoms: C14_37  and  C15_38
REMARK    8  A    between atoms: C14_37  and  C20_48
REMARK    9  A    between atoms: C15_38  and  C16_39
REMARK   10  A    between atoms: C16_39  and  C17_40
REMARK   11  A    between atoms: C17_40  and  C18_42
REMARK   12  A    between atoms: C18_42  and  N12_44
REMARK   13  A    between atoms: C20_48  and  N13_49
REMARK   14  A    between atoms: C20_48  and  O5_53
ROOT
HETATM    1  C1  UNL     1     -17.923  18.448  10.072  1.00  0.00     0.025 C
HETATM    2  C2  UNL     1     -17.024  18.963   9.238  1.00  0.00     0.002 C
HETATM    3  C3  UNL     1     -16.784  20.417   9.400  1.00  0.00     0.119 A
HETATM    4  N1  UNL     1     -17.928  20.914   9.913  1.00  0.00    -0.327 N
ATOM      5  H1  UNL     1     -18.749  20.317  10.022  1.00  0.00     0.169 HD
HETATM    6  C4  UNL     1     -17.972  22.172  10.268  1.00  0.00     0.129 A
HETATM    7  N2  UNL     1     -19.081  22.658  10.759  1.00  0.00    -0.384 N
ATOM      8  H21 UNL     1     -19.116  23.639  11.036  1.00  0.00     0.157 HD
ATOM      9  H22 UNL     1     -19.913  22.080  10.874  1.00  0.00     0.157 HD
HETATM   10  C5  UNL     1     -16.853  22.949  10.113  1.00  0.00     0.134 A
HETATM   11  N3  UNL     1     -16.972  24.289  10.522  1.00  0.00    -0.094 NA
HETATM   12  C6  UNL     1     -15.626  22.471   9.582  1.00  0.00     0.141 A
HETATM   13  N8  UNL     1     -15.666  21.169   9.231  1.00  0.00    -0.295 N
HETATM   14  C9  UNL     1     -14.451  20.819   8.573  1.00  0.00     0.225 C
HETATM   15  N9  UNL     1     -14.318  21.633   7.311  1.00  0.00    -0.082 NA
HETATM   16  N10 UNL     1     -13.231  20.963   6.709  1.00  0.00    -0.129 N
HETATM   17  C10 UNL     1     -13.268  19.564   7.076  1.00  0.00     0.270 C
HETATM   18  O2  UNL     1     -12.425  18.692   6.840  1.00  0.00    -0.269 OA
HETATM   19  C11 UNL     1     -14.585  19.507   7.799  1.00  0.00     0.153 C
HETATM   20  C12 UNL     1     -14.843  18.290   8.566  1.00  0.00     0.161 C
HETATM   21  C13 UNL     1     -16.351  18.048   8.330  1.00  0.00     0.143 C
ENDROOT
BRANCH  21  22
HETATM   22  N11 UNL     1     -16.714  16.717   8.275  1.00  0.00    -0.402 N
ATOM     23  H11 UNL     1     -16.650  16.122   9.102  1.00  0.00     0.154 HD
BRANCH  22  24
HETATM   24  C14 UNL     1     -17.197  16.180   6.995  1.00  0.00     0.133 C
BRANCH  24  25
HETATM   25  C15 UNL     1     -16.815  17.053   5.860  1.00  0.00     0.036 C
BRANCH  25  26
HETATM   26  C16 UNL     1     -16.120  16.313   4.765  1.00  0.00     0.083 C
BRANCH  26  27
HETATM   27  C17 UNL     1     -14.684  16.752   4.647  1.00  0.00     0.156 C
HETATM   28  O4  UNL     1     -13.820  16.111   5.190  1.00  0.00    -0.296 OA
BRANCH  27  29
HETATM   29  C18 UNL     1     -14.332  17.957   3.873  1.00  0.00     0.248 C
HETATM   30  C19 UNL     1     -14.868  17.924   2.466  1.00  0.00     0.048 C
BRANCH  29  31
HETATM   31  N12 UNL     1     -12.911  18.134   3.835  1.00  0.00    -0.069 N
ATOM     32 3H12 UNL     1     -12.572  18.650   4.647  1.00  0.00     0.275 HD
ATOM     33 2H12 UNL     1     -12.415  17.257   3.995  1.00  0.00     0.275 HD
ATOM     34 1H12 UNL     1     -12.628  18.575   2.960  1.00  0.00     0.275 HD
ENDBRANCH  29  31
ENDBRANCH  27  29
ENDBRANCH  26  27
ENDBRANCH  25  26
ENDBRANCH  24  25
BRANCH  24  35
HETATM   35  C20 UNL     1     -16.517  14.849   6.889  1.00  0.00     0.338 C
BRANCH  35  36
HETATM   36  N13 UNL     1     -15.290  14.449   7.404  1.00  0.00    -0.051 N
ATOM     37 3H13 UNL     1     -14.600  14.720   6.702  1.00  0.00     0.277 HD
ATOM     38 2H13 UNL     1     -15.106  15.079   8.185  1.00  0.00     0.277 HD
ATOM     39 1H13 UNL     1     -14.998  13.526   7.726  1.00  0.00     0.277 HD
ENDBRANCH  35  36
BRANCH  35  40
HETATM   40  O5  UNL     1     -17.144  13.911   6.229  1.00  0.00    -0.368 OA
ATOM     41  H5  UNL     1     -17.412  13.143   6.719  1.00  0.00     0.212 HD
ENDBRANCH  35  40
ENDBRANCH  24  35
ENDBRANCH  22  24
ENDBRANCH  21  22
BRANCH  20  42
HETATM   42  O3  UNL     1     -14.123  17.218   8.101  1.00  0.00    -0.392 OA
ATOM     43  H3  UNL     1     -14.624  16.412   8.118  1.00  0.00     0.210 HD
ENDBRANCH  20  42
BRANCH  12  44
HETATM   44  N4  UNL     1     -14.596  23.361   9.588  1.00  0.00    -0.311 N
ATOM     45  H4  UNL     1     -14.722  23.976   8.785  1.00  0.00     0.170 HD
BRANCH  44  46
HETATM   46  C7  UNL     1     -13.440  23.772  10.248  1.00  0.00     0.194 C
HETATM   47  N5  UNL     1     -13.210  24.984  10.639  1.00  0.00    -0.346 N
HETATM   48  C8  UNL     1     -11.921  25.042  11.284  1.00  0.00     0.259 C
ATOM     49  H5  UNL     1     -13.842  25.775  10.511  1.00  0.00     0.163 HD
HETATM   50  N6  UNL     1     -11.469  23.681  11.395  1.00  0.00    -0.119 NA
HETATM   51  N7  UNL     1     -12.282  22.986  10.527  1.00  0.00    -0.274 N
ATOM     52  H7  UNL     1     -12.089  22.060  10.146  1.00  0.00     0.185 HD
ENDBRANCH  44  46
ENDBRANCH  12  44
BRANCH  16  53
HETATM   53  O1  UNL     1     -12.334  21.586   5.919  1.00  0.00    -0.268 OA
ATOM     54  H1  UNL     1     -12.063  21.243   5.076  1.00  0.00     0.246 HD
ENDBRANCH  16  53
TORSDOF 14
ENDMDL