MODEL 1
REMARK VINA RESULT: -6.454571235      0.000      0.000
REMARK  20 active torsions:
REMARK  status: ('A' for Active; 'I' for Inactive)
REMARK    1  A    between atoms: C2_2  and  C3_7
REMARK    2  A    between atoms: N1_3  and  O1_5
REMARK    3  A    between atoms: C3_7  and  O2_8
REMARK    4  A    between atoms: C4_11  and  O4_12
REMARK    5  A    between atoms: O4_12  and  C5_13
REMARK    6  A    between atoms: C5_13  and  C6_15
REMARK    7  A    between atoms: C6_15  and  C7_16
REMARK    8  A    between atoms: C7_16  and  O6_17
REMARK    9  A    between atoms: C7_16  and  C8_19
REMARK   10  A    between atoms: C8_19  and  C9_20
REMARK   11  A    between atoms: C9_20  and  O7_21
REMARK   12  A    between atoms: O7_21  and  C10_22
REMARK   13  A    between atoms: C12_25  and  O9_27
REMARK   14  A    between atoms: C14_29  and  O10_30
REMARK   15  A    between atoms: C15_32  and  O11_33
REMARK   16  A    between atoms: C16_35  and  O12_36
REMARK   17  A    between atoms: C17_38  and  O13_39
REMARK   18  A    between atoms: C18_41  and  O14_42
REMARK   19  A    between atoms: C19_44  and  C20_45
REMARK   20  A    between atoms: C20_45  and  O15_46
ROOT
HETATM    1  C3  UNL     1      -5.722  23.890   4.456  1.00  0.00     0.214 C
HETATM    2  O3  UNL     1      -6.811  24.288   5.176  1.00  0.00    -0.316 OA
HETATM    3  C4  UNL     1      -7.946  24.589   4.448  1.00  0.00     0.304 C
HETATM    4  C16 UNL     1      -8.013  26.037   4.001  1.00  0.00     0.205 C
HETATM    5  C17 UNL     1      -6.970  26.507   3.093  1.00  0.00     0.181 C
HETATM    6  C18 UNL     1      -5.955  25.548   2.601  1.00  0.00     0.161 C
HETATM    7  C19 UNL     1      -5.063  24.985   3.687  1.00  0.00     0.109 C
ENDROOT
BRANCH   3   8
HETATM    8  O4  UNL     1      -8.235  23.709   3.396  1.00  0.00    -0.287 OA
BRANCH   8   9
HETATM    9  C5  UNL     1      -9.528  23.612   2.915  1.00  0.00     0.263 C
HETATM   10  O5  UNL     1      -9.694  23.723   1.678  1.00  0.00    -0.265 OA
BRANCH   9  11
HETATM   11  C6  UNL     1     -10.676  23.384   3.821  1.00  0.00     0.142 C
BRANCH  11  12
HETATM   12  C7  UNL     1     -11.495  22.169   3.502  1.00  0.00     0.129 C
BRANCH  12  13
HETATM   13  O6  UNL     1     -10.592  21.186   3.099  1.00  0.00    -0.395 OA
ATOM     14  H6  UNL     1     -10.389  21.369   2.190  1.00  0.00     0.210 HD
ENDBRANCH  12  13
BRANCH  12  15
HETATM   15  C8  UNL     1     -12.408  21.674   4.546  1.00  0.00     0.058 C
BRANCH  15  16
HETATM   16  C9  UNL     1     -11.882  20.881   5.666  1.00  0.00     0.173 C
BRANCH  16  17
HETATM   17  O7  UNL     1     -12.089  21.289   6.948  1.00  0.00    -0.358 OA
BRANCH  17  18
HETATM   18  C10 UNL     1     -12.302  20.300   7.889  1.00  0.00     0.290 C
HETATM   19  O8  UNL     1     -11.093  19.726   8.204  1.00  0.00    -0.356 OA
HETATM   20  C11 UNL     1     -11.179  18.643   9.033  1.00  0.00     0.211 C
HETATM   21  C12 UNL     1     -12.415  18.535   9.856  1.00  0.00     0.104 C
HETATM   22  C13 UNL     1     -13.409  17.576   9.215  1.00  0.00     0.051 C
HETATM   23  C14 UNL     1     -13.066  19.831  10.201  1.00  0.00     0.187 C
HETATM   24  C15 UNL     1     -12.762  20.939   9.225  1.00  0.00     0.205 C
BRANCH  21  25
HETATM   25  O9  UNL     1     -12.028  17.915  11.069  1.00  0.00    -0.385 OA
ATOM     26  H9  UNL     1     -12.831  17.627  11.486  1.00  0.00     0.210 HD
ENDBRANCH  21  25
BRANCH  23  27
HETATM   27  O10 UNL     1     -14.460  19.590  10.261  1.00  0.00    -0.390 OA
ATOM     28  H10 UNL     1     -14.891  20.431  10.171  1.00  0.00     0.210 HD
ENDBRANCH  23  27
BRANCH  24  29
HETATM   29  O11 UNL     1     -11.674  21.670   9.683  1.00  0.00    -0.388 OA
ATOM     30  H11 UNL     1     -12.004  22.194  10.405  1.00  0.00     0.210 HD
ENDBRANCH  24  29
ENDBRANCH  17  18
ENDBRANCH  16  17
ENDBRANCH  15  16
ENDBRANCH  12  15
ENDBRANCH  11  12
ENDBRANCH   9  11
ENDBRANCH   8   9
ENDBRANCH   3   8
BRANCH   4  31
HETATM   31  O12 UNL     1      -8.100  26.808   5.165  1.00  0.00    -0.388 OA
ATOM     32  H12 UNL     1      -8.852  27.377   5.056  1.00  0.00     0.210 HD
ENDBRANCH   4  31
BRANCH   1  33
HETATM   33  C2  UNL     1      -4.723  23.300   5.383  1.00  0.00     0.068 C
HETATM   34  C1  UNL     1      -4.890  23.280   6.867  1.00  0.00     0.071 C
HETATM   35  N1  UNL     1      -3.620  22.752   4.956  1.00  0.00    -0.272 N
ATOM     36  H1  UNL     1      -2.985  22.368   5.657  1.00  0.00     0.193 HD
BRANCH  35  37
HETATM   37  O1  UNL     1      -3.248  22.650   3.659  1.00  0.00    -0.290 OA
ATOM     38  H1  UNL     1      -2.493  22.170   3.339  1.00  0.00     0.244 HD
ENDBRANCH  35  37
ENDBRANCH   1  33
BRANCH   1  39
HETATM   39  O2  UNL     1      -6.028  22.865   3.542  1.00  0.00    -0.360 OA
ATOM     40  H2  UNL     1      -6.692  23.232   2.970  1.00  0.00     0.213 HD
ENDBRANCH   1  39
BRANCH   5  41
HETATM   41  O13 UNL     1      -7.583  27.063   1.939  1.00  0.00    -0.390 OA
ATOM     42  H13 UNL     1      -7.305  26.570   1.176  1.00  0.00     0.210 HD
ENDBRANCH   5  41
BRANCH   7  43
HETATM   43  C20 UNL     1      -4.481  26.093   4.489  1.00  0.00     0.177 C
BRANCH  43  44
HETATM   44  O15 UNL     1      -3.190  26.466   4.091  1.00  0.00    -0.400 OA
ATOM     45  H15 UNL     1      -3.159  27.275   3.594  1.00  0.00     0.209 HD
ENDBRANCH  43  44
ENDBRANCH   7  43
BRANCH   6  46
HETATM   46  O14 UNL     1      -5.093  26.275   1.741  1.00  0.00    -0.392 OA
ATOM     47  H14 UNL     1      -5.107  25.830   0.903  1.00  0.00     0.210 HD
ENDBRANCH   6  46
TORSDOF 20
ENDMDL