MODEL 5
REMARK VINA RESULT: -7.762310497      3.103      6.594
REMARK  16 active torsions:
REMARK  status: ('A' for Active; 'I' for Inactive)
REMARK    1  A    between atoms: N1_1  and  C1_4
REMARK    2  A    between atoms: N3_8  and  C3_9
REMARK    3  A    between atoms: C3_9  and  C4_10
REMARK    4  A    between atoms: C3_9  and  C6_16
REMARK    5  A    between atoms: C4_10  and  C5_11
REMARK    6  A    between atoms: C5_11  and  O1_12
REMARK    7  A    between atoms: C5_11  and  O2_14
REMARK    8  A    between atoms: C6_16  and  C7_17
REMARK    9  A    between atoms: C6_16  and  N5_31
REMARK   10  A    between atoms: C7_17  and  C8_18
REMARK   11  A    between atoms: C11_22  and  O3_23
REMARK   12  A    between atoms: C12_25  and  O4_26
REMARK   13  A    between atoms: C13_28  and  O5_29
REMARK   14  A    between atoms: C14_33  and  N6_34
REMARK   15  A    between atoms: N6_34  and  C15_36
REMARK   16  A    between atoms: C17_52  and  N14_53
ROOT
HETATM    1  C6  UNL     1     -11.648  19.062   8.632  1.00  0.00     0.155 C
ENDROOT
BRANCH   1   2
HETATM    2  C3  UNL     1     -12.478  18.099   9.321  1.00  0.00     0.063 C
BRANCH   2   3
HETATM    3  N3  UNL     1     -13.897  18.236   9.368  1.00  0.00    -0.073 N
HETATM    4  C2  UNL     1     -14.781  17.441   8.646  1.00  0.00     0.756 A
HETATM    5  N2  UNL     1     -14.518  16.442   7.815  1.00  0.00    -0.018 N
HETATM    6  N13 UNL     1     -16.039  17.825   8.895  1.00  0.00     0.108 N
HETATM    7  C1  UNL     1     -15.510  15.781   7.197  1.00  0.00     0.705 A
ATOM      8  H2  UNL     1     -13.549  16.171   7.644  1.00  0.00     0.203 HD
HETATM    9  N15 UNL     1     -16.785  16.146   7.429  1.00  0.00    -0.020 N
HETATM   10  C17 UNL     1     -17.024  17.164   8.277  1.00  0.00     0.728 A
ATOM     11  H15 UNL     1     -17.556  15.660   6.972  1.00  0.00     0.203 HD
HETATM   12  N12 UNL     1     -15.969  18.814   9.734  1.00  0.00    -0.191 N
HETATM   13  N11 UNL     1     -14.707  19.037   9.997  1.00  0.00    -0.206 N
ATOM     14  H12 UNL     1     -16.761  19.327  10.121  1.00  0.00     0.211 HD
ATOM     15  H11 UNL     1     -14.389  19.768  10.632  1.00  0.00     0.211 HD
BRANCH   7  16
HETATM   16  N1  UNL     1     -15.258  14.796   6.379  1.00  0.00    -0.234 N
ATOM     17  H12 UNL     1     -14.341  14.349   6.392  1.00  0.00     0.174 HD
ATOM     18  H11 UNL     1     -15.964  14.462   5.721  1.00  0.00     0.174 HD
ENDBRANCH   7  16
BRANCH  10  19
HETATM   19  N14 UNL     1     -18.252  17.550   8.528  1.00  0.00    -0.232 N
ATOM     20 2H14 UNL     1     -18.542  18.510   8.345  1.00  0.00     0.174 HD
ATOM     21 1H14 UNL     1     -18.889  16.852   8.911  1.00  0.00     0.174 HD
ENDBRANCH  10  19
ENDBRANCH   2   3
BRANCH   2  22
HETATM   22  C4  UNL     1     -11.943  17.652  10.679  1.00  0.00     0.118 C
BRANCH  22  23
HETATM   23  C5  UNL     1     -11.031  16.494  10.625  1.00  0.00     0.259 C
BRANCH  23  24
HETATM   24  O1  UNL     1     -11.194  15.666   9.528  1.00  0.00    -0.371 OA
ATOM     25  H1  UNL     1     -10.487  15.049   9.377  1.00  0.00     0.212 HD
ENDBRANCH  23  24
BRANCH  23  26
HETATM   26  O2  UNL     1      -9.689  16.942  10.561  1.00  0.00    -0.371 OA
ATOM     27  H2  UNL     1      -9.413  17.253  11.415  1.00  0.00     0.212 HD
ENDBRANCH  23  26
ENDBRANCH  22  23
ENDBRANCH   2  22
ENDBRANCH   1   2
BRANCH   1  28
HETATM   28  C7  UNL     1     -11.871  19.804   7.431  1.00  0.00     0.018 C
BRANCH  28  29
HETATM   29  C8  UNL     1     -13.129  20.114   6.785  1.00  0.00     0.000 A
HETATM   30  C9  UNL     1     -13.757  21.309   7.044  1.00  0.00     0.043 A
HETATM   31  C10 UNL     1     -14.917  21.719   6.441  1.00  0.00     0.083 A
HETATM   32  N4  UNL     1     -15.542  22.965   6.731  1.00  0.00    -0.099 NA
HETATM   33  C11 UNL     1     -15.485  20.867   5.514  1.00  0.00     0.126 A
HETATM   34  C12 UNL     1     -14.889  19.652   5.221  1.00  0.00     0.135 A
HETATM   35  C13 UNL     1     -13.723  19.290   5.857  1.00  0.00     0.111 A
BRANCH  33  36
HETATM   36  O3  UNL     1     -16.672  21.207   4.849  1.00  0.00    -0.356 OA
ATOM     37  H3  UNL     1     -17.506  20.837   5.115  1.00  0.00     0.218 HD
ENDBRANCH  33  36
BRANCH  34  38
HETATM   38  O4  UNL     1     -15.479  18.790   4.273  1.00  0.00    -0.356 OA
ATOM     39  H4  UNL     1     -14.931  18.318   3.657  1.00  0.00     0.218 HD
ENDBRANCH  34  38
BRANCH  35  40
HETATM   40  O5  UNL     1     -13.186  18.055   5.510  1.00  0.00    -0.357 OA
ATOM     41  H5  UNL     1     -12.993  17.822   4.610  1.00  0.00     0.217 HD
ENDBRANCH  35  40
ENDBRANCH  28  29
ENDBRANCH   1  28
BRANCH   1  42
HETATM   42  N5  UNL     1     -11.226  20.105   9.645  1.00  0.00    -0.372 N
HETATM   43  C14 UNL     1     -11.922  21.155   9.812  1.00  0.00     0.194 C
ATOM     44  H5  UNL     1     -10.380  19.964  10.197  1.00  0.00     0.161 HD
BRANCH  43  45
HETATM   45  N6  UNL     1     -11.464  22.086  10.780  1.00  0.00    -0.186 N
ATOM     46  H6  UNL     1     -10.750  21.779  11.441  1.00  0.00     0.185 HD
BRANCH  45  47
HETATM   47  C15 UNL     1     -11.891  23.285  10.872  1.00  0.00     0.702 A
HETATM   48  N7  UNL     1     -11.109  24.241  11.449  1.00  0.00    -0.117 N
HETATM   49  N8  UNL     1     -11.517  25.494  11.563  1.00  0.00    -0.224 N
ATOM     50  H7  UNL     1     -10.187  23.984  11.802  1.00  0.00     0.207 HD
HETATM   51  N9  UNL     1     -12.692  25.823  11.115  1.00  0.00    -0.236 N
ATOM     52  H8  UNL     1     -10.916  26.194  11.997  1.00  0.00     0.209 HD
HETATM   53  C16 UNL     1     -13.479  24.911  10.545  1.00  0.00     0.354 A
ATOM     54  H9  UNL     1     -13.014  26.788  11.199  1.00  0.00     0.193 HD
HETATM   55  O6  UNL     1     -14.603  25.287  10.129  1.00  0.00    -0.245 OA
HETATM   56  N10 UNL     1     -13.102  23.616  10.406  1.00  0.00    -0.139 N
ATOM     57  H10 UNL     1     -13.713  22.927   9.968  1.00  0.00     0.189 HD
ENDBRANCH  45  47
ENDBRANCH  43  45
ENDBRANCH   1  42
TORSDOF 16
ENDMDL