MODEL 5
REMARK VINA RESULT: -6.638516976      5.455      8.529
REMARK  19 active torsions:
REMARK  status: ('A' for Active; 'I' for Inactive)
REMARK    1  A    between atoms: N1_1  and  C1_5
REMARK    2  A    between atoms: C2_6  and  O1_7
REMARK    3  A    between atoms: O1_7  and  C3_8
REMARK    4  A    between atoms: C4_10  and  S1_11
REMARK    5  A    between atoms: S1_11  and  C5_12
REMARK    6  A    between atoms: C5_12  and  C6_13
REMARK    7  A    between atoms: C6_13  and  C7_14
REMARK    8  A    between atoms: C7_14  and  O3_15
REMARK    9  A    between atoms: C8_17  and  O4_18
REMARK   10  A    between atoms: C9_20  and  O5_21
REMARK   11  A    between atoms: C10_23  and  O6_24
REMARK   12  A    between atoms: C11_27  and  O8_28
REMARK   13  A    between atoms: C11_27  and  S2_30
REMARK   14  A    between atoms: S2_30  and  S3_31
REMARK   15  A    between atoms: S3_31  and  C12_32
REMARK   16  A    between atoms: C13_34  and  O10_35
REMARK   17  A    between atoms: C14_37  and  O11_38
REMARK   18  A    between atoms: C15_40  and  O12_41
REMARK   19  A    between atoms: C16_43  and  O13_44
ROOT
HETATM    1  C1  UNL     1     -17.875  21.214   8.507  1.00  0.00     0.312 C
HETATM    2  C2  UNL     1     -16.689  21.152   9.435  1.00  0.00     0.304 C
HETATM    3  O7  UNL     1     -17.548  21.460  10.490  1.00  0.00    -0.311 OA
HETATM    4  C11 UNL     1     -18.723  21.358   9.748  1.00  0.00     0.261 C
ENDROOT
BRANCH   2   5
HETATM    5  O1  UNL     1     -16.139  19.904   9.668  1.00  0.00    -0.326 OA
BRANCH   5   6
HETATM    6  C3  UNL     1     -14.875  19.751   9.138  1.00  0.00     0.295 C
HETATM    7  O2  UNL     1     -14.106  19.034  10.048  1.00  0.00    -0.340 OA
HETATM    8  C4  UNL     1     -13.023  18.376   9.387  1.00  0.00     0.217 C
HETATM    9  C8  UNL     1     -12.460  19.407   8.392  1.00  0.00     0.188 C
HETATM   10  C9  UNL     1     -12.688  20.782   9.028  1.00  0.00     0.183 C
HETATM   11  C10 UNL     1     -14.188  21.071   8.868  1.00  0.00     0.204 C
BRANCH   8  12
HETATM   12  S1  UNL     1     -11.789  17.959  10.578  1.00  0.00    -0.135 SA
BRANCH  12  13
HETATM   13  C5  UNL     1     -11.006  16.392  10.484  1.00  0.00     0.079 C
BRANCH  13  14
HETATM   14  C6  UNL     1     -10.055  15.996  11.566  1.00  0.00     0.036 C
BRANCH  14  15
HETATM   15  C7  UNL     1     -10.640  15.119  12.611  1.00  0.00     0.165 C
BRANCH  15  16
HETATM   16  O3  UNL     1     -10.669  15.738  13.861  1.00  0.00    -0.401 OA
ATOM     17  H3  UNL     1     -11.345  16.404  13.915  1.00  0.00     0.209 HD
ENDBRANCH  15  16
ENDBRANCH  14  15
ENDBRANCH  13  14
ENDBRANCH  12  13
ENDBRANCH   8  12
BRANCH   9  18
HETATM   18  O4  UNL     1     -11.112  19.258   8.216  1.00  0.00    -0.389 OA
ATOM     19  H4  UNL     1     -10.616  19.761   8.852  1.00  0.00     0.210 HD
ENDBRANCH   9  18
BRANCH  10  20
HETATM   20  O5  UNL     1     -12.393  20.670  10.370  1.00  0.00    -0.390 OA
ATOM     21  H5  UNL     1     -11.931  21.460  10.626  1.00  0.00     0.210 HD
ENDBRANCH  10  20
BRANCH  11  22
HETATM   22  O6  UNL     1     -14.359  21.494   7.550  1.00  0.00    -0.388 OA
ATOM     23  H6  UNL     1     -14.322  22.440   7.470  1.00  0.00     0.210 HD
ENDBRANCH  11  22
ENDBRANCH   5   6
ENDBRANCH   2   5
BRANCH   1  24
HETATM   24  N1  UNL     1     -18.088  20.008   7.734  1.00  0.00    -0.064 N
ATOM     25  H13 UNL     1     -17.531  20.029   6.880  1.00  0.00     0.275 HD
ATOM     26  H12 UNL     1     -17.661  19.207   8.199  1.00  0.00     0.275 HD
ATOM     27  H11 UNL     1     -19.066  19.817   7.518  1.00  0.00     0.275 HD
ENDBRANCH   1  24
BRANCH   4  28
HETATM   28  O8  UNL     1     -19.483  22.534   9.772  1.00  0.00    -0.354 OA
ATOM     29  H8  UNL     1     -19.690  22.833  10.650  1.00  0.00     0.214 HD
ENDBRANCH   4  28
BRANCH   4  30
HETATM   30  S2  UNL     1     -19.701  19.863  10.055  1.00  0.00    -0.025 SA
BRANCH  30  31
HETATM   31  S3  UNL     1     -20.731  20.134  11.896  1.00  0.00    -0.057 SA
BRANCH  31  32
HETATM   32  C12 UNL     1     -19.975  18.980  13.106  1.00  0.00     0.228 C
HETATM   33  O9  UNL     1     -20.278  17.666  12.821  1.00  0.00    -0.340 OA
HETATM   34  C13 UNL     1     -19.316  16.758  13.234  1.00  0.00     0.289 C
HETATM   35  C14 UNL     1     -18.552  17.221  14.454  1.00  0.00     0.204 C
HETATM   36  C15 UNL     1     -17.764  18.472  14.167  1.00  0.00     0.183 C
HETATM   37  C16 UNL     1     -18.495  19.261  13.107  1.00  0.00     0.189 C
BRANCH  34  38
HETATM   38  O10 UNL     1     -19.990  15.583  13.603  1.00  0.00    -0.368 OA
ATOM     39  H10 UNL     1     -19.346  14.886  13.620  1.00  0.00     0.212 HD
ENDBRANCH  34  38
BRANCH  35  40
HETATM   40  O11 UNL     1     -19.382  17.457  15.534  1.00  0.00    -0.388 OA
ATOM     41  H11 UNL     1     -18.973  17.229  16.361  1.00  0.00     0.210 HD
ENDBRANCH  35  40
BRANCH  36  42
HETATM   42  O12 UNL     1     -17.598  19.224  15.325  1.00  0.00    -0.390 OA
ATOM     43  H12 UNL     1     -18.213  19.947  15.346  1.00  0.00     0.210 HD
ENDBRANCH  36  42
BRANCH  37  44
HETATM   44  O13 UNL     1     -18.293  20.627  13.226  1.00  0.00    -0.389 OA
ATOM     45  H13 UNL     1     -17.905  20.811  14.073  1.00  0.00     0.210 HD
ENDBRANCH  37  44
ENDBRANCH  31  32
ENDBRANCH  30  31
ENDBRANCH   4  30
TORSDOF 19
ENDMDL