MODEL 1
REMARK VINA RESULT: -5.532086083      0.000      0.000
REMARK  20 active torsions:
REMARK  status: ('A' for Active; 'I' for Inactive)
REMARK    1  A    between atoms: O1_2  and  C2_3
REMARK    2  A    between atoms: C3_5  and  C4_6
REMARK    3  A    between atoms: C3_5  and  C11_26
REMARK    4  A    between atoms: C4_6  and  C5_7
REMARK    5  A    between atoms: C6_8  and  O3_9
REMARK    6  A    between atoms: C7_11  and  O4_12
REMARK    7  A    between atoms: C8_14  and  O5_15
REMARK    8  A    between atoms: C9_17  and  O6_18
REMARK    9  A    between atoms: C10_20  and  N1_21
REMARK   10  A    between atoms: N1_21  and  O7_22
REMARK   11  A    between atoms: N1_21  and  O8_24
REMARK   12  A    between atoms: C11_26  and  O9_27
REMARK   13  A    between atoms: C11_26  and  C12_29
REMARK   14  A    between atoms: C12_29  and  O10_30
REMARK   15  A    between atoms: C13_32  and  O11_33
REMARK   16  A    between atoms: C16_38  and  O13_39
REMARK   17  A    between atoms: O13_39  and  C17_40
REMARK   18  A    between atoms: C19_43  and  O15_44
REMARK   19  A    between atoms: C19_43  and  C20_46
REMARK   20  A    between atoms: C20_46  and  O16_47
ROOT
HETATM    1  C2  UNL     1     -13.668  19.085   7.035  1.00  0.00     0.231 C
HETATM    2  O2  UNL     1     -14.641  19.526   7.790  1.00  0.00    -0.329 OA
HETATM    3  C3  UNL     1     -15.093  20.816   8.039  1.00  0.00     0.139 C
HETATM    4  C13 UNL     1     -14.617  21.577   6.850  1.00  0.00     0.191 C
HETATM    5  C14 UNL     1     -13.244  21.252   6.323  1.00  0.00     0.195 C
HETATM    6  O12 UNL     1     -12.198  21.356   7.175  1.00  0.00    -0.377 OA
HETATM    7  C15 UNL     1     -11.502  20.277   7.588  1.00  0.00     0.206 C
HETATM    8  C16 UNL     1     -12.319  18.964   7.709  1.00  0.00     0.221 C
HETATM    9  C19 UNL     1     -13.290  19.865   5.765  1.00  0.00     0.166 C
ENDROOT
BRANCH   3  10
HETATM   10  C4  UNL     1     -14.750  21.199   9.414  1.00  0.00     0.033 C
BRANCH  10  11
HETATM   11  C5  UNL     1     -14.039  22.370   9.891  1.00  0.00     0.028 A
HETATM   12  C6  UNL     1     -12.771  22.257  10.459  1.00  0.00     0.114 A
HETATM   13  C7  UNL     1     -12.057  23.360  10.890  1.00  0.00     0.136 A
HETATM   14  C8  UNL     1     -12.606  24.642  10.768  1.00  0.00     0.137 A
HETATM   15  C9  UNL     1     -13.845  24.772  10.223  1.00  0.00     0.129 A
HETATM   16  C10 UNL     1     -14.559  23.647   9.789  1.00  0.00     0.114 A
BRANCH  12  17
HETATM   17  O3  UNL     1     -12.148  21.024  10.638  1.00  0.00    -0.357 OA
ATOM     18  H3  UNL     1     -11.247  20.872  10.379  1.00  0.00     0.217 HD
ENDBRANCH  12  17
BRANCH  13  19
HETATM   19  O4  UNL     1     -10.801  23.225  11.444  1.00  0.00    -0.356 OA
ATOM     20  H4  UNL     1     -10.387  23.945  11.904  1.00  0.00     0.218 HD
ENDBRANCH  13  19
BRANCH  14  21
HETATM   21  O5  UNL     1     -11.838  25.709  11.218  1.00  0.00    -0.356 OA
ATOM     22  H5  UNL     1     -11.995  26.016  12.104  1.00  0.00     0.218 HD
ENDBRANCH  14  21
BRANCH  15  23
HETATM   23  O6  UNL     1     -14.365  26.054  10.117  1.00  0.00    -0.356 OA
ATOM     24  H6  UNL     1     -15.311  26.141  10.079  1.00  0.00     0.218 HD
ENDBRANCH  15  23
BRANCH  16  25
HETATM   25  N1  UNL     1     -15.871  23.988   9.349  1.00  0.00    -0.033 NA
BRANCH  25  26
HETATM   26  O7  UNL     1     -16.563  24.472  10.467  1.00  0.00    -0.284 OA
ATOM     27  H7  UNL     1     -16.757  25.386  10.299  1.00  0.00     0.240 HD
ENDBRANCH  25  26
BRANCH  25  28
HETATM   28  O8  UNL     1     -15.865  25.053   8.516  1.00  0.00    -0.284 OA
ATOM     29  H8  UNL     1     -15.399  25.793   8.887  1.00  0.00     0.240 HD
ENDBRANCH  25  28
ENDBRANCH  16  25
ENDBRANCH  10  11
ENDBRANCH   3  10
BRANCH   3  30
HETATM   30  C11 UNL     1     -16.606  20.630   7.935  1.00  0.00     0.183 C
BRANCH  30  31
HETATM   31  O9  UNL     1     -17.148  21.132   6.747  1.00  0.00    -0.390 OA
ATOM     32  H9  UNL     1     -17.616  21.950   6.861  1.00  0.00     0.210 HD
ENDBRANCH  30  31
BRANCH  30  33
HETATM   33  C12 UNL     1     -17.513  21.011   9.005  1.00  0.00     0.199 C
BRANCH  33  34
HETATM   34  O10 UNL     1     -18.092  22.283   8.888  1.00  0.00    -0.398 OA
ATOM     35  H10 UNL     1     -18.088  22.811   9.677  1.00  0.00     0.209 HD
ENDBRANCH  33  34
ENDBRANCH  30  33
ENDBRANCH   3  30
BRANCH   4  36
HETATM   36  O11 UNL     1     -14.974  22.861   6.665  1.00  0.00    -0.389 OA
ATOM     37  H11 UNL     1     -15.863  23.089   6.421  1.00  0.00     0.210 HD
ENDBRANCH   4  36
BRANCH   1  38
HETATM   38  O1  UNL     1     -14.062  17.872   6.505  1.00  0.00    -0.355 OA
HETATM   39  C1  UNL     1     -14.805  17.003   7.184  1.00  0.00     0.205 C
ENDBRANCH   1  38
BRANCH   8  40
HETATM   40  O13 UNL     1     -12.353  18.583   9.060  1.00  0.00    -0.308 OA
BRANCH  40  41
HETATM   41  C17 UNL     1     -11.660  17.509   9.523  1.00  0.00     0.255 C
HETATM   42  C18 UNL     1     -10.337  17.736  10.173  1.00  0.00     0.126 C
HETATM   43  O14 UNL     1     -12.097  16.350   9.421  1.00  0.00    -0.266 OA
ENDBRANCH  40  41
ENDBRANCH   8  40
BRANCH   9  44
HETATM   44  O15 UNL     1     -11.970  19.416   5.396  1.00  0.00    -0.379 OA
ATOM     45  H15 UNL     1     -11.928  19.467   4.448  1.00  0.00     0.211 HD
ENDBRANCH   9  44
BRANCH   9  46
HETATM   46  C20 UNL     1     -14.034  19.616   4.537  1.00  0.00     0.210 C
BRANCH  46  47
HETATM   47  O16 UNL     1     -15.418  19.493   4.820  1.00  0.00    -0.398 OA
ATOM     48  H16 UNL     1     -15.829  18.903   4.200  1.00  0.00     0.209 HD
ENDBRANCH  46  47
ENDBRANCH   9  46
TORSDOF 20
ENDMDL