MODEL 2
REMARK VINA RESULT: -7.056161353      3.838      6.230
REMARK  17 active torsions:
REMARK  status: ('A' for Active; 'I' for Inactive)
REMARK    1  A    between atoms: O1_2  and  C2_3
REMARK    2  A    between atoms: C2_3  and  C3_5
REMARK    3  A    between atoms: C4_6  and  N1_7
REMARK    4  A    between atoms: C9_12  and  N2_13
REMARK    5  A    between atoms: C10_22  and  O4_23
REMARK    6  A    between atoms: C11_25  and  O5_26
REMARK    7  A    between atoms: O5_26  and  C12_27
REMARK       I    between atoms: C12_27  and  N6_29
REMARK    8  A    between atoms: N6_29  and  C13_31
REMARK    9  A    between atoms: C13_31  and  C14_32
REMARK   10  A    between atoms: C14_32  and  O7_33
REMARK   11  A    between atoms: C14_32  and  C15_35
REMARK   12  A    between atoms: C15_35  and  O8_36
REMARK   13  A    between atoms: C15_35  and  C16_38
REMARK   14  A    between atoms: C16_38  and  O9_39
REMARK   15  A    between atoms: C16_38  and  C17_41
REMARK   16  A    between atoms: C17_41  and  O10_42
REMARK   17  A    between atoms: C18_44  and  O11_46
ROOT
HETATM    1  C3  UNL     1     -14.241  18.499   6.546  1.00  0.00     0.105 C
HETATM    2  C4  UNL     1     -15.277  17.926   7.145  1.00  0.00     0.168 C
HETATM    3  O3  UNL     1     -15.416  18.245   8.515  1.00  0.00    -0.300 OA
HETATM    4  C10 UNL     1     -14.316  18.230   9.399  1.00  0.00     0.298 C
HETATM    5  C11 UNL     1     -13.082  18.803   8.746  1.00  0.00     0.228 C
HETATM    6  C18 UNL     1     -13.405  19.362   7.366  1.00  0.00     0.123 C
HETATM    7  C19 UNL     1     -12.117  19.793   6.719  1.00  0.00     0.055 C
ENDROOT
BRANCH   5   8
HETATM    8  O5  UNL     1     -11.983  17.919   8.728  1.00  0.00    -0.290 OA
BRANCH   8   9
HETATM    9  C12 UNL     1     -11.177  17.656   9.821  1.00  0.00     0.361 C
HETATM   10  O6  UNL     1     -10.761  18.625  10.474  1.00  0.00    -0.239 OA
HETATM   11  N6  UNL     1     -10.877  16.302  10.125  1.00  0.00    -0.334 N
ATOM     12  H6  UNL     1     -11.238  15.530   9.564  1.00  0.00     0.164 HD
BRANCH  11  13
HETATM   13  C13 UNL     1     -10.018  16.076  11.294  1.00  0.00     0.159 C
BRANCH  13  14
HETATM   14  C14 UNL     1     -10.772  15.322  12.369  1.00  0.00     0.167 C
BRANCH  14  15
HETATM   15  O7  UNL     1     -10.109  15.290  13.566  1.00  0.00    -0.391 OA
ATOM     16  H7  UNL     1      -9.959  14.407  13.885  1.00  0.00     0.210 HD
ENDBRANCH  14  15
BRANCH  14  17
HETATM   17  C15 UNL     1     -11.118  13.960  11.807  1.00  0.00     0.179 C
BRANCH  17  18
HETATM   18  O8  UNL     1     -10.058  13.645  10.932  1.00  0.00    -0.390 OA
ATOM     19  H8  UNL     1     -10.155  14.245  10.202  1.00  0.00     0.210 HD
ENDBRANCH  17  18
BRANCH  17  20
HETATM   20  C16 UNL     1     -11.124  12.890  12.876  1.00  0.00     0.173 C
BRANCH  20  21
HETATM   21  O9  UNL     1      -9.786  12.484  13.050  1.00  0.00    -0.391 OA
ATOM     22  H9  UNL     1      -9.730  12.095  13.916  1.00  0.00     0.210 HD
ENDBRANCH  20  21
BRANCH  20  23
HETATM   23  C17 UNL     1     -11.894  11.664  12.503  1.00  0.00     0.198 C
BRANCH  23  24
HETATM   24  O10 UNL     1     -11.052  10.549  12.565  1.00  0.00    -0.398 OA
ATOM     25  H10 UNL     1     -10.356  10.643  11.925  1.00  0.00     0.209 HD
ENDBRANCH  23  24
ENDBRANCH  20  23
ENDBRANCH  17  20
ENDBRANCH  14  17
ENDBRANCH  13  14
ENDBRANCH  11  13
ENDBRANCH   8   9
ENDBRANCH   5   8
BRANCH   4  26
HETATM   26  O4  UNL     1     -14.699  18.915  10.549  1.00  0.00    -0.368 OA
ATOM     27  H4  UNL     1     -14.452  18.379  11.293  1.00  0.00     0.212 HD
ENDBRANCH   4  26
BRANCH   6  28
HETATM   28  O11 UNL     1     -14.136  20.567   7.549  1.00  0.00    -0.382 OA
ATOM     29  H11 UNL     1     -13.516  21.276   7.427  1.00  0.00     0.211 HD
ENDBRANCH   6  28
BRANCH   1  30
HETATM   30  C2  UNL     1     -13.974  18.267   5.147  1.00  0.00     0.296 C
HETATM   31  O2  UNL     1     -14.266  19.089   4.249  1.00  0.00    -0.259 OA
BRANCH  30  32
HETATM   32  O1  UNL     1     -13.368  17.094   4.739  1.00  0.00    -0.323 OA
HETATM   33  C1  UNL     1     -13.991  16.293   3.777  1.00  0.00     0.213 C
ENDBRANCH  30  32
ENDBRANCH   1  30
BRANCH   2  34
HETATM   34  N1  UNL     1     -16.214  17.054   6.531  1.00  0.00    -0.286 N
HETATM   35  C5  UNL     1     -17.170  17.543   5.684  1.00  0.00     0.103 A
HETATM   36  C6  UNL     1     -18.081  16.732   5.042  1.00  0.00     0.051 A
HETATM   37  C7  UNL     1     -18.064  15.375   5.232  1.00  0.00     0.079 A
HETATM   38  C8  UNL     1     -17.102  14.858   6.086  1.00  0.00     0.118 A
HETATM   39  N5  UNL     1     -18.829  14.274   4.749  1.00  0.00    -0.282 N
HETATM   40  C9  UNL     1     -16.215  15.712   6.702  1.00  0.00     0.138 A
HETATM   41  N3  UNL     1     -17.325  13.455   6.085  1.00  0.00    -0.278 N
HETATM   42  N4  UNL     1     -18.562  13.134   5.525  1.00  0.00    -0.022 NA
ATOM     43  H3  UNL     1     -16.664  12.769   6.448  1.00  0.00     0.184 HD
ATOM     44  H5  UNL     1     -19.473  14.308   3.959  1.00  0.00     0.184 HD
BRANCH  40  45
HETATM   45  N2  UNL     1     -15.311  15.203   7.497  1.00  0.00    -0.383 N
ATOM     46  H22 UNL     1     -14.871  15.813   8.185  1.00  0.00     0.157 HD
ATOM     47  H21 UNL     1     -15.093  14.211   7.390  1.00  0.00     0.157 HD
ENDBRANCH  40  45
ENDBRANCH   2  34
TORSDOF 17
ENDMDL