MODEL 5
REMARK VINA RESULT: -6.497540709      2.032      3.169
REMARK  17 active torsions:
REMARK  status: ('A' for Active; 'I' for Inactive)
REMARK    1  A    between atoms: C3_4  and  N1_5
REMARK    2  A    between atoms: N1_5  and  O2_7
REMARK    3  A    between atoms: N2_10  and  O3_12
REMARK    4  A    between atoms: C5_14  and  O4_15
REMARK    5  A    between atoms: O4_15  and  C6_16
REMARK    6  A    between atoms: C7_17  and  N3_18
REMARK    7  A    between atoms: C9_23  and  N4_24
REMARK    8  A    between atoms: C10_28  and  O5_29
REMARK    9  A    between atoms: O5_29  and  C11_30
REMARK   10  A    between atoms: N5_33  and  C13_35
REMARK   11  A    between atoms: C13_35  and  C14_36
REMARK   12  A    between atoms: C14_36  and  C15_37
REMARK   13  A    between atoms: C15_37  and  O7_38
REMARK   14  A    between atoms: C16_40  and  N6_41
REMARK   15  A    between atoms: C17_45  and  O8_46
REMARK   16  A    between atoms: C18_48  and  O9_49
REMARK   17  A    between atoms: C19_51  and  N7_53
ROOT
HETATM    1  C6  UNL     1     -14.156  16.266   5.122  1.00  0.00     0.184 C
HETATM    2  C7  UNL     1     -14.276  17.489   4.289  1.00  0.00     0.217 C
HETATM    3  C8  UNL     1     -15.436  18.384   4.609  1.00  0.00     0.071 C
HETATM    4  C9  UNL     1     -15.565  18.759   6.038  1.00  0.00     0.217 C
HETATM    5  C10 UNL     1     -14.674  17.883   6.886  1.00  0.00     0.186 C
HETATM    6  C18 UNL     1     -14.851  16.443   6.451  1.00  0.00     0.180 C
ENDROOT
BRANCH   1   7
HETATM    7  O4  UNL     1     -14.492  15.092   4.486  1.00  0.00    -0.367 OA
BRANCH   7   8
HETATM    8  C5  UNL     1     -15.331  15.126   3.434  1.00  0.00     0.212 C
HETATM    9  C4  UNL     1     -16.539  14.260   3.756  1.00  0.00     0.091 C
HETATM   10  C3  UNL     1     -17.445  14.059   2.605  1.00  0.00     0.293 C
HETATM   11  N2  UNL     1     -16.742  13.746   4.866  1.00  0.00    -0.270 N
HETATM   12  O1  UNL     1     -16.770  13.193   1.741  1.00  0.00    -0.352 OA
HETATM   13  C2  UNL     1     -15.452  13.023   2.075  1.00  0.00     0.159 C
HETATM   14  C1  UNL     1     -14.750  12.310   0.943  1.00  0.00     0.042 C
HETATM   15  C19 UNL     1     -14.797  14.412   2.172  1.00  0.00     0.176 C
HETATM   16  C20 UNL     1     -15.195  15.141   0.922  1.00  0.00     0.052 C
ATOM     17  H2  UNL     1     -16.022  13.985   5.549  1.00  0.00     0.193 HD
BRANCH  10  18
HETATM   18  N1  UNL     1     -18.713  13.502   2.918  1.00  0.00    -0.270 N
ATOM     19  H1  UNL     1     -18.963  12.550   2.650  1.00  0.00     0.190 HD
BRANCH  18  20
HETATM   20  O2  UNL     1     -19.559  14.290   3.579  1.00  0.00    -0.292 OA
ATOM     21  H2  UNL     1     -19.370  14.436   4.498  1.00  0.00     0.244 HD
ENDBRANCH  18  20
ENDBRANCH  10  18
BRANCH  15  22
HETATM   22  N7  UNL     1     -13.390  14.188   2.308  1.00  0.00    -0.065 N
ATOM     23  H73 UNL     1     -12.906  14.940   2.798  1.00  0.00     0.275 HD
ATOM     24  H72 UNL     1     -13.161  13.442   2.964  1.00  0.00     0.275 HD
ATOM     25  H71 UNL     1     -13.032  14.022   1.367  1.00  0.00     0.275 HD
ENDBRANCH  15  22
BRANCH  11  26
HETATM   26  O3  UNL     1     -17.685  12.953   5.370  1.00  0.00    -0.290 OA
ATOM     27  H3  UNL     1     -17.701  12.061   5.695  1.00  0.00     0.244 HD
ENDBRANCH  11  26
ENDBRANCH   7   8
ENDBRANCH   1   7
BRANCH   2  28
HETATM   28  N3  UNL     1     -13.069  18.334   4.321  1.00  0.00    -0.072 N
ATOM     29  H33 UNL     1     -12.843  18.609   5.277  1.00  0.00     0.274 HD
ATOM     30  H32 UNL     1     -12.236  17.786   4.103  1.00  0.00     0.274 HD
ATOM     31  H31 UNL     1     -13.134  19.152   3.714  1.00  0.00     0.274 HD
ENDBRANCH   2  28
BRANCH   6  32
HETATM   32  O9  UNL     1     -14.175  15.717   7.468  1.00  0.00    -0.390 OA
ATOM     33  H9  UNL     1     -14.284  16.142   8.310  1.00  0.00     0.210 HD
ENDBRANCH   6  32
BRANCH   5  34
HETATM   34  O5  UNL     1     -15.022  18.009   8.253  1.00  0.00    -0.348 OA
BRANCH  34  35
HETATM   35  C11 UNL     1     -14.127  18.836   8.878  1.00  0.00     0.299 C
HETATM   36  O6  UNL     1     -13.767  18.189  10.112  1.00  0.00    -0.304 OA
HETATM   37  C12 UNL     1     -12.480  17.681   9.973  1.00  0.00     0.150 C
HETATM   38  N5  UNL     1     -11.957  16.605  10.439  1.00  0.00    -0.372 N
HETATM   39  C16 UNL     1     -11.786  18.685   9.131  1.00  0.00     0.290 C
ATOM     40  H5  UNL     1     -12.532  15.987  11.010  1.00  0.00     0.161 HD
HETATM   41  C17 UNL     1     -12.855  19.047   8.130  1.00  0.00     0.212 C
BRANCH  38  42
HETATM   42  C13 UNL     1     -10.597  16.243  10.188  1.00  0.00     0.123 C
BRANCH  42  43
HETATM   43  C14 UNL     1      -9.893  16.107  11.533  1.00  0.00     0.045 C
BRANCH  43  44
HETATM   44  C15 UNL     1     -10.729  15.219  12.455  1.00  0.00     0.165 C
BRANCH  44  45
HETATM   45  O7  UNL     1     -10.710  15.750  13.738  1.00  0.00    -0.401 OA
ATOM     46  H7  UNL     1     -11.429  15.381  14.238  1.00  0.00     0.209 HD
ENDBRANCH  44  45
ENDBRANCH  43  44
ENDBRANCH  42  43
ENDBRANCH  38  42
BRANCH  39  47
HETATM   47  N6  UNL     1     -11.494  19.822   9.984  1.00  0.00    -0.065 N
ATOM     48  H63 UNL     1     -11.262  20.666   9.461  1.00  0.00     0.275 HD
ATOM     49  H62 UNL     1     -12.319  20.189  10.461  1.00  0.00     0.275 HD
ATOM     50  H61 UNL     1     -10.757  19.531  10.625  1.00  0.00     0.275 HD
ENDBRANCH  39  47
BRANCH  41  51
HETATM   51  O8  UNL     1     -12.630  20.378   7.782  1.00  0.00    -0.388 OA
ATOM     52  H8  UNL     1     -11.840  20.507   7.270  1.00  0.00     0.210 HD
ENDBRANCH  41  51
ENDBRANCH  34  35
ENDBRANCH   5  34
BRANCH   4  53
HETATM   53  N4  UNL     1     -16.942  18.539   6.511  1.00  0.00    -0.072 N
ATOM     54  H43 UNL     1     -17.573  18.306   5.744  1.00  0.00     0.274 HD
ATOM     55  H42 UNL     1     -17.025  17.674   7.045  1.00  0.00     0.274 HD
ATOM     56  H41 UNL     1     -17.273  19.345   7.042  1.00  0.00     0.274 HD
ENDBRANCH   4  53
TORSDOF 17
ENDMDL