MODEL 3
REMARK VINA RESULT: -7.390842550      3.779      7.197
REMARK  12 active torsions:
REMARK  status: ('A' for Active; 'I' for Inactive)
REMARK    1  A    between atoms: C2_5  and  C3_6
REMARK       I    between atoms: C3_6  and  N2_8
REMARK    2  A    between atoms: N2_8  and  N3_9
REMARK    3  A    between atoms: N3_9  and  C4_11
REMARK    4  A    between atoms: C4_11  and  N4_12
REMARK    5  A    between atoms: C4_11  and  C5_16
REMARK    6  A    between atoms: C5_16  and  O2_17
REMARK    7  A    between atoms: N6_23  and  C9_24
REMARK    8  A    between atoms: C10_30  and  C11_31
REMARK    9  A    between atoms: C12_35  and  C13_36
REMARK   10  A    between atoms: C15_42  and  O6_43
REMARK   11  A    between atoms: C16_45  and  O7_46
REMARK   12  A    between atoms: C17_48  and  O8_49
ROOT
HETATM    1  N1  UNL     1     -16.410  19.122   7.819  1.00  0.00    -0.384 N
ATOM      2  H11 UNL     1     -17.388  19.350   7.642  1.00  0.00     0.157 HD
ATOM      3  H12 UNL     1     -16.039  18.195   7.610  1.00  0.00     0.157 HD
HETATM    4  C1  UNL     1     -15.578  19.954   8.331  1.00  0.00     0.126 A
HETATM    5  C2  UNL     1     -14.266  19.648   8.570  1.00  0.00     0.119 A
HETATM    6  C6  UNL     1     -13.407  20.616   9.111  1.00  0.00     0.095 A
HETATM    7  N5  UNL     1     -12.068  20.292   9.360  1.00  0.00    -0.099 NA
HETATM    8  C7  UNL     1     -13.940  21.869   9.384  1.00  0.00     0.078 A
HETATM    9  C8  UNL     1     -15.266  22.155   9.134  1.00  0.00     0.057 A
HETATM   10  N6  UNL     1     -16.075  21.195   8.611  1.00  0.00    -0.280 N
HETATM   11  C14 UNL     1     -15.514  23.538   9.514  1.00  0.00     0.095 C
HETATM   12  C15 UNL     1     -15.439  24.572   8.446  1.00  0.00     0.161 C
HETATM   13  C16 UNL     1     -15.094  25.826   9.244  1.00  0.00     0.178 C
HETATM   14  C17 UNL     1     -13.973  25.337  10.127  1.00  0.00     0.172 C
HETATM   15  C18 UNL     1     -14.312  23.886  10.416  1.00  0.00     0.125 C
HETATM   16  N12 UNL     1     -13.264  23.009   9.930  1.00  0.00    -0.379 N
ATOM     17  H12 UNL     1     -12.258  23.169   9.969  1.00  0.00     0.160 HD
ENDROOT
BRANCH  10  18
HETATM   18  C9  UNL     1     -17.430  21.469   8.370  1.00  0.00     0.168 A
HETATM   19  N7  UNL     1     -17.968  21.884   7.184  1.00  0.00    -0.223 N
HETATM   20  O3  UNL     1     -19.224  22.053   7.295  1.00  0.00    -0.155 OA
ATOM     21  H7  UNL     1     -17.435  22.037   6.328  1.00  0.00     0.198 HD
HETATM   22  N8  UNL     1     -19.578  21.772   8.512  1.00  0.00    -0.234 N
HETATM   23  C10 UNL     1     -18.480  21.396   9.230  1.00  0.00     0.148 A
ATOM     24  H8  UNL     1     -20.529  21.824   8.876  1.00  0.00     0.197 HD
BRANCH  23  25
HETATM   25  C11 UNL     1     -18.455  21.021  10.634  1.00  0.00     0.161 A
HETATM   26  N9  UNL     1     -18.531  21.789  11.726  1.00  0.00    -0.240 N
HETATM   27  O4  UNL     1     -18.505  21.065  12.801  1.00  0.00    -0.212 OA
ATOM     28  H9  UNL     1     -18.599  22.806  11.714  1.00  0.00     0.196 HD
HETATM   29  C12 UNL     1     -18.413  19.793  12.486  1.00  0.00     0.237 A
HETATM   30  N11 UNL     1     -18.381  19.747  11.126  1.00  0.00    -0.314 N
ATOM     31  H11 UNL     1     -18.311  18.899  10.564  1.00  0.00     0.170 HD
BRANCH  29  32
HETATM   32  C13 UNL     1     -18.355  18.631  13.362  1.00  0.00     0.308 C
HETATM   33  N10 UNL     1     -17.892  18.680  14.688  1.00  0.00    -0.054 NA
HETATM   34  O5  UNL     1     -18.747  17.538  12.881  1.00  0.00    -0.267 OA
ENDBRANCH  29  32
ENDBRANCH  23  25
ENDBRANCH  10  18
BRANCH   5  35
HETATM   35  C3  UNL     1     -13.679  18.360   8.263  1.00  0.00     0.351 C
HETATM   36  O1  UNL     1     -13.753  17.975   7.076  1.00  0.00    -0.249 OA
HETATM   37  N2  UNL     1     -13.056  17.571   9.266  1.00  0.00    -0.284 NA
BRANCH  37  38
HETATM   38  N3  UNL     1     -12.512  16.876  10.138  1.00  0.00    -0.235 N
ATOM     39  H3  UNL     1     -13.003  16.025  10.409  1.00  0.00     0.197 HD
BRANCH  38  40
HETATM   40  C4  UNL     1     -11.276  17.134  10.805  1.00  0.00     0.331 C
BRANCH  40  41
HETATM   41  N4  UNL     1     -10.368  17.849   9.962  1.00  0.00    -0.054 N
ATOM     42  H43 UNL     1     -10.123  17.308   9.133  1.00  0.00     0.277 HD
ATOM     43  H42 UNL     1     -10.825  18.638   9.504  1.00  0.00     0.277 HD
ATOM     44  H41 UNL     1      -9.538  18.143  10.475  1.00  0.00     0.277 HD
ENDBRANCH  40  41
BRANCH  40  45
HETATM   45  C5  UNL     1     -10.650  15.824  11.317  1.00  0.00     0.220 C
BRANCH  45  46
HETATM   46  O2  UNL     1      -9.501  16.016  12.038  1.00  0.00    -0.397 OA
ATOM     47  H2  UNL     1      -9.412  15.418  12.770  1.00  0.00     0.209 HD
ENDBRANCH  45  46
ENDBRANCH  40  45
ENDBRANCH  38  40
ENDBRANCH  37  38
ENDBRANCH   5  35
BRANCH  12  48
HETATM   48  O6  UNL     1     -16.677  24.817   7.888  1.00  0.00    -0.392 OA
ATOM     49  H6  UNL     1     -16.602  25.204   7.023  1.00  0.00     0.210 HD
ENDBRANCH  12  48
BRANCH  13  50
HETATM   50  O7  UNL     1     -14.762  26.875   8.429  1.00  0.00    -0.390 OA
ATOM     51  H7  UNL     1     -13.853  27.130   8.531  1.00  0.00     0.210 HD
ENDBRANCH  13  50
BRANCH  14  52
HETATM   52  O8  UNL     1     -14.037  26.030  11.329  1.00  0.00    -0.391 OA
ATOM     53  H8  UNL     1     -13.197  26.446  11.475  1.00  0.00     0.210 HD
ENDBRANCH  14  52
TORSDOF 12
ENDMDL