MODEL 2
REMARK VINA RESULT: -5.831356622      2.231      4.068
REMARK  17 active torsions:
REMARK  status: ('A' for Active; 'I' for Inactive)
REMARK    1  A    between atoms: N1_1  and  C1_5
REMARK    2  A    between atoms: C3_7  and  N2_8
REMARK    3  A    between atoms: C4_12  and  O1_13
REMARK    4  A    between atoms: O1_13  and  C5_14
REMARK    5  A    between atoms: C7_16  and  O2_17
REMARK    6  A    between atoms: C8_19  and  O3_20
REMARK    7  A    between atoms: C9_22  and  N3_23
REMARK    8  A    between atoms: C10_30  and  O4_31
REMARK    9  A    between atoms: O4_31  and  C11_32
REMARK   10  A    between atoms: C11_32  and  C12_33
REMARK   11  A    between atoms: C13_37  and  O5_38
REMARK   12  A    between atoms: O5_38  and  C14_39
REMARK   13  A    between atoms: C16_42  and  C17_43
REMARK   14  A    between atoms: C17_43  and  O6_44
REMARK   15  A    between atoms: C18_49  and  O7_50
REMARK   16  A    between atoms: C19_52  and  O8_53
REMARK   17  A    between atoms: C20_55  and  O9_56
ROOT
HETATM    1  C1  UNL     1     -14.191  20.508   4.421  1.00  0.00     0.241 C
HETATM    2  C2  UNL     1     -14.760  20.699   5.812  1.00  0.00     0.074 C
HETATM    3  C3  UNL     1     -13.754  21.512   6.599  1.00  0.00     0.241 C
HETATM    4  C4  UNL     1     -12.638  20.536   6.992  1.00  0.00     0.355 C
HETATM    5  N4  UNL     1     -12.369  19.714   5.843  1.00  0.00    -0.018 N
ATOM      6  H41 UNL     1     -12.852  18.819   5.921  1.00  0.00     0.283 HD
ATOM      7  H42 UNL     1     -11.401  19.389   5.852  1.00  0.00     0.283 HD
HETATM    8  C10 UNL     1     -12.677  20.348   4.588  1.00  0.00     0.354 C
ENDROOT
BRANCH   8   9
HETATM    9  O4  UNL     1     -12.118  19.662   3.537  1.00  0.00    -0.355 OA
BRANCH   9  10
HETATM   10  C11 UNL     1     -13.063  19.327   2.594  1.00  0.00     0.206 C
BRANCH  10  11
HETATM   11  C12 UNL     1     -13.156  17.835   2.371  1.00  0.00     0.243 C
HETATM   12  N5  UNL     1     -12.958  17.129   3.642  1.00  0.00    -0.037 N
HETATM   13  C13 UNL     1     -13.304  15.718   3.429  1.00  0.00     0.355 C
ATOM     14  H52 UNL     1     -12.020  17.254   4.022  1.00  0.00     0.281 HD
ATOM     15  H51 UNL     1     -13.474  17.551   4.414  1.00  0.00     0.281 HD
HETATM   16  C18 UNL     1     -12.372  15.182   2.392  1.00  0.00     0.205 C
HETATM   17  C19 UNL     1     -12.506  15.887   1.067  1.00  0.00     0.182 C
HETATM   18  C20 UNL     1     -12.183  17.364   1.329  1.00  0.00     0.182 C
BRANCH  13  19
HETATM   19  O5  UNL     1     -14.633  15.665   3.097  1.00  0.00    -0.323 OA
BRANCH  19  20
HETATM   20  C14 UNL     1     -15.317  14.623   3.715  1.00  0.00     0.333 C
HETATM   21  C15 UNL     1     -16.802  14.863   3.473  1.00  0.00     0.137 C
HETATM   22  S1  UNL     1     -17.119  16.055   4.840  1.00  0.00    -0.130 SA
HETATM   23  C16 UNL     1     -15.521  15.809   5.715  1.00  0.00     0.273 C
HETATM   24  N6  UNL     1     -15.102  14.555   5.125  1.00  0.00    -0.033 N
ATOM     25  H62 UNL     1     -15.560  13.750   5.552  1.00  0.00     0.281 HD
ATOM     26  H61 UNL     1     -14.140  14.312   5.363  1.00  0.00     0.281 HD
BRANCH  23  27
HETATM   27  C17 UNL     1     -15.854  15.552   7.159  1.00  0.00     0.208 C
BRANCH  27  28
HETATM   28  O6  UNL     1     -15.302  14.340   7.585  1.00  0.00    -0.398 OA
ATOM     29  H6  UNL     1     -15.547  14.157   8.484  1.00  0.00     0.209 HD
ENDBRANCH  27  28
ENDBRANCH  23  27
ENDBRANCH  19  20
ENDBRANCH  13  19
BRANCH  16  30
HETATM   30  O7  UNL     1     -12.428  13.796   2.275  1.00  0.00    -0.388 OA
ATOM     31  H7  UNL     1     -12.147  13.485   1.423  1.00  0.00     0.210 HD
ENDBRANCH  16  30
BRANCH  17  32
HETATM   32  O8  UNL     1     -11.509  15.412   0.219  1.00  0.00    -0.390 OA
ATOM     33  H8  UNL     1     -11.196  16.139  -0.307  1.00  0.00     0.210 HD
ENDBRANCH  17  32
BRANCH  18  34
HETATM   34  O9  UNL     1     -12.323  18.128   0.197  1.00  0.00    -0.391 OA
ATOM     35  H9  UNL     1     -11.477  18.223  -0.225  1.00  0.00     0.210 HD
ENDBRANCH  18  34
ENDBRANCH  10  11
ENDBRANCH   9  10
ENDBRANCH   8   9
BRANCH   1  36
HETATM   36  N1  UNL     1     -14.498  21.729   3.680  1.00  0.00    -0.071 N
ATOM     37  H13 UNL     1     -15.119  22.362   4.184  1.00  0.00     0.274 HD
ATOM     38  H12 UNL     1     -13.705  22.366   3.603  1.00  0.00     0.274 HD
ATOM     39  H11 UNL     1     -14.867  21.432   2.778  1.00  0.00     0.274 HD
ENDBRANCH   1  36
BRANCH   4  40
HETATM   40  O1  UNL     1     -13.136  19.804   8.065  1.00  0.00    -0.350 OA
BRANCH  40  41
HETATM   41  C5  UNL     1     -12.357  18.702   8.380  1.00  0.00     0.159 C
HETATM   42  C6  UNL     1     -11.165  19.054   9.226  1.00  0.00     0.068 C
HETATM   43  C7  UNL     1     -11.052  18.032  10.314  1.00  0.00     0.151 C
HETATM   44  C8  UNL     1     -12.182  17.054  10.139  1.00  0.00     0.179 C
HETATM   45  C9  UNL     1     -13.169  17.825   9.307  1.00  0.00     0.243 C
BRANCH  43  46
HETATM   46  O2  UNL     1      -9.804  17.406  10.260  1.00  0.00    -0.393 OA
ATOM     47  H2  UNL     1      -9.535  17.135  11.130  1.00  0.00     0.210 HD
ENDBRANCH  43  46
BRANCH  44  48
HETATM   48  O3  UNL     1     -11.777  15.865   9.535  1.00  0.00    -0.391 OA
ATOM     49  H3  UNL     1     -11.078  15.993   8.905  1.00  0.00     0.210 HD
ENDBRANCH  44  48
BRANCH  45  50
HETATM   50  N3  UNL     1     -13.927  18.685  10.209  1.00  0.00    -0.070 N
ATOM     51  H33 UNL     1     -14.558  19.314   9.713  1.00  0.00     0.274 HD
ATOM     52  H32 UNL     1     -14.631  18.172  10.740  1.00  0.00     0.274 HD
ATOM     53  H31 UNL     1     -13.269  19.182  10.809  1.00  0.00     0.274 HD
ENDBRANCH  45  50
ENDBRANCH  40  41
ENDBRANCH   4  40
BRANCH   3  54
HETATM   54  N2  UNL     1     -14.427  22.010   7.781  1.00  0.00    -0.071 N
ATOM     55  H23 UNL     1     -14.003  22.860   8.153  1.00  0.00     0.274 HD
ATOM     56  H22 UNL     1     -15.349  22.398   7.580  1.00  0.00     0.274 HD
ATOM     57  H21 UNL     1     -14.455  21.250   8.460  1.00  0.00     0.274 HD
ENDBRANCH   3  54
TORSDOF 17
ENDMDL