MODEL 1
REMARK VINA RESULT: -7.413912497      0.000      0.000
REMARK  15 active torsions:
REMARK  status: ('A' for Active; 'I' for Inactive)
REMARK    1  A    between atoms: N1_1  and  C1_4
REMARK    2  A    between atoms: C2_7  and  C3_8
REMARK    3  A    between atoms: C3_8  and  O1_9
REMARK    4  A    between atoms: C3_8  and  C12_28
REMARK    5  A    between atoms: O1_9  and  C4_10
REMARK    6  A    between atoms: C4_10  and  C5_12
REMARK    7  A    between atoms: C5_12  and  O3_13
REMARK    8  A    between atoms: C5_12  and  C6_15
REMARK    9  A    between atoms: C6_15  and  N3_16
REMARK   10  A    between atoms: C9_19  and  C10_20
REMARK   11  A    between atoms: N9_36  and  N10_37
REMARK   12  A    between atoms: C16_40  and  C17_41
REMARK   13  A    between atoms: C17_41  and  O6_42
REMARK   14  A    between atoms: C18_44  and  O7_45
REMARK   15  A    between atoms: C19_47  and  N11_48
ROOT
HETATM    1  C3  UNL     1     -14.169  19.571   6.761  1.00  0.00     0.235 C
ENDROOT
BRANCH   1   2
HETATM    2  C2  UNL     1     -13.409  19.284   7.998  1.00  0.00     0.073 C
HETATM    3  N2  UNL     1     -12.732  20.342   8.552  1.00  0.00    -0.192 N
HETATM    4  C1  UNL     1     -11.817  20.309   9.529  1.00  0.00     0.677 C
ATOM      5  H2  UNL     1     -12.953  21.263   8.174  1.00  0.00     0.184 HD
HETATM    6  N12 UNL     1     -11.176  19.273  10.084  1.00  0.00    -0.175 N
HETATM    7  C19 UNL     1     -11.387  17.946   9.860  1.00  0.00     0.148 C
ATOM      8  H12 UNL     1     -10.443  19.506  10.755  1.00  0.00     0.186 HD
HETATM    9  C18 UNL     1     -12.452  17.364   9.186  1.00  0.00     0.120 C
HETATM   10  C16 UNL     1     -13.472  17.992   8.456  1.00  0.00     0.028 C
BRANCH   4  11
HETATM   11  N1  UNL     1     -11.509  21.462  10.006  1.00  0.00    -0.234 N
ATOM     12  H12 UNL     1     -10.909  22.032   9.409  1.00  0.00     0.174 HD
ATOM     13  H11 UNL     1     -11.906  21.658  10.925  1.00  0.00     0.174 HD
ENDBRANCH   4  11
BRANCH   7  14
HETATM   14  N11 UNL     1     -10.535  17.109  10.301  1.00  0.00    -0.383 N
ATOM     15 2H11 UNL     1     -10.590  16.142   9.984  1.00  0.00     0.157 HD
ATOM     16 1H11 UNL     1      -9.860  17.509  10.952  1.00  0.00     0.157 HD
ENDBRANCH   7  14
BRANCH   9  17
HETATM   17  O7  UNL     1     -12.546  15.997   9.222  1.00  0.00    -0.356 OA
ATOM     18  H7  UNL     1     -11.708  15.549   9.254  1.00  0.00     0.218 HD
ENDBRANCH   9  17
BRANCH  10  19
HETATM   19  C17 UNL     1     -14.680  17.235   8.158  1.00  0.00     0.207 C
BRANCH  19  20
HETATM   20  O6  UNL     1     -14.303  16.273   7.174  1.00  0.00    -0.396 OA
ATOM     21  H6  UNL     1     -13.363  16.168   7.262  1.00  0.00     0.209 HD
ENDBRANCH  19  20
ENDBRANCH  10  19
ENDBRANCH   1   2
BRANCH   1  22
HETATM   22  O1  UNL     1     -14.918  20.773   7.064  1.00  0.00    -0.301 OA
BRANCH  22  23
HETATM   23  C4  UNL     1     -16.122  20.746   7.740  1.00  0.00     0.290 C
HETATM   24  O2  UNL     1     -17.080  20.167   7.195  1.00  0.00    -0.262 OA
BRANCH  23  25
HETATM   25  C5  UNL     1     -16.181  21.407   9.066  1.00  0.00     0.235 C
BRANCH  25  26
HETATM   26  O3  UNL     1     -17.107  20.648   9.820  1.00  0.00    -0.384 OA
ATOM     27  H3  UNL     1     -16.926  20.863  10.727  1.00  0.00     0.210 HD
ENDBRANCH  25  26
BRANCH  25  28
HETATM   28  C6  UNL     1     -16.693  22.837   8.979  1.00  0.00     0.169 C
BRANCH  28  29
HETATM   29  N3  UNL     1     -15.671  23.802   9.385  1.00  0.00    -0.363 N
HETATM   30  C7  UNL     1     -15.650  25.124   9.174  1.00  0.00     0.091 A
HETATM   31  C8  UNL     1     -14.519  25.694   9.710  1.00  0.00     0.034 A
HETATM   32  C9  UNL     1     -13.806  24.674  10.279  1.00  0.00     0.027 A
HETATM   33  C11 UNL     1     -14.528  23.523  10.070  1.00  0.00     0.106 A
BRANCH  32  34
HETATM   34  C10 UNL     1     -12.515  24.784  10.983  1.00  0.00     0.142 C
HETATM   35  N4  UNL     1     -11.869  25.859  11.185  1.00  0.00    -0.270 N
HETATM   36  N5  UNL     1     -10.676  25.570  11.892  1.00  0.00    -0.007 NA
ATOM     37  H4  UNL     1     -12.164  26.788  10.885  1.00  0.00     0.185 HD
HETATM   38  N6  UNL     1     -10.479  24.181  11.760  1.00  0.00    -0.007 NA
HETATM   39  N7  UNL     1     -11.772  23.725  11.552  1.00  0.00    -0.270 N
ATOM     40  H7  UNL     1     -12.124  22.793  11.771  1.00  0.00     0.185 HD
ENDBRANCH  32  34
ENDBRANCH  28  29
ENDBRANCH  25  28
ENDBRANCH  23  25
ENDBRANCH  22  23
ENDBRANCH   1  22
BRANCH   1  41
HETATM   41  C12 UNL     1     -13.286  19.979   5.641  1.00  0.00     0.079 A
HETATM   42  C13 UNL     1     -12.723  21.233   5.662  1.00  0.00     0.104 A
HETATM   43  C14 UNL     1     -11.891  21.597   4.600  1.00  0.00     0.251 A
HETATM   44  O4  UNL     1     -11.358  22.734   4.583  1.00  0.00    -0.268 OA
HETATM   45  N8  UNL     1     -11.630  20.771   3.575  1.00  0.00    -0.274 N
HETATM   46  C15 UNL     1     -12.202  19.547   3.593  1.00  0.00     0.348 A
ATOM     47  H8  UNL     1     -11.020  21.057   2.809  1.00  0.00     0.173 HD
HETATM   48  O5  UNL     1     -11.958  18.784   2.641  1.00  0.00    -0.245 OA
HETATM   49  N9  UNL     1     -13.012  19.170   4.611  1.00  0.00    -0.213 N
BRANCH  49  50
HETATM   50  N10 UNL     1     -13.563  17.911   4.561  1.00  0.00    -0.334 N
ATOM     51 2H10 UNL     1     -13.026  17.141   4.960  1.00  0.00     0.177 HD
ATOM     52 1H10 UNL     1     -14.478  17.772   4.133  1.00  0.00     0.177 HD
ENDBRANCH  49  50
ENDBRANCH   1  41
TORSDOF 15
ENDMDL