MODEL 4
REMARK VINA RESULT: -9.574304947      1.920      2.483
REMARK  15 active torsions:
REMARK  status: ('A' for Active; 'I' for Inactive)
REMARK    1  A    between atoms: C2_2  and  C4_4
REMARK    2  A    between atoms: C2_2  and  N1_8
REMARK    3  A    between atoms: C4_4  and  C5_5
REMARK    4  A    between atoms: C5_5  and  O1_6
REMARK    5  A    between atoms: N1_8  and  C6_11
REMARK    6  A    between atoms: C6_11  and  C7_12
REMARK    7  A    between atoms: C7_12  and  C8_13
REMARK    8  A    between atoms: C8_13  and  C9_14
REMARK    9  A    between atoms: C9_14  and  N2_15
REMARK   10  A    between atoms: N2_15  and  C10_17
REMARK   11  A    between atoms: C10_17  and  C11_18
REMARK   12  A    between atoms: C11_18  and  C12_19
REMARK   13  A    between atoms: C21_34  and  C22_35
REMARK   14  A    between atoms: C22_35  and  C23_36
REMARK   15  A    between atoms: C23_36  and  N5_37
ROOT
HETATM    1  C9  UNL     1      22.614  17.191  36.121  1.00  0.00     0.025 C
HETATM    2  C18 UNL     1      21.449  17.665  35.722  1.00  0.00     0.108 A
HETATM    3  C19 UNL     1      20.716  17.066  34.727  1.00  0.00     0.276 A
HETATM    4  O2  UNL     1      21.083  16.024  34.102  1.00  0.00    -0.266 OA
HETATM    5  N3  UNL     1      19.522  17.572  34.338  1.00  0.00    -0.265 N
ATOM      6  H3  UNL     1      19.001  17.105  33.596  1.00  0.00     0.190 HD
HETATM    7  N4  UNL     1      19.020  18.651  34.897  1.00  0.00    -0.294 N
ATOM      8  H4  UNL     1      18.116  18.997  34.575  1.00  0.00     0.187 HD
HETATM    9  C20 UNL     1      19.650  19.308  35.870  1.00  0.00     0.095 A
HETATM   10  C21 UNL     1      19.179  20.396  36.465  1.00  0.00     0.010 C
HETATM   11  C28 UNL     1      20.892  18.798  36.286  1.00  0.00     0.217 A
HETATM   12  O3  UNL     1      21.459  19.426  37.183  1.00  0.00    -0.285 OA
ENDROOT
BRANCH   1  13
HETATM   13  C8  UNL     1      23.300  16.019  35.612  1.00  0.00     0.059 C
BRANCH  13  14
HETATM   14  C7  UNL     1      23.922  15.092  36.643  1.00  0.00     0.033 C
BRANCH  14  15
HETATM   15  C6  UNL     1      25.239  14.501  36.273  1.00  0.00     0.233 C
BRANCH  15  16
HETATM   16  N1  UNL     1      25.405  14.213  34.876  1.00  0.00    -0.067 N
ATOM     17  H12 UNL     1      26.087  14.841  34.451  1.00  0.00     0.278 HD
ATOM     18  H11 UNL     1      24.577  14.485  34.346  1.00  0.00     0.278 HD
BRANCH  16  19
HETATM   19  C2  UNL     1      25.748  12.827  34.631  1.00  0.00     0.120 C
HETATM   20  C1  UNL     1      24.511  11.978  34.465  1.00  0.00     0.046 C
HETATM   21  C3  UNL     1      26.582  12.220  35.739  1.00  0.00     0.046 C
BRANCH  19  22
HETATM   22  C4  UNL     1      26.549  12.761  33.359  1.00  0.00     0.064 C
BRANCH  22  23
HETATM   23  C5  UNL     1      26.097  11.669  32.425  1.00  0.00     0.166 C
BRANCH  23  24
HETATM   24  O1  UNL     1      26.484  12.005  31.121  1.00  0.00    -0.401 OA
ATOM     25  H1  UNL     1      25.711  12.019  30.569  1.00  0.00     0.209 HD
ENDBRANCH  23  24
ENDBRANCH  22  23
ENDBRANCH  19  22
ENDBRANCH  16  19
ENDBRANCH  15  16
ENDBRANCH  14  15
ENDBRANCH  13  14
ENDBRANCH   1  13
BRANCH   1  26
HETATM   26  N2  UNL     1      23.308  17.940  37.143  1.00  0.00    -0.392 N
ATOM     27  H2  UNL     1      22.846  17.972  38.052  1.00  0.00     0.159 HD
BRANCH  26  28
HETATM   28  C10 UNL     1      24.529  18.630  37.060  1.00  0.00     0.124 C
BRANCH  28  29
HETATM   29  C11 UNL     1      25.537  17.930  37.990  1.00  0.00     0.060 C
BRANCH  29  30
HETATM   30  C12 UNL     1      25.148  18.091  39.412  1.00  0.00    -0.035 A
HETATM   31  C13 UNL     1      24.592  19.299  39.843  1.00  0.00     0.009 A
HETATM   32  C14 UNL     1      24.220  19.487  41.159  1.00  0.00     0.001 A
HETATM   33  C15 UNL     1      24.381  18.493  42.097  1.00  0.00     0.002 A
HETATM   34  C16 UNL     1      24.929  17.294  41.684  1.00  0.00     0.024 A
HETATM   35  C17 UNL     1      25.305  17.105  40.355  1.00  0.00     0.040 A
HETATM   36 CL1  UNL     1      26.000  15.558  39.862  1.00  0.00    -0.084 Cl
ENDBRANCH  29  30
ENDBRANCH  28  29
ENDBRANCH  26  28
ENDBRANCH   1  26
BRANCH  10  37
HETATM   37  C22 UNL     1      17.888  20.989  36.100  1.00  0.00     0.060 C
BRANCH  37  38
HETATM   38  C23 UNL     1      16.801  20.650  37.095  1.00  0.00     0.276 C
BRANCH  38  39
HETATM   39  N5  UNL     1      17.251  20.044  38.302  1.00  0.00     0.088 N
HETATM   40  C24 UNL     1      16.675  18.768  38.606  1.00  0.00     0.272 C
HETATM   41  C25 UNL     1      15.353  19.063  39.279  1.00  0.00     0.032 C
HETATM   42  C26 UNL     1      15.617  20.334  40.029  1.00  0.00     0.032 C
HETATM   43  C27 UNL     1      16.852  20.910  39.404  1.00  0.00     0.272 C
ENDBRANCH  38  39
ENDBRANCH  37  38
ENDBRANCH  10  37
TORSDOF 15
ENDMDL