MODEL 2
REMARK VINA RESULT: -9.099364835      2.019      4.183
REMARK  17 active torsions:
REMARK  status: ('A' for Active; 'I' for Inactive)
REMARK       I    between atoms: C1_2  and  N5_24
REMARK    1  A    between atoms: N2_3  and  C2_5
REMARK    2  A    between atoms: C2_5  and  C3_6
REMARK    3  A    between atoms: C3_6  and  C4_7
REMARK    4  A    between atoms: C4_7  and  C5_8
REMARK    5  A    between atoms: C5_8  and  S1_9
REMARK    6  A    between atoms: S1_9  and  C6_10
REMARK    7  A    between atoms: C6_10  and  C7_11
REMARK    8  A    between atoms: C7_11  and  N3_12
REMARK    9  A    between atoms: N3_12  and  C8_14
REMARK   10  A    between atoms: C8_14  and  N4_16
REMARK   11  A    between atoms: N4_16  and  C9_18
REMARK   12  A    between atoms: N5_24  and  C15_26
REMARK   13  A    between atoms: C15_26  and  C16_27
REMARK   14  A    between atoms: C16_27  and  C17_28
REMARK   15  A    between atoms: C17_28  and  N6_29
REMARK       I    between atoms: N6_29  and  C18_31
REMARK   16  A    between atoms: C18_31  and  C19_33
REMARK   17  A    between atoms: N7_38  and  O2_39
ROOT
HETATM    1  N1  UNL     1      19.268  16.556  34.112  1.00  0.00    -0.064 NA
HETATM    2  C1  UNL     1      20.472  16.915  34.776  1.00  0.00     0.183 C
HETATM    3  N2  UNL     1      21.208  15.951  35.235  1.00  0.00    -0.365 N
ATOM      4  H2  UNL     1      20.904  14.986  35.108  1.00  0.00     0.162 HD
HETATM    5  N5  UNL     1      20.927  18.239  34.940  1.00  0.00    -0.365 N
ATOM      6  H5  UNL     1      21.850  18.478  34.577  1.00  0.00     0.162 HD
ENDROOT
BRANCH   3   7
HETATM    7  C2  UNL     1      22.464  16.218  35.931  1.00  0.00     0.122 C
BRANCH   7   8
HETATM    8  C3  UNL     1      23.548  15.439  35.266  1.00  0.00     0.020 C
BRANCH   8   9
HETATM    9  C4  UNL     1      24.185  14.441  36.228  1.00  0.00     0.012 C
BRANCH   9  10
HETATM   10  C5  UNL     1      25.648  14.723  36.382  1.00  0.00     0.074 C
BRANCH  10  11
HETATM   11  S1  UNL     1      26.413  15.101  34.829  1.00  0.00    -0.164 SA
BRANCH  11  12
HETATM   12  C6  UNL     1      27.716  16.313  34.821  1.00  0.00     0.118 C
BRANCH  12  13
HETATM   13  C7  UNL     1      27.330  17.720  34.588  1.00  0.00     0.073 C
BRANCH  13  14
HETATM   14  N3  UNL     1      25.979  18.095  34.736  1.00  0.00    -0.346 N
ATOM     15  H3  UNL     1      25.408  17.759  33.960  1.00  0.00     0.167 HD
BRANCH  14  16
HETATM   16  C8  UNL     1      25.228  18.798  35.655  1.00  0.00     0.171 C
HETATM   17  S2  UNL     1      24.133  19.887  34.916  1.00  0.00    -0.041 SA
BRANCH  16  18
HETATM   18  N4  UNL     1      25.159  18.821  37.026  1.00  0.00    -0.362 N
ATOM     19  H4  UNL     1      26.017  19.167  37.455  1.00  0.00     0.162 HD
BRANCH  18  20
HETATM   20  C9  UNL     1      24.158  18.470  37.994  1.00  0.00     0.083 C
HETATM   21  C10 UNL     1      23.684  19.600  38.812  1.00  0.00     0.025 C
HETATM   22  C11 UNL     1      24.021  19.658  40.237  1.00  0.00     0.002 C
HETATM   23  C12 UNL     1      24.750  18.502  40.835  1.00  0.00     0.000 C
HETATM   24  C13 UNL     1      25.625  17.785  39.833  1.00  0.00     0.002 C
HETATM   25  C14 UNL     1      24.674  17.282  38.772  1.00  0.00     0.025 C
ENDBRANCH  18  20
ENDBRANCH  16  18
ENDBRANCH  14  16
ENDBRANCH  13  14
ENDBRANCH  12  13
ENDBRANCH  11  12
ENDBRANCH  10  11
ENDBRANCH   9  10
ENDBRANCH   8   9
ENDBRANCH   7   8
ENDBRANCH   3   7
BRANCH   5  26
HETATM   26  C15 UNL     1      20.181  19.257  35.579  1.00  0.00     0.123 C
BRANCH  26  27
HETATM   27  C16 UNL     1      19.892  20.513  34.857  1.00  0.00     0.039 C
BRANCH  27  28
HETATM   28  C17 UNL     1      18.518  21.062  34.887  1.00  0.00     0.124 C
BRANCH  28  29
HETATM   29  N6  UNL     1      17.655  20.245  35.717  1.00  0.00    -0.357 N
HETATM   30  C18 UNL     1      17.310  20.597  37.044  1.00  0.00     0.253 C
HETATM   31  O1  UNL     1      17.801  21.689  37.492  1.00  0.00    -0.268 OA
ATOM     32  H6  UNL     1      17.280  19.380  35.328  1.00  0.00     0.162 HD
BRANCH  30  33
HETATM   33  C19 UNL     1      16.444  19.781  37.883  1.00  0.00     0.050 A
HETATM   34  C20 UNL     1      16.853  18.666  38.574  1.00  0.00     0.023 A
HETATM   35  C21 UNL     1      15.972  17.927  39.367  1.00  0.00     0.065 A
HETATM   36  C22 UNL     1      14.652  18.302  39.477  1.00  0.00     0.214 A
HETATM   37  F1  UNL     1      13.758  17.613  40.238  1.00  0.00    -0.184 F
HETATM   38  N7  UNL     1      14.267  19.401  38.791  1.00  0.00    -0.208 N
HETATM   39  C23 UNL     1      15.100  20.124  38.025  1.00  0.00     0.142 A
BRANCH  38  40
HETATM   40  O2  UNL     1      12.928  19.765  38.915  1.00  0.00    -0.281 OA
ATOM     41  H2  UNL     1      12.302  19.230  38.442  1.00  0.00     0.245 HD
ENDBRANCH  38  40
ENDBRANCH  30  33
ENDBRANCH  28  29
ENDBRANCH  27  28
ENDBRANCH  26  27
ENDBRANCH   5  26
TORSDOF 17
ENDMDL