MODEL 2
REMARK VINA RESULT: -9.307313081      1.956      3.835
REMARK  17 active torsions:
REMARK  status: ('A' for Active; 'I' for Inactive)
REMARK    1  A    between atoms: C2_2  and  N1_3
REMARK    2  A    between atoms: N1_3  and  C3_5
REMARK    3  A    between atoms: C3_5  and  N2_7
REMARK    4  A    between atoms: N2_7  and  N3_9
REMARK       I    between atoms: N3_9  and  C4_11
REMARK    5  A    between atoms: C4_11  and  C5_13
REMARK    6  A    between atoms: C5_13  and  N4_14
REMARK    7  A    between atoms: C5_13  and  C20_36
REMARK    8  A    between atoms: N4_14  and  S2_16
REMARK    9  A    between atoms: S2_16  and  C6_19
REMARK   10  A    between atoms: C6_19  and  C7_20
REMARK   11  A    between atoms: C7_20  and  C8_21
REMARK   12  A    between atoms: C8_21  and  C9_22
REMARK   13  A    between atoms: C9_22  and  C10_23
REMARK   14  A    between atoms: C10_23  and  C11_24
REMARK   15  A    between atoms: C11_24  and  N5_25
REMARK       I    between atoms: N5_25  and  C12_27
REMARK   16  A    between atoms: C12_27  and  C13_29
REMARK   17  A    between atoms: C13_29  and  C14_30
ROOT
HETATM    1  S2  UNL     1      21.146  17.948  34.424  1.00  0.00     0.227 S
HETATM    2  O2  UNL     1      22.519  17.977  33.816  1.00  0.00    -0.206 OA
HETATM    3  O3  UNL     1      20.460  16.633  34.069  1.00  0.00    -0.206 OA
ENDROOT
BRANCH   1   4
HETATM    4  N4  UNL     1      20.194  19.284  34.082  1.00  0.00    -0.305 N
ATOM      5  H4  UNL     1      19.640  19.340  33.227  1.00  0.00     0.173 HD
BRANCH   4   6
HETATM    6  C5  UNL     1      20.194  20.358  35.057  1.00  0.00     0.189 C
BRANCH   6   7
HETATM    7  C4  UNL     1      18.848  20.628  35.522  1.00  0.00     0.259 C
HETATM    8  N3  UNL     1      18.389  20.991  36.806  1.00  0.00    -0.266 N
ATOM      9  H3  UNL     1      19.073  21.112  37.553  1.00  0.00     0.190 HD
HETATM   10  O1  UNL     1      17.910  20.520  34.641  1.00  0.00    -0.269 OA
BRANCH   8  11
HETATM   11  N2  UNL     1      17.048  21.190  37.098  1.00  0.00    -0.274 N
ATOM     12  H2  UNL     1      16.651  22.011  36.642  1.00  0.00     0.189 HD
BRANCH  11  13
HETATM   13  C3  UNL     1      16.139  20.500  37.881  1.00  0.00     0.186 C
HETATM   14  S1  UNL     1      16.027  21.067  39.471  1.00  0.00    -0.040 SA
BRANCH  13  15
HETATM   15  N1  UNL     1      15.300  19.424  37.616  1.00  0.00    -0.366 N
ATOM     16  H1  UNL     1      15.516  18.866  36.789  1.00  0.00     0.161 HD
BRANCH  15  17
HETATM   17  C2  UNL     1      14.174  19.022  38.381  1.00  0.00     0.117 C
HETATM   18  C1  UNL     1      14.394  17.686  39.075  1.00  0.00     0.026 C
ENDBRANCH  15  17
ENDBRANCH  13  15
ENDBRANCH  11  13
ENDBRANCH   8  11
ENDBRANCH   6   7
BRANCH   6  19
HETATM   19  C20 UNL     1      20.886  21.581  34.482  1.00  0.00     0.010 C
HETATM   20  C21 UNL     1      20.532  21.714  32.989  1.00  0.00     0.012 C
HETATM   21  C22 UNL     1      22.405  21.471  34.500  1.00  0.00     0.012 C
ENDBRANCH   6  19
ENDBRANCH   4   6
ENDBRANCH   1   4
BRANCH   1  22
HETATM   22  C6  UNL     1      21.430  17.807  36.205  1.00  0.00     0.166 C
BRANCH  22  23
HETATM   23  C7  UNL     1      22.739  18.351  36.609  1.00  0.00     0.043 C
BRANCH  23  24
HETATM   24  C8  UNL     1      22.704  19.400  37.645  1.00  0.00    -0.030 C
BRANCH  24  25
HETATM   25  C9  UNL     1      23.853  19.817  38.431  1.00  0.00    -0.029 C
BRANCH  25  26
HETATM   26  C10 UNL     1      23.764  20.104  39.875  1.00  0.00     0.046 C
BRANCH  26  27
HETATM   27  C11 UNL     1      24.566  19.064  40.684  1.00  0.00     0.126 C
BRANCH  27  28
HETATM   28  N5  UNL     1      25.098  18.012  39.907  1.00  0.00    -0.361 N
HETATM   29  C12 UNL     1      25.375  16.726  40.421  1.00  0.00     0.217 C
HETATM   30  O4  UNL     1      25.178  16.381  41.617  1.00  0.00    -0.274 OA
ATOM     31  H5  UNL     1      25.294  18.190  38.922  1.00  0.00     0.162 HD
BRANCH  29  32
HETATM   32  C13 UNL     1      25.935  15.688  39.503  1.00  0.00     0.107 C
BRANCH  32  33
HETATM   33  C14 UNL     1      25.465  15.944  38.095  1.00  0.00    -0.006 C
HETATM   34  C15 UNL     1      24.719  14.756  37.548  1.00  0.00     0.005 C
HETATM   35  C16 UNL     1      24.200  15.123  36.166  1.00  0.00     0.000 C
HETATM   36  C17 UNL     1      25.417  15.162  35.266  1.00  0.00     0.000 C
HETATM   37  C18 UNL     1      26.680  15.300  36.054  1.00  0.00     0.000 C
HETATM   38  C19 UNL     1      26.593  16.298  37.171  1.00  0.00     0.005 C
ENDBRANCH  32  33
ENDBRANCH  29  32
ENDBRANCH  27  28
ENDBRANCH  26  27
ENDBRANCH  25  26
ENDBRANCH  24  25
ENDBRANCH  23  24
ENDBRANCH  22  23
ENDBRANCH   1  22
TORSDOF 17
ENDMDL