MODEL 1
REMARK VINA RESULT: -10.521723770      0.000      0.000
REMARK  15 active torsions:
REMARK  status: ('A' for Active; 'I' for Inactive)
REMARK    1  A    between atoms: N2_4  and  N3_6
REMARK    2  A    between atoms: C1_8  and  C2_10
REMARK    3  A    between atoms: C2_10  and  C3_11
REMARK    4  A    between atoms: C6_14  and  N5_15
REMARK    5  A    between atoms: N5_15  and  S1_17
REMARK    6  A    between atoms: S1_17  and  N6_20
REMARK    7  A    between atoms: N6_20  and  C7_22
REMARK    8  A    between atoms: C7_22  and  C8_23
REMARK    9  A    between atoms: C7_22  and  C15_30
REMARK   10  A    between atoms: C8_23  and  C9_24
REMARK   11  A    between atoms: C15_30  and  O3_31
REMARK   12  A    between atoms: C15_30  and  C16_33
REMARK   13  A    between atoms: C16_33  and  N7_34
REMARK   14  A    between atoms: N7_34  and  C17_37
REMARK   15  A    between atoms: C17_37  and  C18_38
ROOT
HETATM    1  N6  UNL     1      20.027  19.151  33.972  1.00  0.00    -0.295 N
ATOM      2  H6  UNL     1      19.798  19.454  33.025  1.00  0.00     0.174 HD
ENDROOT
BRANCH   1   3
HETATM    3  S1  UNL     1      20.103  17.495  34.446  1.00  0.00     0.319 S
HETATM    4  O1  UNL     1      19.012  16.685  33.805  1.00  0.00    -0.182 OA
HETATM    5  O2  UNL     1      19.881  17.447  35.926  1.00  0.00    -0.182 OA
BRANCH   3   6
HETATM    6  N5  UNL     1      21.599  16.775  34.061  1.00  0.00    -0.268 N
ATOM      7  H5  UNL     1      21.688  16.296  33.165  1.00  0.00     0.180 HD
BRANCH   6   8
HETATM    8  C6  UNL     1      22.726  16.808  34.921  1.00  0.00     0.043 A
HETATM    9  C5  UNL     1      22.825  16.163  36.129  1.00  0.00     0.031 A
HETATM   10  C4  UNL     1      23.967  16.225  36.924  1.00  0.00     0.010 A
HETATM   11  C3  UNL     1      25.064  16.948  36.523  1.00  0.00    -0.051 A
HETATM   12  C25 UNL     1      24.975  17.597  35.314  1.00  0.00     0.010 A
HETATM   13  C24 UNL     1      23.855  17.544  34.522  1.00  0.00     0.031 A
BRANCH  11  14
HETATM   14  C2  UNL     1      26.306  17.039  37.348  1.00  0.00     0.113 C
BRANCH  14  15
HETATM   15  C1  UNL     1      26.354  15.964  38.360  1.00  0.00     0.113 C
HETATM   16  N3  UNL     1      26.128  16.226  39.578  1.00  0.00    -0.277 N
ATOM     17  H3  UNL     1      26.170  15.459  40.249  1.00  0.00     0.189 HD
HETATM   18  N4  UNL     1      26.657  14.648  37.940  1.00  0.00    -0.086 NA
BRANCH  16  19
HETATM   19  N2  UNL     1      25.824  17.500  40.059  1.00  0.00    -0.248 N
HETATM   20  N1  UNL     1      25.862  17.659  41.321  1.00  0.00    -0.331 N
ATOM     21  H12 UNL     1      26.104  16.883  41.938  1.00  0.00     0.178 HD
ATOM     22  H11 UNL     1      25.640  18.591  41.673  1.00  0.00     0.178 HD
ATOM     23  H2  UNL     1      25.584  18.266  39.430  1.00  0.00     0.207 HD
ENDBRANCH  16  19
ENDBRANCH  14  15
ENDBRANCH  11  14
ENDBRANCH   6   8
ENDBRANCH   3   6
ENDBRANCH   1   3
BRANCH   1  24
HETATM   24  C7  UNL     1      20.322  20.069  35.055  1.00  0.00     0.129 C
BRANCH  24  25
HETATM   25  C8  UNL     1      21.720  20.563  35.008  1.00  0.00     0.067 C
BRANCH  25  26
HETATM   26  C9  UNL     1      22.531  20.357  36.200  1.00  0.00    -0.056 A
HETATM   27  C10 UNL     1      22.189  19.574  37.286  1.00  0.00     0.007 A
HETATM   28  C11 UNL     1      23.076  19.490  38.337  1.00  0.00     0.001 A
HETATM   29  C12 UNL     1      24.293  20.163  38.339  1.00  0.00     0.000 A
HETATM   30  C13 UNL     1      24.645  20.946  37.260  1.00  0.00     0.001 A
HETATM   31  C14 UNL     1      23.765  21.027  36.221  1.00  0.00     0.007 A
ENDBRANCH  25  26
ENDBRANCH  24  25
BRANCH  24  32
HETATM   32  C15 UNL     1      19.269  21.106  35.219  1.00  0.00     0.167 C
BRANCH  32  33
HETATM   33  O3  UNL     1      18.910  21.651  33.959  1.00  0.00    -0.392 OA
ATOM     34  H3  UNL     1      18.221  21.133  33.558  1.00  0.00     0.210 HD
ENDBRANCH  32  33
BRANCH  32  35
HETATM   35  C16 UNL     1      17.977  20.600  35.790  1.00  0.00     0.266 C
BRANCH  35  36
HETATM   36  N7  UNL     1      18.183  19.878  37.040  1.00  0.00    -0.069 N
ATOM     37  H72 UNL     1      17.951  18.889  36.959  1.00  0.00     0.277 HD
ATOM     38  H71 UNL     1      19.172  19.777  37.270  1.00  0.00     0.277 HD
BRANCH  36  39
HETATM   39  C17 UNL     1      17.436  20.533  38.098  1.00  0.00     0.271 C
BRANCH  39  40
HETATM   40  C18 UNL     1      16.210  19.772  38.394  1.00  0.00    -0.030 A
HETATM   41  C19 UNL     1      14.969  20.298  38.119  1.00  0.00     0.009 A
HETATM   42  C20 UNL     1      13.805  19.575  38.399  1.00  0.00     0.004 A
HETATM   43  C21 UNL     1      13.904  18.317  38.958  1.00  0.00     0.042 A
HETATM   44  C22 UNL     1      15.158  17.801  39.228  1.00  0.00     0.117 A
HETATM   45  F1  UNL     1      15.275  16.562  39.779  1.00  0.00    -0.206 F
HETATM   46  C23 UNL     1      16.315  18.520  38.950  1.00  0.00     0.051 A
ENDBRANCH  39  40
ENDBRANCH  36  39
ENDBRANCH  35  36
ENDBRANCH  32  35
ENDBRANCH  24  32
ENDBRANCH   1  24
TORSDOF 15
ENDMDL