MODEL 1
REMARK VINA RESULT: -9.362469802      0.000      0.000
REMARK  18 active torsions:
REMARK  status: ('A' for Active; 'I' for Inactive)
REMARK    1  A    between atoms: C2_2  and  N1_3
REMARK    2  A    between atoms: N1_3  and  C3_5
REMARK    3  A    between atoms: C3_5  and  O1_6
REMARK    4  A    between atoms: C3_5  and  N2_8
REMARK    5  A    between atoms: N2_8  and  C4_10
REMARK    6  A    between atoms: C4_10  and  C5_11
REMARK    7  A    between atoms: C4_10  and  C24_39
REMARK       I    between atoms: C5_11  and  N3_13
REMARK    8  A    between atoms: N3_13  and  C6_15
REMARK    9  A    between atoms: C6_15  and  C7_16
REMARK   10  A    between atoms: C6_15  and  C21_36
REMARK       I    between atoms: C7_16  and  N4_18
REMARK   11  A    between atoms: N4_18  and  C8_19
REMARK   12  A    between atoms: C8_19  and  C9_20
REMARK   13  A    between atoms: C8_19  and  C17_32
REMARK   14  A    between atoms: C9_20  and  O4_21
REMARK   15  A    between atoms: O4_21  and  C10_22
REMARK   16  A    between atoms: C10_22  and  C11_23
REMARK   17  A    between atoms: C16_29  and  O5_30
REMARK   18  A    between atoms: C17_32  and  C18_33
ROOT
HETATM    1  C6  UNL     1      22.222  17.243  35.598  1.00  0.00     0.194 C
ENDROOT
BRANCH   1   2
HETATM    2  N3  UNL     1      21.540  18.414  35.335  1.00  0.00    -0.345 N
HETATM    3  C5  UNL     1      21.074  19.546  36.033  1.00  0.00     0.241 C
HETATM    4  O2  UNL     1      21.240  19.601  37.312  1.00  0.00    -0.271 OA
ATOM      5  H3  UNL     1      21.306  18.480  34.344  1.00  0.00     0.163 HD
BRANCH   3   6
HETATM    6  C4  UNL     1      20.435  20.580  35.285  1.00  0.00     0.180 C
BRANCH   6   7
HETATM    7  N2  UNL     1      19.029  20.514  35.020  1.00  0.00    -0.343 N
ATOM      8  H2  UNL     1      18.715  20.056  34.164  1.00  0.00     0.164 HD
BRANCH   7   9
HETATM    9  C3  UNL     1      18.081  21.042  35.872  1.00  0.00     0.213 C
BRANCH   9  10
HETATM   10  N1  UNL     1      17.672  21.113  37.180  1.00  0.00    -0.357 N
ATOM     11  H1  UNL     1      17.488  22.005  37.639  1.00  0.00     0.163 HD
BRANCH  10  12
HETATM   12  C2  UNL     1      17.508  19.782  37.911  1.00  0.00     0.118 C
HETATM   13  C1  UNL     1      16.858  20.192  39.281  1.00  0.00     0.026 C
ENDBRANCH  10  12
ENDBRANCH   9  10
BRANCH   9  14
HETATM   14  O1  UNL     1      17.185  21.761  35.042  1.00  0.00    -0.333 OA
ATOM     15  H1  UNL     1      16.336  21.335  35.032  1.00  0.00     0.220 HD
ENDBRANCH   9  14
ENDBRANCH   7   9
ENDBRANCH   6   7
BRANCH   6  16
HETATM   16  C24 UNL     1      21.266  20.840  34.018  1.00  0.00     0.009 C
HETATM   17  C25 UNL     1      22.501  21.616  34.418  1.00  0.00     0.012 C
HETATM   18  C26 UNL     1      20.486  21.715  33.087  1.00  0.00     0.012 C
ENDBRANCH   6  16
ENDBRANCH   3   6
ENDBRANCH   1   2
BRANCH   1  19
HETATM   19  C7  UNL     1      23.814  17.226  35.175  1.00  0.00     0.310 C
HETATM   20  O3  UNL     1      24.025  17.477  34.128  1.00  0.00    -0.255 OA
HETATM   21  N4  UNL     1      24.354  16.854  36.467  1.00  0.00    -0.406 NA
BRANCH  21  22
HETATM   22  C8  UNL     1      24.910  16.534  37.554  1.00  0.00     0.191 C
BRANCH  22  23
HETATM   23  C9  UNL     1      26.297  16.949  38.035  1.00  0.00     0.207 C
BRANCH  23  24
HETATM   24  O4  UNL     1      26.047  17.916  38.939  1.00  0.00    -0.388 OA
BRANCH  24  25
HETATM   25  C10 UNL     1      25.638  17.776  40.156  1.00  0.00     0.174 C
BRANCH  25  26
HETATM   26  C11 UNL     1      24.845  18.719  40.986  1.00  0.00     0.040 C
HETATM   27  C12 UNL     1      23.884  18.207  41.985  1.00  0.00     0.034 C
HETATM   28  C13 UNL     1      23.346  19.561  42.481  1.00  0.00     0.036 C
HETATM   29  C14 UNL     1      24.259  20.338  43.399  1.00  0.00     0.033 C
HETATM   30 CL1  UNL     1      21.744  19.389  43.176  1.00  0.00    -0.119 Cl
HETATM   31  C15 UNL     1      23.197  20.318  41.157  1.00  0.00     0.057 C
HETATM   32  C16 UNL     1      23.844  19.522  40.063  1.00  0.00     0.126 C
BRANCH  32  33
HETATM   33  O5  UNL     1      24.536  20.325  39.203  1.00  0.00    -0.395 OA
ATOM     34  H5  UNL     1      24.469  21.233  39.474  1.00  0.00     0.210 HD
ENDBRANCH  32  33
ENDBRANCH  25  26
ENDBRANCH  24  25
ENDBRANCH  23  24
ENDBRANCH  22  23
BRANCH  22  35
HETATM   35  C17 UNL     1      24.925  15.034  37.896  1.00  0.00     0.045 C
BRANCH  35  36
HETATM   36  C18 UNL     1      26.180  14.308  37.870  1.00  0.00    -0.020 C
HETATM   37  C19 UNL     1      26.005  13.161  38.984  1.00  0.00     0.009 C
HETATM   38  C20 UNL     1      26.383  13.431  36.681  1.00  0.00     0.009 C
ENDBRANCH  35  36
ENDBRANCH  22  35
ENDBRANCH  21  22
ENDBRANCH   1  19
BRANCH   1  39
HETATM   39  C21 UNL     1      21.567  16.128  34.914  1.00  0.00     0.010 C
HETATM   40  C22 UNL     1      20.069  16.300  34.869  1.00  0.00     0.012 C
HETATM   41  C23 UNL     1      21.920  14.724  35.235  1.00  0.00     0.012 C
ENDBRANCH   1  39
TORSDOF 18
ENDMDL