MODEL 5
REMARK VINA RESULT: -8.893545284      4.099      5.991
REMARK  17 active torsions:
REMARK  status: ('A' for Active; 'I' for Inactive)
REMARK    1  A    between atoms: C2_2  and  C3_3
REMARK    2  A    between atoms: C3_3  and  C5_5
REMARK    3  A    between atoms: C5_5  and  N1_6
REMARK    4  A    between atoms: C5_5  and  C11_22
REMARK       I    between atoms: N1_6  and  C6_8
REMARK    5  A    between atoms: C6_8  and  C7_10
REMARK    6  A    between atoms: C7_10  and  N2_11
REMARK    7  A    between atoms: C7_10  and  C8_15
REMARK    8  A    between atoms: C8_15  and  C9_16
REMARK    9  A    between atoms: C9_16  and  C10_17
REMARK   10  A    between atoms: C10_17  and  N3_18
REMARK   11  A    between atoms: C11_22  and  N5_26
REMARK   12  A    between atoms: N5_26  and  C12_28
REMARK   13  A    between atoms: N6_31  and  C15_32
REMARK   14  A    between atoms: C15_32  and  C17_34
REMARK   15  A    between atoms: C18_35  and  C19_36
REMARK   16  A    between atoms: C19_36  and  C20_37
REMARK       I    between atoms: N7_40  and  C23_41
REMARK   17  A    between atoms: C23_41  and  C24_43
ROOT
HETATM    1  C11 UNL     1      20.704  17.752  35.403  1.00  0.00     0.094 C
HETATM    2  N4  UNL     1      19.757  17.086  34.860  1.00  0.00    -0.387 N
ATOM      3  H41 UNL     1      19.796  16.073  34.753  1.00  0.00     0.157 HD
ATOM      4  H42 UNL     1      18.949  17.616  34.532  1.00  0.00     0.157 HD
ENDROOT
BRANCH   1   5
HETATM    5  C5  UNL     1      20.648  19.201  35.556  1.00  0.00     0.155 C
BRANCH   5   6
HETATM    6  C3  UNL     1      21.536  20.041  34.726  1.00  0.00     0.011 C
HETATM    7  C4  UNL     1      22.807  20.511  35.413  1.00  0.00     0.012 C
BRANCH   6   8
HETATM    8  C2  UNL     1      20.917  21.100  33.883  1.00  0.00     0.002 C
HETATM    9  C1  UNL     1      21.684  22.372  33.755  1.00  0.00     0.005 C
ENDBRANCH   6   8
ENDBRANCH   5   6
BRANCH   5  10
HETATM   10  N1  UNL     1      19.297  19.736  35.441  1.00  0.00    -0.347 N
HETATM   11  C6  UNL     1      18.488  20.016  36.567  1.00  0.00     0.248 C
HETATM   12  O1  UNL     1      18.954  19.791  37.718  1.00  0.00    -0.271 OA
ATOM     13  H1  UNL     1      18.920  19.917  34.511  1.00  0.00     0.163 HD
BRANCH  11  14
HETATM   14  C7  UNL     1      17.129  20.561  36.349  1.00  0.00     0.274 C
BRANCH  14  15
HETATM   15  N2  UNL     1      17.168  21.734  35.519  1.00  0.00    -0.067 N
ATOM     16  H23 UNL     1      17.575  22.530  36.013  1.00  0.00     0.275 HD
ATOM     17  H22 UNL     1      17.858  21.644  34.774  1.00  0.00     0.275 HD
ATOM     18  H21 UNL     1      16.244  21.955  35.151  1.00  0.00     0.275 HD
ENDBRANCH  14  15
BRANCH  14  19
HETATM   19  C8  UNL     1      16.463  20.913  37.671  1.00  0.00     0.044 C
BRANCH  19  20
HETATM   20  C9  UNL     1      15.368  19.948  38.004  1.00  0.00     0.030 C
BRANCH  20  21
HETATM   21  C10 UNL     1      15.755  19.205  39.277  1.00  0.00     0.230 C
BRANCH  21  22
HETATM   22  N3  UNL     1      16.974  19.801  39.769  1.00  0.00    -0.079 N
ATOM     23  H33 UNL     1      17.747  19.729  39.108  1.00  0.00     0.274 HD
ATOM     24  H32 UNL     1      16.931  20.819  39.812  1.00  0.00     0.274 HD
ATOM     25  H31 UNL     1      17.180  19.372  40.672  1.00  0.00     0.274 HD
ENDBRANCH  21  22
ENDBRANCH  20  21
ENDBRANCH  19  20
ENDBRANCH  14  19
ENDBRANCH  11  14
ENDBRANCH   5  10
ENDBRANCH   1   5
BRANCH   1  26
HETATM   26  N5  UNL     1      21.837  17.009  35.863  1.00  0.00    -0.374 N
ATOM     27  H5  UNL     1      22.044  16.986  36.862  1.00  0.00     0.161 HD
BRANCH  26  28
HETATM   28  C12 UNL     1      22.697  16.289  34.949  1.00  0.00     0.086 C
HETATM   29  C13 UNL     1      23.914  17.093  34.562  1.00  0.00     0.055 C
HETATM   30  C14 UNL     1      24.872  17.278  35.720  1.00  0.00     0.275 C
HETATM   31  N6  UNL     1      24.854  16.175  36.656  1.00  0.00     0.096 N
HETATM   32  C26 UNL     1      24.602  14.962  35.870  1.00  0.00     0.275 C
HETATM   33  C27 UNL     1      23.103  14.991  35.558  1.00  0.00     0.055 C
BRANCH  31  34
HETATM   34  C15 UNL     1      26.278  15.960  37.142  1.00  0.00     0.241 C
HETATM   35  C16 UNL     1      26.834  15.059  35.993  1.00  0.00     0.047 C
BRANCH  34  36
HETATM   36  C17 UNL     1      26.246  15.161  38.370  1.00  0.00     0.004 C
HETATM   37  C18 UNL     1      25.309  15.290  39.464  1.00  0.00    -0.028 C
BRANCH  37  38
HETATM   38  C19 UNL     1      24.973  16.464  40.255  1.00  0.00     0.033 C
BRANCH  38  39
HETATM   39  C20 UNL     1      25.755  17.719  40.108  1.00  0.00     0.009 C
HETATM   40  C21 UNL     1      24.966  18.722  39.248  1.00  0.00     0.026 C
HETATM   41  C22 UNL     1      23.820  19.025  40.172  1.00  0.00     0.126 C
HETATM   42  N7  UNL     1      24.379  18.941  41.513  1.00  0.00    -0.350 N
HETATM   43  C23 UNL     1      23.682  19.303  42.694  1.00  0.00     0.248 C
HETATM   44  C25 UNL     1      25.732  18.442  41.492  1.00  0.00     0.130 C
HETATM   45  O2  UNL     1      24.213  19.213  43.838  1.00  0.00    -0.271 OA
BRANCH  43  46
HETATM   46  C24 UNL     1      22.278  19.813  42.655  1.00  0.00     0.325 C
HETATM   47  F1  UNL     1      21.830  19.926  43.961  1.00  0.00    -0.246 F
ENDBRANCH  43  46
ENDBRANCH  38  39
ENDBRANCH  37  38
ENDBRANCH  34  36
ENDBRANCH  31  34
ENDBRANCH  26  28
ENDBRANCH   1  26
TORSDOF 17
ENDMDL