MODEL 2
REMARK VINA RESULT: -9.324992726      1.266      1.830
REMARK  15 active torsions:
REMARK  status: ('A' for Active; 'I' for Inactive)
REMARK    1  A    between atoms: C2_2  and  C3_3
REMARK    2  A    between atoms: C3_3  and  N1_4
REMARK    3  A    between atoms: C3_3  and  O5_41
REMARK       I    between atoms: N1_4  and  C4_6
REMARK    4  A    between atoms: C4_6  and  C5_8
REMARK    5  A    between atoms: C5_8  and  N2_11
REMARK    6  A    between atoms: N2_11  and  C7_13
REMARK    7  A    between atoms: C7_13  and  C8_14
REMARK    8  A    between atoms: C7_13  and  C10_16
REMARK       I    between atoms: C10_16  and  N3_18
REMARK    9  A    between atoms: N3_18  and  C11_20
REMARK   10  A    between atoms: C11_20  and  C13_22
REMARK       I    between atoms: C13_22  and  N4_24
REMARK   11  A    between atoms: N4_24  and  C14_26
REMARK   12  A    between atoms: C14_26  and  C15_27
REMARK   13  A    between atoms: C14_26  and  C23_38
REMARK       I    between atoms: C15_27  and  N5_29
REMARK   14  A    between atoms: N5_29  and  C16_31
REMARK   15  A    between atoms: C16_31  and  C17_32
ROOT
HETATM    1  C10 UNL     1      21.313  18.161  34.704  1.00  0.00     0.240 C
HETATM    2  O2  UNL     1      21.276  18.162  33.461  1.00  0.00    -0.271 OA
HETATM    3  N3  UNL     1      21.858  17.053  35.382  1.00  0.00    -0.346 N
ATOM      4  H3  UNL     1      21.885  17.057  36.402  1.00  0.00     0.163 HD
ENDROOT
BRANCH   3   5
HETATM    5  C11 UNL     1      22.384  15.895  34.657  1.00  0.00     0.172 C
HETATM    6  C12 UNL     1      21.584  14.652  34.977  1.00  0.00     0.042 C
BRANCH   5   7
HETATM    7  C13 UNL     1      23.786  15.616  35.014  1.00  0.00     0.240 C
HETATM    8  O3  UNL     1      24.220  14.431  34.835  1.00  0.00    -0.271 OA
HETATM    9  N4  UNL     1      24.662  16.588  35.542  1.00  0.00    -0.346 N
ATOM     10  H4  UNL     1      24.305  17.533  35.684  1.00  0.00     0.163 HD
BRANCH   9  11
HETATM   11  C14 UNL     1      26.062  16.315  35.897  1.00  0.00     0.180 C
BRANCH  11  12
HETATM   12  C15 UNL     1      26.179  16.224  37.395  1.00  0.00     0.244 C
HETATM   13  O4  UNL     1      26.683  15.152  37.817  1.00  0.00    -0.271 OA
HETATM   14  N5  UNL     1      25.756  17.266  38.245  1.00  0.00    -0.339 N
ATOM     15  H5  UNL     1      25.356  18.067  37.756  1.00  0.00     0.167 HD
BRANCH  14  16
HETATM   16  C16 UNL     1      25.785  17.403  39.645  1.00  0.00     0.068 C
BRANCH  16  17
HETATM   17  C17 UNL     1      24.709  18.134  40.365  1.00  0.00     0.024 C
HETATM   18  C18 UNL     1      24.308  19.444  39.824  1.00  0.00     0.010 C
HETATM   19  C19 UNL     1      23.342  20.131  40.799  1.00  0.00     0.001 C
HETATM   20  C20 UNL     1      23.985  20.321  42.146  1.00  0.00     0.000 C
HETATM   21  C21 UNL     1      24.189  18.907  42.706  1.00  0.00     0.001 C
HETATM   22  C22 UNL     1      25.195  18.247  41.827  1.00  0.00     0.010 C
ENDBRANCH  16  17
ENDBRANCH  14  16
ENDBRANCH  11  12
BRANCH  11  23
HETATM   23  C23 UNL     1      26.797  17.559  35.452  1.00  0.00     0.009 C
HETATM   24  C24 UNL     1      27.842  17.372  34.418  1.00  0.00     0.012 C
HETATM   25  C25 UNL     1      25.808  18.625  34.977  1.00  0.00     0.012 C
ENDBRANCH  11  23
ENDBRANCH   9  11
ENDBRANCH   5   7
ENDBRANCH   3   5
BRANCH   1  26
HETATM   26  C7  UNL     1      20.777  19.334  35.451  1.00  0.00     0.172 C
BRANCH  26  27
HETATM   27  N2  UNL     1      19.388  19.241  35.490  1.00  0.00    -0.368 N
ATOM     28  H2  UNL     1      18.969  18.360  35.192  1.00  0.00     0.157 HD
BRANCH  27  29
HETATM   29  C5  UNL     1      18.528  20.251  35.902  1.00  0.00     0.250 C
HETATM   30  C6  UNL     1      17.726  20.885  34.807  1.00  0.00     0.087 C
HETATM   31  F1  UNL     1      19.428  21.329  36.267  1.00  0.00    -0.209 F
BRANCH  29  32
HETATM   32  C4  UNL     1      17.733  19.994  37.133  1.00  0.00     0.280 C
HETATM   33  N1  UNL     1      16.335  19.807  37.120  1.00  0.00    -0.327 N
ATOM     34  H1  UNL     1      15.834  19.847  36.232  1.00  0.00     0.165 HD
HETATM   35  O1  UNL     1      18.344  19.944  38.226  1.00  0.00    -0.268 OA
BRANCH  33  36
HETATM   36  C3  UNL     1      15.601  19.562  38.331  1.00  0.00     0.246 C
BRANCH  36  37
HETATM   37  C2  UNL     1      14.934  20.809  38.858  1.00  0.00     0.016 C
HETATM   38  C1  UNL     1      15.610  21.584  39.692  1.00  0.00     0.011 C
ENDBRANCH  36  37
BRANCH  36  39
HETATM   39  O5  UNL     1      14.532  18.707  37.970  1.00  0.00    -0.368 OA
HETATM   40  C26 UNL     1      14.184  17.886  39.037  1.00  0.00     0.204 C
ENDBRANCH  36  39
ENDBRANCH  33  36
ENDBRANCH  29  32
ENDBRANCH  27  29
ENDBRANCH  26  27
BRANCH  26  41
HETATM   41  C8  UNL     1      21.512  19.318  36.785  1.00  0.00     0.030 C
HETATM   42  C9  UNL     1      22.843  19.992  36.739  1.00  0.00     0.007 C
ENDBRANCH  26  41
ENDBRANCH   1  26
TORSDOF 15
ENDMDL