MODEL 2
REMARK VINA RESULT: -10.312829022      3.219      4.348
REMARK  16 active torsions:
REMARK  status: ('A' for Active; 'I' for Inactive)
REMARK    1  A    between atoms: O1_2  and  C2_3
REMARK    2  A    between atoms: C2_3  and  C3_4
REMARK    3  A    between atoms: C3_4  and  C4_5
REMARK    4  A    between atoms: C4_5  and  N1_6
REMARK    5  A    between atoms: N1_6  and  C5_8
REMARK    6  A    between atoms: C6_11  and  N3_12
REMARK    7  A    between atoms: N3_12  and  C7_14
REMARK    8  A    between atoms: C7_14  and  C8_15
REMARK    9  A    between atoms: C8_15  and  C9_16
REMARK   10  A    between atoms: C10_17  and  C11_18
REMARK   11  A    between atoms: C11_18  and  N4_19
REMARK       I    between atoms: N4_19  and  C12_21
REMARK       I    between atoms: C12_21  and  N6_25
REMARK   12  A    between atoms: N6_25  and  C13_27
REMARK   13  A    between atoms: C13_27  and  C14_28
REMARK   14  A    between atoms: C14_28  and  C15_29
REMARK   15  A    between atoms: C21_37  and  N8_38
REMARK   16  A    between atoms: N8_38  and  C22_40
ROOT
HETATM    1  C5  UNL     1      25.778  17.755  39.820  1.00  0.00     0.707 A
HETATM    2  N2  UNL     1      25.191  18.724  39.127  1.00  0.00    -0.022 N
ATOM      3  H2  UNL     1      24.864  19.546  39.635  1.00  0.00     0.203 HD
HETATM    4  C6  UNL     1      24.997  18.686  37.771  1.00  0.00     0.707 A
HETATM    5  N7  UNL     1      25.452  17.570  37.156  1.00  0.00    -0.021 N
ATOM      6  H7  UNL     1      25.343  17.471  36.147  1.00  0.00     0.203 HD
HETATM    7  C21 UNL     1      26.048  16.588  37.856  1.00  0.00     0.711 A
HETATM    8  N10 UNL     1      26.218  16.666  39.188  1.00  0.00    -0.021 N
ATOM      9  H10 UNL     1      26.672  15.912  39.702  1.00  0.00     0.203 HD
ENDROOT
BRANCH   4  10
HETATM   10  N3  UNL     1      24.476  19.658  37.186  1.00  0.00    -0.225 N
ATOM     11  H3  UNL     1      23.996  20.292  37.824  1.00  0.00     0.177 HD
BRANCH  10  12
HETATM   12  C7  UNL     1      24.402  20.079  35.842  1.00  0.00     0.142 C
BRANCH  12  13
HETATM   13  C8  UNL     1      23.397  21.080  35.468  1.00  0.00     0.047 C
BRANCH  13  14
HETATM   14  C9  UNL     1      23.013  21.291  34.047  1.00  0.00    -0.024 C
HETATM   15  C10 UNL     1      21.684  21.038  33.559  1.00  0.00     0.013 C
BRANCH  15  16
HETATM   16  C11 UNL     1      20.504  21.801  33.906  1.00  0.00     0.106 C
BRANCH  16  17
HETATM   17  N4  UNL     1      19.293  21.105  34.072  1.00  0.00    -0.203 N
HETATM   18  C12 UNL     1      18.350  21.220  35.107  1.00  0.00     0.671 C
HETATM   19  N5  UNL     1      17.147  21.728  34.929  1.00  0.00    -0.235 N
HETATM   20  N6  UNL     1      18.724  20.730  36.381  1.00  0.00    -0.226 N
ATOM     21  H52 UNL     1      16.878  22.082  34.010  1.00  0.00     0.174 HD
ATOM     22  H51 UNL     1      16.461  21.813  35.680  1.00  0.00     0.174 HD
ATOM     23  H6  UNL     1      18.679  21.358  37.184  1.00  0.00     0.177 HD
ATOM     24  H4  UNL     1      19.071  20.425  33.345  1.00  0.00     0.183 HD
BRANCH  20  25
HETATM   25  C13 UNL     1      19.160  19.387  36.578  1.00  0.00     0.142 C
BRANCH  25  26
HETATM   26  C14 UNL     1      20.654  19.293  36.592  1.00  0.00     0.058 C
BRANCH  26  27
HETATM   27  C15 UNL     1      21.013  17.959  36.061  1.00  0.00    -0.057 A
HETATM   28  C16 UNL     1      22.173  17.281  36.348  1.00  0.00     0.007 A
HETATM   29  C17 UNL     1      22.446  16.032  35.828  1.00  0.00     0.001 A
HETATM   30  C18 UNL     1      21.509  15.429  34.976  1.00  0.00     0.000 A
HETATM   31  C19 UNL     1      20.348  16.099  34.684  1.00  0.00     0.001 A
HETATM   32  C20 UNL     1      20.105  17.342  35.217  1.00  0.00     0.007 A
ENDBRANCH  26  27
ENDBRANCH  25  26
ENDBRANCH  20  25
ENDBRANCH  16  17
ENDBRANCH  15  16
ENDBRANCH  13  14
ENDBRANCH  12  13
ENDBRANCH  10  12
ENDBRANCH   4  10
BRANCH   1  33
HETATM   33  N1  UNL     1      25.901  17.914  41.108  1.00  0.00    -0.225 N
ATOM     34  H1  UNL     1      26.837  17.978  41.509  1.00  0.00     0.177 HD
BRANCH  33  35
HETATM   35  C4  UNL     1      24.732  18.004  42.004  1.00  0.00     0.140 C
BRANCH  35  36
HETATM   36  C3  UNL     1      24.426  19.418  42.320  1.00  0.00     0.046 C
BRANCH  36  37
HETATM   37  C2  UNL     1      23.278  20.093  41.710  1.00  0.00     0.168 C
BRANCH  37  38
HETATM   38  O1  UNL     1      22.045  20.063  42.183  1.00  0.00    -0.396 OA
HETATM   39  C1  UNL     1      21.636  19.541  43.334  1.00  0.00     0.201 C
ENDBRANCH  37  38
ENDBRANCH  36  37
ENDBRANCH  35  36
ENDBRANCH  33  35
ENDBRANCH   1  33
BRANCH   7  40
HETATM   40  N8  UNL     1      26.462  15.561  37.179  1.00  0.00    -0.189 N
ATOM     41  H8  UNL     1      26.376  14.645  37.620  1.00  0.00     0.184 HD
BRANCH  40  42
HETATM   42  C22 UNL     1      27.015  15.604  35.895  1.00  0.00     0.067 A
HETATM   43  C23 UNL     1      27.677  16.742  35.477  1.00  0.00     0.075 A
HETATM   44  C24 UNL     1      28.201  16.724  34.213  1.00  0.00     0.134 A
HETATM   45  F1  UNL     1      28.858  17.831  33.787  1.00  0.00    -0.205 F
HETATM   46  C25 UNL     1      28.041  15.596  33.443  1.00  0.00     0.132 A
HETATM   47  N9  UNL     1      27.386  14.486  33.868  1.00  0.00    -0.366 N
HETATM   48  C26 UNL     1      27.265  13.332  32.975  1.00  0.00     0.155 C
HETATM   49  C27 UNL     1      26.875  14.497  35.099  1.00  0.00     0.120 A
ENDBRANCH  40  42
ENDBRANCH   7  40
TORSDOF 16
ENDMDL