MODEL 3
REMARK VINA RESULT: -9.046221289      2.513      4.764
REMARK  14 active torsions:
REMARK  status: ('A' for Active; 'I' for Inactive)
REMARK    1  A    between atoms: C6_9  and  C7_10
REMARK    2  A    between atoms: C8_11  and  C10_13
REMARK    3  A    between atoms: C10_13  and  C11_14
REMARK       I    between atoms: C11_14  and  N2_16
REMARK    4  A    between atoms: N2_16  and  C12_18
REMARK    5  A    between atoms: C12_18  and  N3_20
REMARK    6  A    between atoms: N3_20  and  C14_22
REMARK    7  A    between atoms: C14_22  and  C16_24
REMARK    8  A    between atoms: C14_22  and  C18_29
REMARK    9  A    between atoms: C16_24  and  N4_25
REMARK   10  A    between atoms: N4_25  and  C17_27
REMARK       I    between atoms: C18_29  and  N5_31
REMARK   11  A    between atoms: N5_31  and  C19_33
REMARK   12  A    between atoms: C19_33  and  C20_34
REMARK   13  A    between atoms: C20_34  and  C23_37
REMARK   14  A    between atoms: C23_37  and  N6_38
ROOT
HETATM    1  C14 UNL     1      24.401  14.243  35.781  1.00  0.00     0.138 C
HETATM    2  C15 UNL     1      25.525  14.834  34.954  1.00  0.00     0.055 C
ENDROOT
BRANCH   1   3
HETATM    3  N3  UNL     1      24.758  13.942  37.150  1.00  0.00    -0.381 N
ATOM      4  H3  UNL     1      24.246  13.196  37.620  1.00  0.00     0.156 HD
BRANCH   3   5
HETATM    5  C12 UNL     1      25.733  14.588  37.859  1.00  0.00     0.176 C
HETATM    6  C13 UNL     1      26.380  13.656  38.908  1.00  0.00     0.055 C
BRANCH   5   7
HETATM    7  N2  UNL     1      25.270  15.768  38.561  1.00  0.00    -0.337 N
HETATM    8  C11 UNL     1      25.902  17.069  38.300  1.00  0.00     0.243 C
HETATM    9  O2  UNL     1      26.829  16.997  37.491  1.00  0.00    -0.269 OA
ATOM     10  H2  UNL     1      24.508  15.696  39.235  1.00  0.00     0.164 HD
BRANCH   8  11
HETATM   11  C10 UNL     1      25.358  18.215  39.015  1.00  0.00     0.080 C
BRANCH  11  12
HETATM   12  C8  UNL     1      24.001  18.719  38.816  1.00  0.00    -0.056 C
HETATM   13  C7  UNL     1      23.199  18.554  37.630  1.00  0.00     0.020 C
HETATM   14  C9  UNL     1      23.871  20.011  39.612  1.00  0.00     0.048 C
BRANCH  13  15
HETATM   15  C6  UNL     1      23.157  19.367  36.448  1.00  0.00    -0.014 A
HETATM   16  C2  UNL     1      22.002  19.857  35.890  1.00  0.00    -0.045 A
HETATM   17  C1  UNL     1      20.633  19.591  36.378  1.00  0.00     0.049 C
HETATM   18  C3  UNL     1      22.124  20.618  34.712  1.00  0.00     0.082 A
HETATM   19  C4  UNL     1      23.306  20.887  34.104  1.00  0.00     0.245 A
HETATM   20  O1  UNL     1      23.353  21.576  33.046  1.00  0.00    -0.268 OA
HETATM   21  N1  UNL     1      24.428  20.393  34.667  1.00  0.00    -0.333 N
HETATM   22  C5  UNL     1      24.344  19.679  35.772  1.00  0.00     0.103 A
ATOM     23  H1  UNL     1      25.337  20.572  34.241  1.00  0.00     0.168 HD
ENDBRANCH  13  15
ENDBRANCH  11  12
ENDBRANCH   8  11
ENDBRANCH   5   7
ENDBRANCH   3   5
ENDBRANCH   1   3
BRANCH   1  24
HETATM   24  C16 UNL     1      23.231  15.139  35.868  1.00  0.00     0.103 C
BRANCH  24  25
HETATM   25  N4  UNL     1      22.391  15.416  34.779  1.00  0.00    -0.345 N
ATOM     26  H4  UNL     1      21.974  14.589  34.350  1.00  0.00     0.167 HD
BRANCH  25  27
HETATM   27  C17 UNL     1      22.024  16.620  34.179  1.00  0.00     0.352 C
HETATM   28  O3  UNL     1      22.336  16.874  32.997  1.00  0.00    -0.283 OA
ENDBRANCH  25  27
ENDBRANCH  24  25
ENDBRANCH   1  24
BRANCH   1  29
HETATM   29  C18 UNL     1      24.198  12.864  35.202  1.00  0.00     0.254 C
HETATM   30  O4  UNL     1      23.727  12.799  34.057  1.00  0.00    -0.270 OA
HETATM   31  N5  UNL     1      24.509  11.720  35.949  1.00  0.00    -0.338 N
ATOM     32  H5  UNL     1      24.916  11.902  36.866  1.00  0.00     0.167 HD
BRANCH  31  33
HETATM   33  C19 UNL     1      24.347  10.372  35.632  1.00  0.00     0.074 C
BRANCH  33  34
HETATM   34  C20 UNL     1      25.303   9.477  34.979  1.00  0.00     0.011 C
HETATM   35  C21 UNL     1      25.005   9.339  33.468  1.00  0.00     0.022 C
HETATM   36  C22 UNL     1      25.512   8.132  35.568  1.00  0.00     0.022 C
BRANCH  34  37
HETATM   37  C23 UNL     1      26.649  10.243  35.030  1.00  0.00     0.286 C
BRANCH  37  38
HETATM   38  N6  UNL     1      27.584   9.682  35.945  1.00  0.00     0.092 N
HETATM   39  C24 UNL     1      28.962   9.922  35.370  1.00  0.00     0.275 C
HETATM   40  C25 UNL     1      29.781   9.418  36.549  1.00  0.00     0.069 C
HETATM   41  C26 UNL     1      28.982   9.943  37.733  1.00  0.00     0.200 C
HETATM   42  F1  UNL     1      29.766  10.783  38.474  1.00  0.00    -0.248 F
HETATM   43  C27 UNL     1      27.793  10.624  37.090  1.00  0.00     0.309 C
ENDBRANCH  37  38
ENDBRANCH  34  37
ENDBRANCH  33  34
ENDBRANCH  31  33
ENDBRANCH   1  29
TORSDOF 14
ENDMDL