MODEL 1
REMARK VINA RESULT: -8.997731074      0.000      0.000
REMARK  16 active torsions:
REMARK  status: ('A' for Active; 'I' for Inactive)
REMARK    1  A    between atoms: C2_2  and  C3_3
REMARK    2  A    between atoms: C4_4  and  N1_5
REMARK    3  A    between atoms: C4_4  and  C13_23
REMARK       I    between atoms: N1_5  and  C5_7
REMARK    4  A    between atoms: C5_7  and  C6_9
REMARK    5  A    between atoms: C6_9  and  C7_10
REMARK    6  A    between atoms: C6_9  and  N2_15
REMARK    7  A    between atoms: C7_10  and  C8_11
REMARK    8  A    between atoms: N2_15  and  C12_17
REMARK    9  A    between atoms: N3_18  and  N4_20
REMARK       I    between atoms: C13_23  and  N5_25
REMARK   10  A    between atoms: N5_25  and  C14_27
REMARK   11  A    between atoms: C16_29  and  C17_30
REMARK   12  A    between atoms: C17_30  and  C18_31
REMARK   13  A    between atoms: C18_31  and  C19_32
REMARK   14  A    between atoms: C19_32  and  C20_33
REMARK   15  A    between atoms: C23_37  and  C24_38
REMARK       I    between atoms: C24_38  and  N6_40
REMARK   16  A    between atoms: N6_40  and  C25_42
ROOT
HETATM    1  C25 UNL     1      23.257  19.789  41.231  1.00  0.00     0.247 C
HETATM    2  C26 UNL     1      23.930  20.182  42.460  1.00  0.00     0.078 C
HETATM    3  N7  UNL     1      24.455  20.493  43.444  1.00  0.00    -0.196 NA
ENDROOT
BRANCH   1   4
HETATM    4  N6  UNL     1      24.142  19.958  40.080  1.00  0.00    -0.348 N
HETATM    5  C24 UNL     1      23.683  19.792  38.765  1.00  0.00     0.228 C
HETATM    6  O3  UNL     1      22.435  19.480  38.670  1.00  0.00    -0.273 OA
ATOM      7  H6  UNL     1      25.120  20.202  40.237  1.00  0.00     0.163 HD
BRANCH   5   8
HETATM    8  C23 UNL     1      24.519  19.948  37.573  1.00  0.00     0.124 A
HETATM    9  C14 UNL     1      24.910  18.785  36.807  1.00  0.00     0.106 A
HETATM   10  C15 UNL     1      24.559  19.062  35.356  1.00  0.00     0.073 A
HETATM   11  C16 UNL     1      23.841  20.351  35.386  1.00  0.00    -0.018 A
HETATM   12  C22 UNL     1      23.824  20.852  36.643  1.00  0.00     0.005 A
BRANCH   9  13
HETATM   13  N5  UNL     1      24.456  17.461  37.152  1.00  0.00    -0.350 N
HETATM   14  C13 UNL     1      25.367  16.476  37.554  1.00  0.00     0.268 C
HETATM   15  O2  UNL     1      26.596  16.837  37.646  1.00  0.00    -0.266 OA
ATOM     16  H5  UNL     1      23.462  17.240  37.102  1.00  0.00     0.163 HD
BRANCH  14  17
HETATM   17  C4  UNL     1      25.067  15.081  37.861  1.00  0.00     0.099 C
HETATM   18  C3  UNL     1      25.326  14.511  39.164  1.00  0.00     0.008 C
BRANCH  18  19
HETATM   19  C2  UNL     1      26.605  13.859  39.514  1.00  0.00     0.025 C
HETATM   20  C1  UNL     1      26.668  12.389  39.198  1.00  0.00     0.009 C
ENDBRANCH  18  19
BRANCH  17  21
HETATM   21  N1  UNL     1      25.192  14.212  36.742  1.00  0.00    -0.321 N
HETATM   22  C5  UNL     1      24.224  14.005  35.745  1.00  0.00     0.245 C
HETATM   23  O1  UNL     1      23.140  14.606  35.789  1.00  0.00    -0.271 OA
ATOM     24  H1  UNL     1      26.065  13.690  36.656  1.00  0.00     0.169 HD
BRANCH  22  25
HETATM   25  C6  UNL     1      24.504  13.057  34.615  1.00  0.00     0.175 C
BRANCH  25  26
HETATM   26  C7  UNL     1      25.852  12.454  34.729  1.00  0.00     0.043 C
BRANCH  26  27
HETATM   27  C8  UNL     1      26.765  12.488  33.578  1.00  0.00    -0.049 C
HETATM   28  C9  UNL     1      26.299  11.958  32.273  1.00  0.00     0.014 C
HETATM   29  C10 UNL     1      27.382  13.860  33.353  1.00  0.00     0.014 C
HETATM   30  C11 UNL     1      27.977  11.599  33.976  1.00  0.00     0.014 C
ENDBRANCH  26  27
ENDBRANCH  25  26
BRANCH  25  31
HETATM   31  N2  UNL     1      23.511  11.960  34.684  1.00  0.00    -0.372 N
ATOM     32  H2  UNL     1      23.321  11.531  35.590  1.00  0.00     0.161 HD
BRANCH  31  33
HETATM   33  C12 UNL     1      22.815  11.483  33.556  1.00  0.00     0.193 C
HETATM   34  N3  UNL     1      23.028  10.354  33.003  1.00  0.00    -0.303 N
ATOM     35  H3  UNL     1      22.475  10.092  32.187  1.00  0.00     0.187 HD
BRANCH  34  36
HETATM   36  N4  UNL     1      23.990   9.467  33.477  1.00  0.00    -0.344 N
ATOM     37  H42 UNL     1      23.790   8.962  34.341  1.00  0.00     0.176 HD
ATOM     38  H41 UNL     1      24.874   9.315  32.991  1.00  0.00     0.176 HD
ENDBRANCH  34  36
ENDBRANCH  31  33
ENDBRANCH  25  31
ENDBRANCH  22  25
ENDBRANCH  17  21
ENDBRANCH  14  17
ENDBRANCH   9  13
BRANCH  11  39
HETATM   39  C17 UNL     1      23.250  21.074  34.326  1.00  0.00    -0.149 C
BRANCH  39  40
HETATM   40  C18 UNL     1      22.732  21.708  33.399  1.00  0.00     0.087 C
BRANCH  40  41
HETATM   41  C19 UNL     1      21.196  21.749  33.289  1.00  0.00     0.031 C
BRANCH  41  42
HETATM   42  C20 UNL     1      20.672  20.776  34.296  1.00  0.00     0.079 C
HETATM   43  C21 UNL     1      20.314  19.480  33.628  1.00  0.00     0.026 C
HETATM   44 CL1  UNL     1      19.167  21.389  35.063  1.00  0.00    -0.125 Cl
ENDBRANCH  41  42
ENDBRANCH  40  41
ENDBRANCH  39  40
ENDBRANCH  11  39
ENDBRANCH   5   8
ENDBRANCH   1   4
TORSDOF 16
ENDMDL