MODEL 2
REMARK VINA RESULT: -7.292305270      1.186      1.826
REMARK  15 active torsions:
REMARK  status: ('A' for Active; 'I' for Inactive)
REMARK    1  A    between atoms: N1_2  and  C4_5
REMARK    2  A    between atoms: C4_5  and  N2_6
REMARK    3  A    between atoms: N2_6  and  C5_9
REMARK    4  A    between atoms: C5_9  and  C6_10
REMARK    5  A    between atoms: C6_10  and  N3_11
REMARK    6  A    between atoms: N3_11  and  C7_14
REMARK    7  A    between atoms: C7_14  and  C8_15
REMARK    8  A    between atoms: C8_15  and  C9_16
REMARK    9  A    between atoms: C9_16  and  N4_17
REMARK   10  A    between atoms: N4_17  and  C10_20
REMARK   11  A    between atoms: C10_20  and  C11_21
REMARK   12  A    between atoms: C11_21  and  C12_22
REMARK   13  A    between atoms: C12_22  and  N5_23
REMARK   14  A    between atoms: N5_23  and  C13_25
REMARK   15  A    between atoms: C16_30  and  N7_31
ROOT
HETATM    1  N4  UNL     1     -22.771 -20.718 -44.173  1.00  0.00    -0.075 N
ATOM      2  H41 UNL     1     -21.982 -20.893 -43.552  1.00  0.00     0.277 HD
ATOM      3  H42 UNL     1     -23.502 -21.155 -43.614  1.00  0.00     0.277 HD
ENDROOT
BRANCH   1   4
HETATM    4  C9  UNL     1     -22.604 -21.377 -45.470  1.00  0.00     0.233 C
BRANCH   4   5
HETATM    5  C8  UNL     1     -21.256 -22.006 -45.523  1.00  0.00     0.055 C
BRANCH   5   6
HETATM    6  C7  UNL     1     -20.180 -21.253 -44.822  1.00  0.00     0.234 C
BRANCH   6   7
HETATM    7  N3  UNL     1     -18.835 -21.631 -45.095  1.00  0.00    -0.073 N
ATOM      8  H32 UNL     1     -18.560 -21.492 -46.067  1.00  0.00     0.277 HD
ATOM      9  H31 UNL     1     -18.679 -22.638 -45.069  1.00  0.00     0.277 HD
BRANCH   7  10
HETATM   10  C6  UNL     1     -18.015 -20.882 -44.136  1.00  0.00     0.259 C
BRANCH  10  11
HETATM   11  C5  UNL     1     -18.902 -20.109 -43.220  1.00  0.00     0.261 C
BRANCH  11  12
HETATM   12  N2  UNL     1     -18.128 -19.764 -42.017  1.00  0.00    -0.049 N
ATOM     13  H22 UNL     1     -18.650 -19.928 -41.157  1.00  0.00     0.279 HD
ATOM     14  H21 UNL     1     -17.997 -18.758 -41.912  1.00  0.00     0.279 HD
BRANCH  12  15
HETATM   15  C4  UNL     1     -16.855 -20.496 -42.052  1.00  0.00     0.466 C
BRANCH  15  16
HETATM   16  N1  UNL     1     -16.155 -20.198 -40.826  1.00  0.00    -0.055 N
HETATM   17  C1  UNL     1     -14.737 -20.445 -40.969  1.00  0.00     0.273 C
HETATM   18  C2  UNL     1     -16.333 -18.768 -40.595  1.00  0.00     0.273 C
HETATM   19  C3  UNL     1     -16.648 -20.954 -39.683  1.00  0.00     0.273 C
ENDBRANCH  15  16
ENDBRANCH  12  15
ENDBRANCH  11  12
ENDBRANCH  10  11
ENDBRANCH   7  10
ENDBRANCH   6   7
ENDBRANCH   5   6
ENDBRANCH   4   5
ENDBRANCH   1   4
BRANCH   1  20
HETATM   20  C10 UNL     1     -23.013 -19.273 -44.365  1.00  0.00     0.234 C
BRANCH  20  21
HETATM   21  C11 UNL     1     -22.337 -18.595 -43.217  1.00  0.00     0.047 C
BRANCH  21  22
HETATM   22  C12 UNL     1     -22.436 -19.376 -41.946  1.00  0.00     0.123 C
BRANCH  22  23
HETATM   23  N5  UNL     1     -23.505 -18.802 -41.106  1.00  0.00    -0.376 N
ATOM     24  H5  UNL     1     -23.805 -17.834 -41.217  1.00  0.00     0.161 HD
BRANCH  23  25
HETATM   25  C13 UNL     1     -24.044 -19.570 -40.228  1.00  0.00     0.118 A
HETATM   26  C14 UNL     1     -25.114 -20.379 -40.502  1.00  0.00     0.066 A
HETATM   27  C15 UNL     1     -25.617 -21.256 -39.527  1.00  0.00     0.110 A
HETATM   28  N6  UNL     1     -25.006 -21.256 -38.344  1.00  0.00    -0.202 N
HETATM   29  C16 UNL     1     -23.947 -20.465 -38.052  1.00  0.00     0.677 A
ATOM     30  H6  UNL     1     -25.353 -21.885 -37.621  1.00  0.00     0.183 HD
HETATM   31  N8  UNL     1     -23.485 -19.633 -39.004  1.00  0.00    -0.177 N
ATOM     32  H8  UNL     1     -22.688 -19.033 -38.793  1.00  0.00     0.185 HD
BRANCH  29  33
HETATM   33  N7  UNL     1     -23.392 -20.506 -36.896  1.00  0.00    -0.234 N
ATOM     34  H72 UNL     1     -22.980 -21.373 -36.549  1.00  0.00     0.174 HD
ATOM     35  H71 UNL     1     -23.353 -19.677 -36.303  1.00  0.00     0.174 HD
ENDBRANCH  29  33
ENDBRANCH  23  25
ENDBRANCH  22  23
ENDBRANCH  21  22
ENDBRANCH  20  21
ENDBRANCH   1  20
TORSDOF 15
ENDMDL