MODEL 4
REMARK VINA RESULT: -7.100406735      1.728      6.524
REMARK  18 active torsions:
REMARK  status: ('A' for Active; 'I' for Inactive)
REMARK    1  A    between atoms: N1_1  and  C1_5
REMARK    2  A    between atoms: C1_5  and  C2_6
REMARK    3  A    between atoms: C2_6  and  C3_7
REMARK    4  A    between atoms: C3_7  and  C4_8
REMARK    5  A    between atoms: C4_8  and  C5_9
REMARK    6  A    between atoms: C5_9  and  N2_10
REMARK    7  A    between atoms: C7_15  and  N4_16
REMARK    8  A    between atoms: N4_16  and  C8_18
REMARK    9  A    between atoms: C8_18  and  C9_19
REMARK   10  A    between atoms: C9_19  and  C10_20
REMARK   11  A    between atoms: C10_20  and  N5_21
REMARK   12  A    between atoms: C11_27  and  N7_28
REMARK   13  A    between atoms: N7_28  and  C12_30
REMARK   14  A    between atoms: C12_30  and  C13_31
REMARK   15  A    between atoms: C13_31  and  C14_32
REMARK   16  A    between atoms: C14_32  and  C15_33
REMARK   17  A    between atoms: C15_33  and  C16_34
REMARK   18  A    between atoms: C16_34  and  N8_35
ROOT
HETATM    1  N2  UNL     1     -19.813 -17.843 -44.015  1.00  0.00    -0.225 N
ATOM      2  H2  UNL     1     -19.226 -17.363 -43.334  1.00  0.00     0.177 HD
HETATM    3  C6  UNL     1     -19.476 -19.032 -44.291  1.00  0.00     0.707 A
HETATM    4  N3  UNL     1     -18.374 -19.515 -43.641  1.00  0.00    -0.022 N
ATOM      5  H3  UNL     1     -17.880 -18.915 -42.978  1.00  0.00     0.203 HD
HETATM    6  C7  UNL     1     -17.930 -20.759 -43.858  1.00  0.00     0.707 A
HETATM    7  N6  UNL     1     -18.570 -21.557 -44.727  1.00  0.00    -0.022 N
ATOM      8  H6  UNL     1     -18.227 -22.504 -44.888  1.00  0.00     0.203 HD
HETATM    9  C11 UNL     1     -19.660 -21.121 -45.390  1.00  0.00     0.707 A
HETATM   10  N9  UNL     1     -20.076 -19.867 -45.146  1.00  0.00    -0.022 N
ATOM     11  H9  UNL     1     -20.901 -19.531 -45.644  1.00  0.00     0.203 HD
ENDROOT
BRANCH   1  12
HETATM   12  C5  UNL     1     -20.907 -17.087 -44.535  1.00  0.00     0.138 C
BRANCH  12  13
HETATM   13  C4  UNL     1     -22.057 -17.214 -43.533  1.00  0.00     0.020 C
BRANCH  13  14
HETATM   14  C3  UNL     1     -23.386 -17.235 -44.233  1.00  0.00     0.003 C
BRANCH  14  15
HETATM   15  C2  UNL     1     -24.473 -16.856 -43.256  1.00  0.00     0.027 C
BRANCH  15  16
HETATM   16  C1  UNL     1     -25.733 -17.658 -43.425  1.00  0.00     0.229 C
BRANCH  16  17
HETATM   17  N1  UNL     1     -25.777 -18.162 -44.785  1.00  0.00    -0.079 N
ATOM     18  H13 UNL     1     -24.902 -18.603 -45.069  1.00  0.00     0.274 HD
ATOM     19  H12 UNL     1     -26.382 -18.978 -44.881  1.00  0.00     0.274 HD
ATOM     20  H11 UNL     1     -26.049 -17.398 -45.404  1.00  0.00     0.274 HD
ENDBRANCH  16  17
ENDBRANCH  15  16
ENDBRANCH  14  15
ENDBRANCH  13  14
ENDBRANCH  12  13
ENDBRANCH   1  12
BRANCH   6  21
HETATM   21  N4  UNL     1     -16.898 -21.221 -43.254  1.00  0.00    -0.225 N
ATOM     22  H4  UNL     1     -16.155 -21.681 -43.781  1.00  0.00     0.177 HD
BRANCH  21  23
HETATM   23  C8  UNL     1     -16.796 -21.082 -41.823  1.00  0.00     0.139 C
BRANCH  23  24
HETATM   24  C9  UNL     1     -15.752 -20.077 -41.413  1.00  0.00     0.047 C
BRANCH  24  25
HETATM   25  C10 UNL     1     -16.420 -19.141 -40.405  1.00  0.00     0.231 C
BRANCH  25  26
HETATM   26  N5  UNL     1     -17.537 -19.888 -39.846  1.00  0.00    -0.079 N
ATOM     27  H53 UNL     1     -18.368 -19.880 -40.436  1.00  0.00     0.274 HD
ATOM     28  H52 UNL     1     -17.395 -20.898 -39.849  1.00  0.00     0.274 HD
ATOM     29  H51 UNL     1     -17.694 -19.502 -38.915  1.00  0.00     0.274 HD
ENDBRANCH  25  26
ENDBRANCH  24  25
ENDBRANCH  23  24
ENDBRANCH  21  23
ENDBRANCH   6  21
BRANCH   9  30
HETATM   30  N7  UNL     1     -20.287 -21.862 -46.224  1.00  0.00    -0.225 N
ATOM     31  H7  UNL     1     -19.738 -22.491 -46.809  1.00  0.00     0.177 HD
BRANCH  30  32
HETATM   32  C12 UNL     1     -21.705 -21.864 -46.388  1.00  0.00     0.138 C
BRANCH  32  33
HETATM   33  C13 UNL     1     -22.419 -22.069 -45.103  1.00  0.00     0.020 C
BRANCH  33  34
HETATM   34  C14 UNL     1     -23.430 -21.038 -44.779  1.00  0.00     0.003 C
BRANCH  34  35
HETATM   35  C15 UNL     1     -24.305 -21.246 -43.598  1.00  0.00     0.027 C
BRANCH  35  36
HETATM   36  C16 UNL     1     -23.616 -20.508 -42.416  1.00  0.00     0.229 C
BRANCH  36  37
HETATM   37  N8  UNL     1     -24.514 -20.581 -41.273  1.00  0.00    -0.079 N
ATOM     38  H83 UNL     1     -25.472 -20.314 -41.501  1.00  0.00     0.274 HD
ATOM     39  H82 UNL     1     -24.710 -21.539 -40.981  1.00  0.00     0.274 HD
ATOM     40  H81 UNL     1     -24.109 -20.013 -40.529  1.00  0.00     0.274 HD
ENDBRANCH  36  37
ENDBRANCH  35  36
ENDBRANCH  34  35
ENDBRANCH  33  34
ENDBRANCH  32  33
ENDBRANCH  30  32
ENDBRANCH   9  30
TORSDOF 18
ENDMDL