MODEL 5
REMARK VINA RESULT: -7.268809991      1.756      3.326
REMARK  18 active torsions:
REMARK  status: ('A' for Active; 'I' for Inactive)
REMARK    1  A    between atoms: C2_2  and  C3_3
REMARK    2  A    between atoms: C3_3  and  N1_4
REMARK    3  A    between atoms: N1_4  and  C4_6
REMARK    4  A    between atoms: C5_9  and  N3_10
REMARK    5  A    between atoms: N3_10  and  C6_12
REMARK    6  A    between atoms: C6_12  and  C7_13
REMARK    7  A    between atoms: C7_13  and  C8_14
REMARK    8  A    between atoms: C8_14  and  N4_15
REMARK    9  A    between atoms: C9_21  and  N6_22
REMARK   10  A    between atoms: N6_22  and  C10_24
REMARK   11  A    between atoms: C10_24  and  C11_25
REMARK   12  A    between atoms: C11_25  and  C12_26
REMARK   13  A    between atoms: C12_26  and  C13_27
REMARK   14  A    between atoms: C13_27  and  N7_28
REMARK   15  A    between atoms: N7_28  and  C14_31
REMARK   16  A    between atoms: C14_31  and  C15_32
REMARK   17  A    between atoms: C15_32  and  C16_33
REMARK   18  A    between atoms: C16_33  and  N8_34
ROOT
HETATM    1  C4  UNL     1     -19.462 -19.039 -44.350  1.00  0.00     0.707 A
HETATM    2  N2  UNL     1     -18.382 -19.502 -43.690  1.00  0.00    -0.022 N
ATOM      3  H2  UNL     1     -17.896 -18.896 -43.029  1.00  0.00     0.203 HD
HETATM    4  C5  UNL     1     -17.937 -20.756 -43.896  1.00  0.00     0.707 A
HETATM    5  N5  UNL     1     -18.589 -21.537 -44.770  1.00  0.00    -0.022 N
ATOM      6  H5  UNL     1     -18.247 -22.485 -44.923  1.00  0.00     0.203 HD
HETATM    7  C9  UNL     1     -19.668 -21.129 -45.452  1.00  0.00     0.707 A
HETATM    8  N9  UNL     1     -20.076 -19.863 -45.212  1.00  0.00    -0.022 N
ATOM      9  H9  UNL     1     -20.895 -19.516 -45.714  1.00  0.00     0.203 HD
ENDROOT
BRANCH   7  10
HETATM   10  N6  UNL     1     -20.294 -21.883 -46.291  1.00  0.00    -0.225 N
ATOM     11  H6  UNL     1     -19.760 -22.460 -46.941  1.00  0.00     0.177 HD
BRANCH  10  12
HETATM   12  C10 UNL     1     -21.741 -21.925 -46.329  1.00  0.00     0.138 C
BRANCH  12  13
HETATM   13  C11 UNL     1     -22.331 -21.814 -44.933  1.00  0.00     0.022 C
BRANCH  13  14
HETATM   14  C12 UNL     1     -23.511 -20.867 -44.905  1.00  0.00     0.029 C
BRANCH  14  15
HETATM   15  C13 UNL     1     -24.374 -21.257 -43.723  1.00  0.00     0.232 C
BRANCH  15  16
HETATM   16  N7  UNL     1     -24.509 -20.093 -42.863  1.00  0.00    -0.075 N
ATOM     17  H72 UNL     1     -24.158 -19.251 -43.318  1.00  0.00     0.277 HD
ATOM     18  H71 UNL     1     -25.485 -19.820 -42.756  1.00  0.00     0.277 HD
BRANCH  16  19
HETATM   19  C14 UNL     1     -23.877 -20.304 -41.589  1.00  0.00     0.233 C
BRANCH  19  20
HETATM   20  C15 UNL     1     -24.712 -19.762 -40.457  1.00  0.00     0.055 C
BRANCH  20  21
HETATM   21  C16 UNL     1     -25.508 -20.928 -39.897  1.00  0.00     0.231 C
BRANCH  21  22
HETATM   22  N8  UNL     1     -25.147 -21.082 -38.512  1.00  0.00    -0.079 N
ATOM     23  H83 UNL     1     -24.138 -21.145 -38.371  1.00  0.00     0.274 HD
ATOM     24  H82 UNL     1     -25.308 -20.237 -37.964  1.00  0.00     0.274 HD
ATOM     25  H81 UNL     1     -25.649 -21.892 -38.147  1.00  0.00     0.274 HD
ENDBRANCH  21  22
ENDBRANCH  20  21
ENDBRANCH  19  20
ENDBRANCH  16  19
ENDBRANCH  15  16
ENDBRANCH  14  15
ENDBRANCH  13  14
ENDBRANCH  12  13
ENDBRANCH  10  12
ENDBRANCH   7  10
BRANCH   4  26
HETATM   26  N3  UNL     1     -16.897 -21.222 -43.268  1.00  0.00    -0.225 N
ATOM     27  H3  UNL     1     -16.129 -21.614 -43.813  1.00  0.00     0.177 HD
BRANCH  26  28
HETATM   28  C6  UNL     1     -16.790 -21.203 -41.836  1.00  0.00     0.139 C
BRANCH  28  29
HETATM   29  C7  UNL     1     -15.737 -20.213 -41.429  1.00  0.00     0.047 C
BRANCH  29  30
HETATM   30  C8  UNL     1     -16.243 -19.315 -40.293  1.00  0.00     0.231 C
BRANCH  30  31
HETATM   31  N4  UNL     1     -17.489 -19.817 -39.762  1.00  0.00    -0.079 N
ATOM     32  H43 UNL     1     -18.041 -20.292 -40.476  1.00  0.00     0.274 HD
ATOM     33  H42 UNL     1     -17.341 -20.607 -39.134  1.00  0.00     0.274 HD
ATOM     34  H41 UNL     1     -18.017 -19.069 -39.312  1.00  0.00     0.274 HD
ENDBRANCH  30  31
ENDBRANCH  29  30
ENDBRANCH  28  29
ENDBRANCH  26  28
ENDBRANCH   4  26
BRANCH   1  35
HETATM   35  N1  UNL     1     -19.868 -17.848 -44.143  1.00  0.00    -0.222 N
ATOM     36  H1  UNL     1     -19.193 -17.198 -43.739  1.00  0.00     0.178 HD
BRANCH  35  37
HETATM   37  C3  UNL     1     -21.175 -17.330 -44.417  1.00  0.00     0.164 C
BRANCH  37  38
HETATM   38  C2  UNL     1     -22.007 -17.547 -43.211  1.00  0.00    -0.017 C
HETATM   39  C1  UNL     1     -23.064 -16.804 -42.998  1.00  0.00     0.008 C
ENDBRANCH  37  38
ENDBRANCH  35  37
ENDBRANCH   1  35
TORSDOF 18
ENDMDL