MODEL 3
REMARK VINA RESULT: -7.579749914      3.704      4.681
REMARK  15 active torsions:
REMARK  status: ('A' for Active; 'I' for Inactive)
REMARK    1  A    between atoms: N1_2  and  C2_5
REMARK    2  A    between atoms: C2_5  and  C3_6
REMARK    3  A    between atoms: C3_6  and  C4_7
REMARK    4  A    between atoms: N3_13  and  C8_14
REMARK    5  A    between atoms: C8_14  and  C9_15
REMARK    6  A    between atoms: C9_15  and  C10_16
REMARK    7  A    between atoms: C10_16  and  C11_17
REMARK    8  A    between atoms: C11_17  and  N4_18
REMARK    9  A    between atoms: N4_18  and  C12_19
REMARK   10  A    between atoms: N4_18  and  C14_23
REMARK   11  A    between atoms: C12_19  and  C13_20
REMARK   12  A    between atoms: C13_20  and  O1_21
REMARK   13  A    between atoms: C14_23  and  C15_24
REMARK   14  A    between atoms: C15_24  and  O2_25
REMARK   15  A    between atoms: C16_27  and  N5_28
ROOT
HETATM    1  C4  UNL     1     -19.287 -20.751 -44.474  1.00  0.00     0.040 A
HETATM    2  N2  UNL     1     -19.417 -21.439 -45.650  1.00  0.00    -0.367 N
ATOM      3  H2  UNL     1     -18.575 -21.722 -46.152  1.00  0.00     0.165 HD
HETATM    4  C5  UNL     1     -20.617 -21.756 -46.166  1.00  0.00     0.090 A
HETATM    5  C6  UNL     1     -21.820 -21.429 -45.584  1.00  0.00     0.050 A
HETATM    6  C7  UNL     1     -21.788 -20.734 -44.396  1.00  0.00     0.082 A
HETATM    7  N3  UNL     1     -22.724 -20.243 -43.568  1.00  0.00    -0.181 N
HETATM    8  C16 UNL     1     -22.069 -19.630 -42.551  1.00  0.00     0.679 A
HETATM    9  N6  UNL     1     -20.733 -19.723 -42.721  1.00  0.00    -0.188 N
ATOM     10  H6  UNL     1     -20.035 -19.337 -42.086  1.00  0.00     0.184 HD
HETATM   11  C17 UNL     1     -20.459 -20.398 -43.848  1.00  0.00     0.099 A
ENDROOT
BRANCH   7  12
HETATM   12  C8  UNL     1     -24.158 -20.332 -43.708  1.00  0.00     0.148 C
BRANCH  12  13
HETATM   13  C9  UNL     1     -24.774 -18.955 -43.892  1.00  0.00     0.022 C
BRANCH  13  14
HETATM   14  C10 UNL     1     -23.960 -18.146 -44.910  1.00  0.00     0.032 C
BRANCH  14  15
HETATM   15  C11 UNL     1     -23.657 -16.774 -44.337  1.00  0.00     0.272 C
BRANCH  15  16
HETATM   16  N4  UNL     1     -22.499 -16.166 -44.918  1.00  0.00     0.092 N
BRANCH  16  17
HETATM   17  C12 UNL     1     -22.050 -15.105 -44.071  1.00  0.00     0.298 C
BRANCH  17  18
HETATM   18  C13 UNL     1     -21.916 -13.753 -44.685  1.00  0.00     0.194 C
BRANCH  18  19
HETATM   19  O1  UNL     1     -20.680 -13.301 -45.029  1.00  0.00    -0.399 OA
ATOM     20  H1  UNL     1     -20.082 -13.884 -45.482  1.00  0.00     0.209 HD
ENDBRANCH  18  19
ENDBRANCH  17  18
ENDBRANCH  16  17
BRANCH  16  21
HETATM   21  C14 UNL     1     -21.468 -17.103 -45.185  1.00  0.00     0.298 C
BRANCH  21  22
HETATM   22  C15 UNL     1     -20.108 -16.848 -44.642  1.00  0.00     0.194 C
BRANCH  22  23
HETATM   23  O2  UNL     1     -19.102 -17.207 -45.497  1.00  0.00    -0.399 OA
ATOM     24  H2  UNL     1     -18.233 -17.076 -45.136  1.00  0.00     0.209 HD
ENDBRANCH  22  23
ENDBRANCH  21  22
ENDBRANCH  16  21
ENDBRANCH  15  16
ENDBRANCH  14  15
ENDBRANCH  13  14
ENDBRANCH  12  13
ENDBRANCH   7  12
BRANCH   8  25
HETATM   25  N5  UNL     1     -22.648 -19.061 -41.585  1.00  0.00    -0.234 N
ATOM     26  H52 UNL     1     -23.052 -18.125 -41.605  1.00  0.00     0.174 HD
ATOM     27  H51 UNL     1     -22.769 -19.486 -40.665  1.00  0.00     0.174 HD
ENDBRANCH   8  25
BRANCH   1  28
HETATM   28  C3  UNL     1     -17.939 -20.470 -43.943  1.00  0.00     0.087 C
BRANCH  28  29
HETATM   29  C2  UNL     1     -17.582 -21.144 -42.672  1.00  0.00     0.237 C
BRANCH  29  30
HETATM   30  N1  UNL     1     -16.216 -21.154 -42.290  1.00  0.00    -0.079 N
HETATM   31  C1  UNL     1     -16.014 -20.112 -41.279  1.00  0.00     0.267 C
ATOM     32  H12 UNL     1     -15.584 -21.059 -43.085  1.00  0.00     0.276 HD
ATOM     33  H11 UNL     1     -15.903 -22.073 -41.974  1.00  0.00     0.276 HD
ENDBRANCH  29  30
ENDBRANCH  28  29
ENDBRANCH   1  28
TORSDOF 15
ENDMDL