MODEL 1
REMARK VINA RESULT: -7.332806443      0.000      0.000
REMARK  15 active torsions:
REMARK  status: ('A' for Active; 'I' for Inactive)
REMARK    1  A    between atoms: N1_5  and  C5_7
REMARK    2  A    between atoms: C5_7  and  C6_8
REMARK    3  A    between atoms: C6_8  and  C7_9
REMARK    4  A    between atoms: C7_9  and  N2_10
REMARK    5  A    between atoms: N2_10  and  C8_13
REMARK    6  A    between atoms: C8_13  and  C9_14
REMARK    7  A    between atoms: C9_14  and  C10_15
REMARK    8  A    between atoms: C10_15  and  N3_16
REMARK    9  A    between atoms: N3_16  and  C11_19
REMARK   10  A    between atoms: C11_19  and  C12_20
REMARK   11  A    between atoms: C13_24  and  N5_25
REMARK   12  A    between atoms: N5_25  and  C14_27
REMARK   13  A    between atoms: C14_27  and  C15_28
REMARK   14  A    between atoms: C15_28  and  C16_29
REMARK   15  A    between atoms: C16_29  and  O1_30
ROOT
HETATM    1  C1  UNL     1     -21.107 -22.155 -45.827  1.00  0.00     0.069 C
HETATM    2  C2  UNL     1     -20.361 -21.114 -45.075  1.00  0.00     0.026 A
HETATM    3  C3  UNL     1     -20.948 -19.879 -44.835  1.00  0.00     0.073 A
HETATM    4  C4  UNL     1     -20.335 -18.869 -44.150  1.00  0.00     0.118 A
HETATM    5  N1  UNL     1     -20.805 -17.727 -43.883  1.00  0.00    -0.376 N
ATOM      6  H1  UNL     1     -20.181 -17.113 -43.360  1.00  0.00     0.161 HD
HETATM    7  N4  UNL     1     -19.070 -19.134 -43.695  1.00  0.00    -0.177 N
ATOM      8  H4  UNL     1     -18.565 -18.415 -43.177  1.00  0.00     0.185 HD
HETATM    9  C13 UNL     1     -18.478 -20.318 -43.913  1.00  0.00     0.679 A
HETATM   10  N6  UNL     1     -19.123 -21.304 -44.601  1.00  0.00    -0.196 N
ATOM     11  H6  UNL     1     -18.656 -22.198 -44.757  1.00  0.00     0.184 HD
ENDROOT
BRANCH   5  12
HETATM   12  C5  UNL     1     -22.072 -17.170 -44.202  1.00  0.00     0.123 C
BRANCH  12  13
HETATM   13  C6  UNL     1     -22.880 -16.816 -42.991  1.00  0.00     0.047 C
BRANCH  13  14
HETATM   14  C7  UNL     1     -23.224 -17.977 -42.127  1.00  0.00     0.234 C
BRANCH  14  15
HETATM   15  N2  UNL     1     -23.918 -19.045 -42.834  1.00  0.00    -0.075 N
ATOM     16  H22 UNL     1     -24.879 -18.804 -43.077  1.00  0.00     0.277 HD
ATOM     17  H21 UNL     1     -23.573 -19.185 -43.784  1.00  0.00     0.277 HD
BRANCH  15  18
HETATM   18  C8  UNL     1     -23.823 -20.228 -42.019  1.00  0.00     0.233 C
BRANCH  18  19
HETATM   19  C9  UNL     1     -23.904 -19.955 -40.542  1.00  0.00     0.055 C
BRANCH  19  20
HETATM   20  C10 UNL     1     -25.203 -20.613 -40.058  1.00  0.00     0.234 C
BRANCH  20  21
HETATM   21  N3  UNL     1     -25.216 -20.787 -38.649  1.00  0.00    -0.074 N
ATOM     22  H32 UNL     1     -26.078 -20.433 -38.236  1.00  0.00     0.277 HD
ATOM     23  H31 UNL     1     -25.313 -21.770 -38.394  1.00  0.00     0.277 HD
BRANCH  21  24
HETATM   24  C11 UNL     1     -24.059 -20.196 -38.042  1.00  0.00     0.243 C
BRANCH  24  25
HETATM   25  C12 UNL     1     -24.450 -19.219 -36.990  1.00  0.00     0.113 C
HETATM   26  S1  UNL     1     -25.002 -17.637 -37.694  1.00  0.00    -0.096 SA
ENDBRANCH  24  25
ENDBRANCH  21  24
ENDBRANCH  20  21
ENDBRANCH  19  20
ENDBRANCH  18  19
ENDBRANCH  15  18
ENDBRANCH  14  15
ENDBRANCH  13  14
ENDBRANCH  12  13
ENDBRANCH   5  12
BRANCH   9  27
HETATM   27  N5  UNL     1     -17.293 -20.554 -43.476  1.00  0.00    -0.226 N
ATOM     28  H5  UNL     1     -16.483 -20.472 -44.090  1.00  0.00     0.177 HD
BRANCH  27  29
HETATM   29  C14 UNL     1     -17.135 -20.940 -42.092  1.00  0.00     0.140 C
BRANCH  29  30
HETATM   30  C15 UNL     1     -16.590 -19.751 -41.319  1.00  0.00     0.046 C
BRANCH  30  31
HETATM   31  C16 UNL     1     -15.128 -20.007 -40.961  1.00  0.00     0.165 C
BRANCH  31  32
HETATM   32  O1  UNL     1     -14.638 -21.091 -41.680  1.00  0.00    -0.401 OA
ATOM     33  H1  UNL     1     -14.242 -21.724 -41.093  1.00  0.00     0.209 HD
ENDBRANCH  31  32
ENDBRANCH  30  31
ENDBRANCH  29  30
ENDBRANCH  27  29
ENDBRANCH   9  27
TORSDOF 15
ENDMDL