MODEL 5
REMARK VINA RESULT: -7.918715680      0.847      1.018
REMARK  14 active torsions:
REMARK  status: ('A' for Active; 'I' for Inactive)
REMARK    1  A    between atoms: C2_2  and  O1_3
REMARK    2  A    between atoms: C2_2  and  C3_5
REMARK    3  A    between atoms: C5_9  and  N2_10
REMARK    4  A    between atoms: N2_10  and  C6_11
REMARK    5  A    between atoms: C6_11  and  C7_12
REMARK    6  A    between atoms: C7_12  and  C8_13
REMARK    7  A    between atoms: C8_13  and  C9_14
REMARK    8  A    between atoms: C9_14  and  C10_15
REMARK    9  A    between atoms: C10_15  and  C11_16
REMARK   10  A    between atoms: C11_16  and  N3_17
REMARK   11  A    between atoms: N3_17  and  C13_19
REMARK   12  A    between atoms: C13_19  and  C14_20
REMARK   13  A    between atoms: C14_20  and  C15_21
REMARK   14  A    between atoms: C15_21  and  N4_22
ROOT
HETATM    1  C7  UNL     1     -19.407 -20.951 -44.206  1.00  0.00     0.033 C
ENDROOT
BRANCH   1   2
HETATM    2  C6  UNL     1     -19.478 -19.794 -43.166  1.00  0.00     0.222 C
BRANCH   2   3
HETATM    3  N2  UNL     1     -18.450 -19.798 -42.305  1.00  0.00    -0.416 NA
BRANCH   3   4
HETATM    4  C5  UNL     1     -17.514 -19.807 -41.533  1.00  0.00     0.245 C
HETATM    5  N1  UNL     1     -17.491 -20.368 -40.186  1.00  0.00    -0.349 N
HETATM    6  C4  UNL     1     -16.133 -20.719 -39.901  1.00  0.00     0.151 C
ATOM      7  H1  UNL     1     -18.292 -20.488 -39.564  1.00  0.00     0.163 HD
HETATM    8  C3  UNL     1     -15.279 -20.019 -40.898  1.00  0.00     0.131 C
HETATM    9  N7  UNL     1     -16.180 -19.251 -41.689  1.00  0.00    -0.342 N
ATOM     10  H7  UNL     1     -15.933 -18.446 -42.266  1.00  0.00     0.164 HD
BRANCH   8  11
HETATM   11  C2  UNL     1     -14.211 -19.161 -40.242  1.00  0.00     0.138 C
HETATM   12  C1  UNL     1     -14.348 -17.718 -40.618  1.00  0.00     0.041 C
BRANCH  11  13
HETATM   13  O1  UNL     1     -12.976 -19.638 -40.701  1.00  0.00    -0.394 OA
ATOM     14  H1  UNL     1     -12.320 -19.498 -40.028  1.00  0.00     0.210 HD
ENDBRANCH  11  13
ENDBRANCH   8  11
ENDBRANCH   3   4
ENDBRANCH   2   3
ENDBRANCH   1   2
BRANCH   1  15
HETATM   15  C8  UNL     1     -20.327 -20.663 -45.336  1.00  0.00     0.003 C
BRANCH  15  16
HETATM   16  C9  UNL     1     -21.211 -21.805 -45.752  1.00  0.00     0.002 C
BRANCH  16  17
HETATM   17  C10 UNL     1     -22.517 -21.649 -45.009  1.00  0.00     0.020 C
BRANCH  17  18
HETATM   18  C11 UNL     1     -22.822 -20.185 -44.713  1.00  0.00     0.121 C
BRANCH  18  19
HETATM   19  N3  UNL     1     -23.628 -20.091 -43.548  1.00  0.00    -0.398 N
HETATM   20  C12 UNL     1     -24.317 -21.230 -43.131  1.00  0.00     0.148 C
BRANCH  19  21
HETATM   21  C13 UNL     1     -24.111 -18.811 -43.275  1.00  0.00     0.059 C
BRANCH  21  22
HETATM   22  C14 UNL     1     -23.251 -17.948 -42.379  1.00  0.00     0.064 C
BRANCH  22  23
HETATM   23  C15 UNL     1     -22.877 -16.736 -43.233  1.00  0.00     0.127 C
BRANCH  23  24
HETATM   24  N4  UNL     1     -21.593 -16.814 -43.826  1.00  0.00    -0.367 N
HETATM   25  C16 UNL     1     -21.266 -16.872 -45.050  1.00  0.00     0.196 C
HETATM   26  N5  UNL     1     -19.850 -16.944 -45.328  1.00  0.00    -0.067 NA
HETATM   27  N6  UNL     1     -22.152 -16.873 -46.155  1.00  0.00    -0.067 NA
ATOM     28  H4  UNL     1     -20.813 -16.826 -43.169  1.00  0.00     0.161 HD
ENDBRANCH  23  24
ENDBRANCH  22  23
ENDBRANCH  21  22
ENDBRANCH  19  21
ENDBRANCH  18  19
ENDBRANCH  17  18
ENDBRANCH  16  17
ENDBRANCH  15  16
ENDBRANCH   1  15
TORSDOF 14
ENDMDL