MODEL 4
REMARK VINA RESULT: -7.605834028      1.065      1.184
REMARK  15 active torsions:
REMARK  status: ('A' for Active; 'I' for Inactive)
REMARK    1  A    between atoms: N1_2  and  C2_3
REMARK    2  A    between atoms: N1_2  and  C8_18
REMARK    3  A    between atoms: C2_3  and  C3_4
REMARK    4  A    between atoms: C3_4  and  N2_5
REMARK    5  A    between atoms: N2_5  and  C4_6
REMARK    6  A    between atoms: N2_5  and  C5_9
REMARK    7  A    between atoms: C4_6  and  O1_7
REMARK    8  A    between atoms: C5_9  and  C6_10
REMARK    9  A    between atoms: C6_10  and  N3_11
REMARK       I    between atoms: N3_11  and  C7_13
REMARK   10  A    between atoms: C8_18  and  C9_19
REMARK   11  A    between atoms: C9_19  and  O2_20
REMARK   12  A    between atoms: C9_19  and  C10_22
REMARK   13  A    between atoms: C10_22  and  O3_23
REMARK   14  A    between atoms: O3_23  and  C11_24
REMARK   15  A    between atoms: C11_24  and  C12_25
ROOT
HETATM    1  C1  UNL     1     -21.881 -16.880 -44.807  1.00  0.00     0.148 C
HETATM    2  N1  UNL     1     -22.326 -18.131 -44.308  1.00  0.00    -0.393 N
ENDROOT
BRANCH   2   3
HETATM    3  C2  UNL     1     -21.635 -19.290 -44.673  1.00  0.00     0.088 C
BRANCH   3   4
HETATM    4  C3  UNL     1     -20.287 -19.245 -45.235  1.00  0.00     0.319 C
BRANCH   4   5
HETATM    5  N2  UNL     1     -19.625 -20.515 -45.268  1.00  0.00     0.117 N
BRANCH   5   6
HETATM    6  C4  UNL     1     -20.499 -21.559 -45.786  1.00  0.00     0.438 C
BRANCH   6   7
HETATM    7  O1  UNL     1     -20.204 -21.725 -47.131  1.00  0.00    -0.373 OA
ATOM      8  H1  UNL     1     -19.456 -22.307 -47.192  1.00  0.00     0.211 HD
ENDBRANCH   6   7
ENDBRANCH   5   6
BRANCH   5   9
HETATM    9  C5  UNL     1     -18.974 -20.924 -44.079  1.00  0.00     0.295 C
BRANCH   9  10
HETATM   10  C6  UNL     1     -17.507 -20.971 -43.990  1.00  0.00     0.152 C
BRANCH  10  11
HETATM   11  N3  UNL     1     -16.847 -21.270 -42.776  1.00  0.00    -0.363 N
HETATM   12  C7  UNL     1     -16.665 -20.248 -41.751  1.00  0.00     0.181 C
HETATM   13  N4  UNL     1     -15.691 -19.400 -41.827  1.00  0.00    -0.374 N
HETATM   14  N5  UNL     1     -17.583 -20.210 -40.681  1.00  0.00    -0.064 NA
ATOM     15  H42 UNL     1     -15.028 -19.427 -42.601  1.00  0.00     0.158 HD
ATOM     16  H41 UNL     1     -15.564 -18.686 -41.109  1.00  0.00     0.158 HD
ATOM     17  H3  UNL     1     -16.493 -22.213 -42.614  1.00  0.00     0.162 HD
ENDBRANCH  10  11
ENDBRANCH   9  10
ENDBRANCH   5   9
ENDBRANCH   4   5
ENDBRANCH   3   4
ENDBRANCH   2   3
BRANCH   2  18
HETATM   18  C8  UNL     1     -22.687 -18.094 -42.899  1.00  0.00     0.155 C
BRANCH  18  19
HETATM   19  C9  UNL     1     -22.868 -19.463 -42.304  1.00  0.00     0.159 C
BRANCH  19  20
HETATM   20  O2  UNL     1     -21.759 -19.669 -41.443  1.00  0.00    -0.392 OA
ATOM     21  H2  UNL     1     -21.112 -20.141 -41.954  1.00  0.00     0.210 HD
ENDBRANCH  19  20
BRANCH  19  22
HETATM   22  C10 UNL     1     -24.057 -19.463 -41.320  1.00  0.00     0.201 C
BRANCH  22  23
HETATM   23  O3  UNL     1     -23.545 -19.401 -40.044  1.00  0.00    -0.383 OA
BRANCH  23  24
HETATM   24  C11 UNL     1     -24.220 -20.115 -39.081  1.00  0.00     0.224 C
BRANCH  24  25
HETATM   25  C12 UNL     1     -23.547 -19.984 -37.765  1.00  0.00     0.033 A
HETATM   26  C13 UNL     1     -24.185 -19.612 -36.586  1.00  0.00     0.028 A
HETATM   27  C14 UNL     1     -23.220 -19.590 -35.607  1.00  0.00     0.019 A
HETATM   28  C15 UNL     1     -22.012 -19.937 -36.164  1.00  0.00     0.088 A
HETATM   29  N6  UNL     1     -22.268 -20.162 -37.456  1.00  0.00    -0.367 N
ATOM     30  H6  UNL     1     -21.558 -20.441 -38.132  1.00  0.00     0.165 HD
ENDBRANCH  24  25
ENDBRANCH  23  24
ENDBRANCH  22  23
ENDBRANCH  19  22
ENDBRANCH  18  19
ENDBRANCH   2  18
TORSDOF 15
ENDMDL