MODEL 5
REMARK VINA RESULT: -8.141806467      1.698      2.051
REMARK  13 active torsions:
REMARK  status: ('A' for Active; 'I' for Inactive)
REMARK    1  A    between atoms: O1_2  and  C2_3
REMARK    2  A    between atoms: C2_3  and  C3_4
REMARK    3  A    between atoms: C7_10  and  N2_11
REMARK    4  A    between atoms: N2_11  and  C8_13
REMARK    5  A    between atoms: C8_13  and  C9_14
REMARK    6  A    between atoms: C9_14  and  C10_15
REMARK    7  A    between atoms: C10_15  and  N3_16
REMARK    8  A    between atoms: N3_16  and  C11_18
REMARK    9  A    between atoms: C11_18  and  C12_19
REMARK   10  A    between atoms: C12_19  and  N4_20
REMARK   11  A    between atoms: N4_20  and  C13_23
REMARK   12  A    between atoms: C13_23  and  C14_24
REMARK   13  A    between atoms: C14_24  and  N5_25
REMARK       I    between atoms: N5_25  and  C15_27
ROOT
HETATM    1  C9  UNL     1     -21.753 -21.979 -45.851  1.00  0.00     0.064 C
ENDROOT
BRANCH   1   2
HETATM    2  C8  UNL     1     -22.907 -21.475 -44.992  1.00  0.00     0.143 C
BRANCH   2   3
HETATM    3  N2  UNL     1     -22.608 -20.207 -44.373  1.00  0.00    -0.226 N
ATOM      4  H2  UNL     1     -21.938 -19.562 -44.792  1.00  0.00     0.177 HD
BRANCH   3   5
HETATM    5  C7  UNL     1     -23.223 -19.906 -43.255  1.00  0.00     0.679 A
HETATM    6  N1  UNL     1     -23.812 -20.732 -42.374  1.00  0.00    -0.190 N
HETATM    7  C6  UNL     1     -24.339 -20.035 -41.345  1.00  0.00     0.076 A
ATOM      8  H1  UNL     1     -23.855 -21.746 -42.469  1.00  0.00     0.184 HD
HETATM    9  C5  UNL     1     -25.026 -20.436 -40.218  1.00  0.00     0.033 A
HETATM   10  C16 UNL     1     -24.070 -18.700 -41.588  1.00  0.00     0.077 A
HETATM   11  C4  UNL     1     -25.462 -19.493 -39.307  1.00  0.00     0.012 A
HETATM   12  C3  UNL     1     -25.184 -18.149 -39.566  1.00  0.00    -0.032 A
HETATM   13  C17 UNL     1     -24.497 -17.746 -40.688  1.00  0.00     0.041 A
HETATM   14  N8  UNL     1     -23.397 -18.661 -42.749  1.00  0.00    -0.190 N
ATOM     15  H8  UNL     1     -23.060 -17.807 -43.192  1.00  0.00     0.184 HD
BRANCH  12  16
HETATM   16  C2  UNL     1     -25.646 -17.146 -38.582  1.00  0.00     0.205 C
BRANCH  16  17
HETATM   17  O1  UNL     1     -27.007 -17.220 -38.438  1.00  0.00    -0.391 OA
HETATM   18  C1  UNL     1     -27.621 -16.375 -39.339  1.00  0.00     0.201 C
ENDBRANCH  16  17
ENDBRANCH  12  16
ENDBRANCH   3   5
ENDBRANCH   2   3
ENDBRANCH   1   2
BRANCH   1  19
HETATM   19  C10 UNL     1     -20.588 -21.014 -45.767  1.00  0.00     0.057 C
BRANCH  19  20
HETATM   20  N3  UNL     1     -19.330 -21.586 -45.545  1.00  0.00    -0.401 N
ATOM     21  H3  UNL     1     -18.947 -22.280 -46.186  1.00  0.00     0.158 HD
BRANCH  20  22
HETATM   22  C11 UNL     1     -18.606 -21.169 -44.401  1.00  0.00     0.146 C
BRANCH  22  23
HETATM   23  C12 UNL     1     -19.022 -19.905 -43.737  1.00  0.00     0.251 C
BRANCH  23  24
HETATM   24  N4  UNL     1     -18.469 -19.625 -42.454  1.00  0.00    -0.072 N
ATOM     25  H42 UNL     1     -18.039 -18.700 -42.448  1.00  0.00     0.277 HD
ATOM     26  H41 UNL     1     -19.212 -19.479 -41.771  1.00  0.00     0.277 HD
BRANCH  24  27
HETATM   27  C13 UNL     1     -17.546 -20.602 -41.979  1.00  0.00     0.252 C
BRANCH  27  28
HETATM   28  C14 UNL     1     -16.177 -20.014 -41.616  1.00  0.00     0.150 C
BRANCH  28  29
HETATM   29  N5  UNL     1     -15.404 -21.141 -41.065  1.00  0.00    -0.363 N
HETATM   30  C15 UNL     1     -15.466 -21.480 -39.689  1.00  0.00     0.181 C
HETATM   31  N6  UNL     1     -15.212 -22.673 -39.310  1.00  0.00    -0.374 N
HETATM   32  N7  UNL     1     -15.818 -20.468 -38.723  1.00  0.00    -0.064 NA
ATOM     33  H62 UNL     1     -14.962 -23.389 -39.993  1.00  0.00     0.158 HD
ATOM     34  H61 UNL     1     -15.256 -22.917 -38.320  1.00  0.00     0.158 HD
ATOM     35  H5  UNL     1     -14.812 -21.690 -41.688  1.00  0.00     0.162 HD
ENDBRANCH  28  29
ENDBRANCH  27  28
ENDBRANCH  24  27
ENDBRANCH  23  24
ENDBRANCH  22  23
ENDBRANCH  20  22
ENDBRANCH  19  20
ENDBRANCH   1  19
TORSDOF 13
ENDMDL