MODEL 1
REMARK VINA RESULT: -8.143261845      0.000      0.000
REMARK  15 active torsions:
REMARK  status: ('A' for Active; 'I' for Inactive)
REMARK    1  A    between atoms: N1_2  and  C3_4
REMARK    2  A    between atoms: C3_4  and  C4_5
REMARK    3  A    between atoms: C4_5  and  C5_6
REMARK    4  A    between atoms: C5_6  and  N2_7
REMARK    5  A    between atoms: N2_7  and  C6_10
REMARK    6  A    between atoms: C6_10  and  C7_11
REMARK    7  A    between atoms: C7_11  and  C8_12
REMARK    8  A    between atoms: C8_12  and  C9_13
REMARK    9  A    between atoms: C9_13  and  N3_14
REMARK   10  A    between atoms: N3_14  and  C10_16
REMARK   11  A    between atoms: C11_19  and  O1_20
REMARK   12  A    between atoms: C12_22  and  C13_23
REMARK   13  A    between atoms: C13_23  and  C14_24
REMARK   14  A    between atoms: C14_24  and  C15_25
REMARK   15  A    between atoms: C15_25  and  N5_26
ROOT
HETATM    1  C10 UNL     1     -20.232 -20.758 -44.805  1.00  0.00     0.680 A
HETATM    2  N4  UNL     1     -19.135 -21.413 -45.209  1.00  0.00    -0.169 N
ATOM      3  H4  UNL     1     -19.076 -21.973 -46.059  1.00  0.00     0.186 HD
HETATM    4  C11 UNL     1     -18.127 -21.230 -44.345  1.00  0.00     0.178 A
HETATM    5  C12 UNL     1     -18.612 -20.409 -43.332  1.00  0.00     0.078 A
HETATM    6  N8  UNL     1     -19.920 -20.141 -43.656  1.00  0.00    -0.191 N
ATOM      7  H8  UNL     1     -20.556 -19.562 -43.108  1.00  0.00     0.184 HD
ENDROOT
BRANCH   1   8
HETATM    8  N3  UNL     1     -21.395 -20.697 -45.378  1.00  0.00    -0.226 N
ATOM      9  H3  UNL     1     -21.524 -20.016 -46.128  1.00  0.00     0.177 HD
BRANCH   8  10
HETATM   10  C9  UNL     1     -22.509 -21.527 -45.024  1.00  0.00     0.138 C
BRANCH  10  11
HETATM   11  C8  UNL     1     -23.615 -20.643 -44.548  1.00  0.00     0.022 C
BRANCH  11  12
HETATM   12  C7  UNL     1     -23.885 -20.858 -43.091  1.00  0.00     0.029 C
BRANCH  12  13
HETATM   13  C6  UNL     1     -23.167 -19.870 -42.245  1.00  0.00     0.232 C
BRANCH  13  14
HETATM   14  N2  UNL     1     -23.627 -19.842 -40.880  1.00  0.00    -0.075 N
ATOM     15  H22 UNL     1     -23.680 -18.883 -40.538  1.00  0.00     0.277 HD
ATOM     16  H21 UNL     1     -22.912 -20.209 -40.252  1.00  0.00     0.277 HD
BRANCH  14  17
HETATM   17  C5  UNL     1     -24.868 -20.516 -40.674  1.00  0.00     0.234 C
BRANCH  17  18
HETATM   18  C4  UNL     1     -25.205 -20.643 -39.202  1.00  0.00     0.057 C
BRANCH  18  19
HETATM   19  C3  UNL     1     -24.086 -20.095 -38.341  1.00  0.00     0.273 C
BRANCH  19  20
HETATM   20  N1  UNL     1     -24.552 -19.391 -37.182  1.00  0.00     0.080 N
HETATM   21  C1  UNL     1     -23.713 -19.592 -36.029  1.00  0.00     0.309 C
HETATM   22  C2  UNL     1     -24.809 -17.997 -37.401  1.00  0.00     0.309 C
ENDBRANCH  19  20
ENDBRANCH  18  19
ENDBRANCH  17  18
ENDBRANCH  14  17
ENDBRANCH  13  14
ENDBRANCH  12  13
ENDBRANCH  11  12
ENDBRANCH  10  11
ENDBRANCH   8  10
ENDBRANCH   1   8
BRANCH   4  23
HETATM   23  O1  UNL     1     -16.846 -21.794 -44.485  1.00  0.00    -0.344 OA
ATOM     24  H1  UNL     1     -16.610 -22.670 -44.206  1.00  0.00     0.219 HD
ENDBRANCH   4  23
BRANCH   5  25
HETATM   25  C13 UNL     1     -17.878 -19.881 -42.172  1.00  0.00     0.064 C
BRANCH  25  26
HETATM   26  C14 UNL     1     -16.864 -20.699 -41.507  1.00  0.00     0.026 C
BRANCH  26  27
HETATM   27  C15 UNL     1     -15.502 -20.143 -41.364  1.00  0.00     0.122 C
BRANCH  27  28
HETATM   28  N5  UNL     1     -15.405 -18.825 -40.813  1.00  0.00    -0.367 N
HETATM   29  C16 UNL     1     -14.333 -18.314 -40.344  1.00  0.00     0.196 C
HETATM   30  N6  UNL     1     -14.349 -17.000 -39.824  1.00  0.00    -0.067 NA
HETATM   31  N7  UNL     1     -13.139 -19.069 -40.351  1.00  0.00    -0.067 NA
ATOM     32  H5  UNL     1     -16.250 -18.255 -40.794  1.00  0.00     0.161 HD
ENDBRANCH  27  28
ENDBRANCH  26  27
ENDBRANCH  25  26
ENDBRANCH   5  25
TORSDOF 15
ENDMDL