MODEL 1
REMARK VINA RESULT: -9.795894322      0.000      0.000
REMARK  5 active torsions:
REMARK  status: ('A' for Active; 'I' for Inactive)
REMARK    1  A    between atoms: C5_6  and  O1_7
REMARK    2  A    between atoms: O1_7  and  C6_8
REMARK    3  A    between atoms: C9_12  and  S1_13
REMARK    4  A    between atoms: S1_13  and  N1_16
REMARK    5  A    between atoms: N1_16  and  C10_18
ROOT
HETATM    1  C6  UNL     1      17.257  11.821  18.280  1.00  0.00     0.149 A
HETATM    2  C7  UNL     1      16.888  13.141  18.208  1.00  0.00     0.081 A
HETATM    3  C8  UNL     1      15.805  13.613  18.965  1.00  0.00     0.062 A
HETATM    4 CL2  UNL     1      15.346  15.288  18.868  1.00  0.00    -0.083 Cl
HETATM    5  C9  UNL     1      15.080  12.791  19.794  1.00  0.00     0.117 A
HETATM    6  C13 UNL     1      15.483  11.469  19.837  1.00  0.00     0.117 A
HETATM    7  N3  UNL     1      16.513  11.039  19.112  1.00  0.00    -0.345 N
ATOM      8  H3  UNL     1      16.764  10.053  19.185  1.00  0.00     0.167 HD
ENDROOT
BRANCH   1   9
HETATM    9  O1  UNL     1      18.307  11.270  17.574  1.00  0.00    -0.290 OA
BRANCH   9  10
HETATM   10  C5  UNL     1      18.457  11.191  16.219  1.00  0.00     0.123 A
HETATM   11  C4  UNL     1      19.306  12.124  15.611  1.00  0.00     0.070 A
HETATM   12  C3  UNL     1      19.480  12.076  14.251  1.00  0.00     0.035 A
HETATM   13 CL1  UNL     1      20.170  13.346  16.532  1.00  0.00    -0.081 Cl
HETATM   14  C2  UNL     1      18.828  11.123  13.499  1.00  0.00    -0.034 A
HETATM   15  C1  UNL     1      19.039  11.100  12.012  1.00  0.00     0.050 C
HETATM   16  C15 UNL     1      17.989  10.194  14.073  1.00  0.00     0.076 A
HETATM   17  C14 UNL     1      17.815  10.245  15.461  1.00  0.00     0.094 A
HETATM   18  N4  UNL     1      17.321   9.216  13.295  1.00  0.00    -0.100 NA
HETATM   19 CL3  UNL     1      16.765   9.006  16.148  1.00  0.00    -0.079 Cl
ENDBRANCH   9  10
ENDBRANCH   1   9
BRANCH   5  20
HETATM   20  S1  UNL     1      13.731  13.361  20.746  1.00  0.00     0.267 S
HETATM   21  O2  UNL     1      12.814  14.191  19.876  1.00  0.00    -0.200 OA
HETATM   22  O3  UNL     1      14.290  14.257  21.836  1.00  0.00    -0.200 OA
BRANCH  20  23
HETATM   23  N1  UNL     1      12.877  12.018  21.417  1.00  0.00    -0.260 N
ATOM     24  H1  UNL     1      12.979  11.070  21.056  1.00  0.00     0.181 HD
BRANCH  23  25
HETATM   25  C10 UNL     1      12.085  12.308  22.429  1.00  0.00     0.158 A
HETATM   26  N2  UNL     1      12.440  12.688  23.655  1.00  0.00    -0.345 N
HETATM   27  C11 UNL     1      11.510  12.933  24.529  1.00  0.00     0.097 A
ATOM     28  H2  UNL     1      13.424  12.785  23.905  1.00  0.00     0.167 HD
HETATM   29  C12 UNL     1      10.206  12.787  24.138  1.00  0.00     0.070 A
HETATM   30  S2  UNL     1      10.381  12.296  22.509  1.00  0.00    -0.064 SA
ENDBRANCH  23  25
ENDBRANCH  20  23
ENDBRANCH   5  20
TORSDOF 5
ENDMDL