MODEL 2
REMARK VINA RESULT: -11.169877271      0.998      1.917
REMARK  6 active torsions:
REMARK  status: ('A' for Active; 'I' for Inactive)
REMARK    1  A    between atoms: C5_6  and  C6_7
REMARK    2  A    between atoms: C8_9  and  C9_10
REMARK    3  A    between atoms: C13_14  and  C14_15
REMARK    4  A    between atoms: C14_15  and  O1_16
REMARK    5  A    between atoms: C18_25  and  C19_26
REMARK    6  A    between atoms: N4_30  and  N5_32
ROOT
HETATM    1  C1  UNL     1      18.580   8.430  19.587  1.00  0.00     0.049 C
HETATM    2  C2  UNL     1      17.458   9.301  19.947  1.00  0.00    -0.045 A
HETATM    3  C3  UNL     1      16.972   9.290  21.257  1.00  0.00     0.051 A
HETATM    4  C4  UNL     1      15.912  10.099  21.637  1.00  0.00     0.129 A
HETATM    5  F1  UNL     1      15.480  10.005  22.942  1.00  0.00    -0.205 F
HETATM    6  C5  UNL     1      15.332  10.923  20.715  1.00  0.00     0.030 A
HETATM    7  C17 UNL     1      15.846  10.910  19.404  1.00  0.00     0.032 A
HETATM    8  C18 UNL     1      16.885  10.126  19.003  1.00  0.00     0.015 A
ENDROOT
BRANCH   6   9
HETATM    9  C6  UNL     1      14.208  11.790  20.998  1.00  0.00     0.048 A
HETATM   10  C7  UNL     1      13.394  11.713  22.094  1.00  0.00     0.060 A
HETATM   11  C8  UNL     1      12.351  12.604  22.309  1.00  0.00     0.045 A
HETATM   12  N1  UNL     1      12.137  13.591  21.389  1.00  0.00    -0.352 N
HETATM   13  C16 UNL     1      12.935  13.669  20.313  1.00  0.00     0.181 A
ATOM     14  H1  UNL     1      11.379  14.261  21.519  1.00  0.00     0.166 HD
HETATM   15  N2  UNL     1      13.932  12.795  20.132  1.00  0.00    -0.352 N
ATOM     16  H2  UNL     1      14.514  12.890  19.299  1.00  0.00     0.166 HD
BRANCH  11  17
HETATM   17  C9  UNL     1      11.489  12.517  23.476  1.00  0.00    -0.009 A
HETATM   18  C10 UNL     1      11.968  12.984  24.708  1.00  0.00     0.014 A
HETATM   19  C11 UNL     1      11.228  12.944  25.865  1.00  0.00     0.002 A
HETATM   20  C12 UNL     1       9.961  12.432  25.856  1.00  0.00     0.009 A
HETATM   21  C13 UNL     1       9.452  11.963  24.669  1.00  0.00    -0.034 A
HETATM   22  C15 UNL     1      10.220  12.010  23.495  1.00  0.00     0.023 A
BRANCH  21  23
HETATM   23  C14 UNL     1       8.085  11.395  24.597  1.00  0.00     0.202 C
BRANCH  23  24
HETATM   24  O1  UNL     1       8.140  10.031  24.774  1.00  0.00    -0.396 OA
ATOM     25  H1  UNL     1       7.286   9.653  24.604  1.00  0.00     0.209 HD
ENDBRANCH  23  24
ENDBRANCH  21  23
ENDBRANCH  11  17
ENDBRANCH   6   9
BRANCH   8  26
HETATM   26  C19 UNL     1      17.365  10.165  17.640  1.00  0.00     0.118 A
HETATM   27  N3  UNL     1      18.219  11.083  17.174  1.00  0.00    -0.325 N
HETATM   28  C20 UNL     1      18.699  11.183  15.948  1.00  0.00     0.146 A
ATOM     29  H3  UNL     1      18.536  11.786  17.841  1.00  0.00     0.169 HD
HETATM   30  N4  UNL     1      19.513  12.074  15.540  1.00  0.00    -0.291 N
HETATM   31  C21 UNL     1      18.284  10.240  15.019  1.00  0.00     0.117 A
ATOM     32  H4  UNL     1      19.814  12.048  14.566  1.00  0.00     0.188 HD
HETATM   33 CL1  UNL     1      18.880  10.309  13.372  1.00  0.00    -0.077 Cl
HETATM   34  C22 UNL     1      17.409   9.273  15.441  1.00  0.00     0.130 A
HETATM   35 CL2  UNL     1      16.860   8.061  14.296  1.00  0.00    -0.062 Cl
HETATM   36  N6  UNL     1      16.976   9.259  16.722  1.00  0.00    -0.331 N
ATOM     37  H6  UNL     1      16.324   8.528  17.006  1.00  0.00     0.168 HD
BRANCH  30  38
HETATM   38  N5  UNL     1      20.014  13.086  16.362  1.00  0.00    -0.344 N
ATOM     39  H52 UNL     1      20.198  12.850  17.336  1.00  0.00     0.176 HD
ATOM     40  H51 UNL     1      20.201  14.033  16.032  1.00  0.00     0.176 HD
ENDBRANCH  30  38
ENDBRANCH   8  26
TORSDOF 6
ENDMDL