MODEL 4
REMARK VINA RESULT: -10.276702562      3.043      9.341
REMARK  7 active torsions:
REMARK  status: ('A' for Active; 'I' for Inactive)
REMARK    1  A    between atoms: O1_2  and  C2_3
REMARK    2  A    between atoms: C3_6  and  N2_7
REMARK    3  A    between atoms: N2_7  and  C4_9
REMARK    4  A    between atoms: C7_12  and  N3_13
REMARK    5  A    between atoms: N3_13  and  C8_15
REMARK    6  A    between atoms: C9_18  and  C10_19
REMARK    7  A    between atoms: C12_23  and  C13_24
ROOT
HETATM    1  N3  UNL     1      17.825  11.655  18.343  1.00  0.00    -0.192 N
ATOM      2  H3  UNL     1      18.439  11.531  19.147  1.00  0.00     0.184 HD
ENDROOT
BRANCH   1   3
HETATM    3  C7  UNL     1      18.073  10.861  17.215  1.00  0.00     0.049 A
HETATM    4  C6  UNL     1      18.400  11.427  16.016  1.00  0.00     0.032 A
HETATM    5  C5  UNL     1      18.634  10.640  14.922  1.00  0.00     0.032 A
HETATM    6  C4  UNL     1      18.543   9.271  15.007  1.00  0.00     0.049 A
HETATM    7  C20 UNL     1      18.211   8.689  16.222  1.00  0.00     0.032 A
HETATM    8  C19 UNL     1      17.979   9.491  17.316  1.00  0.00     0.032 A
BRANCH   6   9
HETATM    9  N2  UNL     1      18.766   8.435  13.893  1.00  0.00    -0.192 N
ATOM     10  H2  UNL     1      19.541   8.623  13.256  1.00  0.00     0.184 HD
BRANCH   9  11
HETATM   11  C3  UNL     1      17.985   7.435  13.687  1.00  0.00     0.684 A
HETATM   12  N1  UNL     1      16.678   7.660  13.424  1.00  0.00    -0.167 N
HETATM   13  C2  UNL     1      15.833   6.617  13.214  1.00  0.00     0.197 A
ATOM     14  H1  UNL     1      16.325   8.617  13.383  1.00  0.00     0.186 HD
HETATM   15  C22 UNL     1      16.316   5.329  13.270  1.00  0.00     0.183 A
HETATM   16  C21 UNL     1      17.656   5.108  13.540  1.00  0.00     0.152 A
HETATM   17  F2  UNL     1      15.456   4.295  13.059  1.00  0.00    -0.200 F
HETATM   18  N8  UNL     1      18.467   6.162  13.743  1.00  0.00    -0.199 N
ATOM     19  H8  UNL     1      19.455   6.006  13.943  1.00  0.00     0.183 HD
BRANCH  13  20
HETATM   20  O1  UNL     1      14.494   6.830  12.943  1.00  0.00    -0.338 OA
HETATM   21  C1  UNL     1      13.674   7.666  13.713  1.00  0.00     0.211 C
ENDBRANCH  13  20
ENDBRANCH   9  11
ENDBRANCH   6   9
ENDBRANCH   1   3
BRANCH   1  22
HETATM   22  C8  UNL     1      16.893  12.520  18.446  1.00  0.00     0.683 A
HETATM   23  N4  UNL     1      15.820  12.255  19.229  1.00  0.00    -0.186 N
HETATM   24  C9  UNL     1      14.811  13.134  19.369  1.00  0.00     0.117 A
ATOM     25  H4  UNL     1      15.776  11.366  19.726  1.00  0.00     0.184 HD
HETATM   26  C17 UNL     1      14.881  14.335  18.694  1.00  0.00     0.161 A
HETATM   27  F1  UNL     1      13.871  15.228  18.825  1.00  0.00    -0.202 F
HETATM   28  C18 UNL     1      15.970  14.613  17.894  1.00  0.00     0.150 A
HETATM   29  N7  UNL     1      16.960  13.703  17.782  1.00  0.00    -0.199 N
ATOM     30  H7  UNL     1      17.768  13.905  17.192  1.00  0.00     0.183 HD
BRANCH  24  31
HETATM   31  C10 UNL     1      13.644  12.852  20.210  1.00  0.00     0.079 A
HETATM   32  C11 UNL     1      12.632  12.001  19.842  1.00  0.00     0.121 A
HETATM   33  N5  UNL     1      11.711  11.966  20.842  1.00  0.00    -0.353 N
HETATM   34  C12 UNL     1      12.153  12.787  21.813  1.00  0.00     0.089 A
ATOM     35  H5  UNL     1      10.849  11.421  20.855  1.00  0.00     0.166 HD
HETATM   36  N6  UNL     1      13.333  13.317  21.409  1.00  0.00    -0.342 N
ATOM     37  H6  UNL     1      13.896  13.975  21.948  1.00  0.00     0.167 HD
BRANCH  34  38
HETATM   38  C13 UNL     1      11.513  13.099  23.116  1.00  0.00     0.007 C
HETATM   39  C14 UNL     1      12.294  12.396  24.211  1.00  0.00     0.022 C
HETATM   40  C15 UNL     1      10.095  12.618  23.194  1.00  0.00     0.022 C
HETATM   41  C16 UNL     1      11.644  14.585  23.351  1.00  0.00     0.022 C
ENDBRANCH  34  38
ENDBRANCH  24  31
ENDBRANCH   1  22
TORSDOF 7
ENDMDL