MODEL 5
REMARK VINA RESULT: -8.554951522      3.916      6.982
REMARK  4 active torsions:
REMARK  status: ('A' for Active; 'I' for Inactive)
REMARK    1  A    between atoms: C5_11  and  N3_12
REMARK    2  A    between atoms: N4_14  and  C6_16
REMARK    3  A    between atoms: N5_22  and  C11_23
REMARK    4  A    between atoms: C11_23  and  C12_24
ROOT
HETATM    1  C6  UNL     1      16.775   8.529  18.609  1.00  0.00     0.124 A
HETATM    2  C7  UNL     1      16.357   7.239  18.851  1.00  0.00     0.071 A
HETATM    3  C8  UNL     1      16.243   7.056  20.202  1.00  0.00     0.037 A
HETATM    4 BR1  UNL     1      15.701   5.467  21.142  1.00  0.00    -0.049 Br
HETATM    5  C9  UNL     1      16.602   8.268  20.774  1.00  0.00     0.027 A
HETATM    6  C10 UNL     1      16.614   8.500  22.249  1.00  0.00     0.070 C
HETATM    7  N5  UNL     1      16.919   9.139  19.798  1.00  0.00    -0.329 N
ENDROOT
BRANCH   1   8
HETATM    8  N4  UNL     1      17.010   9.099  17.304  1.00  0.00    -0.285 N
HETATM    9  N3  UNL     1      18.209   9.396  16.961  1.00  0.00    -0.292 N
ATOM     10  H3  UNL     1      18.961   9.219  17.627  1.00  0.00     0.187 HD
ATOM     11  H4  UNL     1      16.232   9.263  16.664  1.00  0.00     0.188 HD
BRANCH   9  12
HETATM   12  C5  UNL     1      18.539   9.952  15.721  1.00  0.00     0.139 A
HETATM   13  C2  UNL     1      18.799  11.292  15.596  1.00  0.00     0.043 A
HETATM   14  C1  UNL     1      18.729  12.153  16.788  1.00  0.00     0.071 C
HETATM   15  N1  UNL     1      19.117  11.793  14.365  1.00  0.00    -0.310 N
HETATM   16  C3  UNL     1      19.175  10.993  13.297  1.00  0.00     0.327 A
ATOM     17  H1  UNL     1      19.311  12.789  14.260  1.00  0.00     0.170 HD
HETATM   18  O1  UNL     1      19.468  11.487  12.187  1.00  0.00    -0.247 OA
HETATM   19  N2  UNL     1      18.921   9.678  13.410  1.00  0.00    -0.273 N
HETATM   20  C4  UNL     1      18.606   9.162  14.607  1.00  0.00     0.279 A
ATOM     21  H2  UNL     1      18.967   9.075  12.588  1.00  0.00     0.173 HD
HETATM   22  O2  UNL     1      18.366   7.936  14.733  1.00  0.00    -0.265 OA
ENDBRANCH   9  12
ENDBRANCH   1   8
BRANCH   7  23
HETATM   23  C11 UNL     1      17.343  10.508  19.968  1.00  0.00     0.187 C
BRANCH  23  24
HETATM   24  C12 UNL     1      16.200  11.459  19.865  1.00  0.00     0.030 A
HETATM   25  C13 UNL     1      16.257  12.764  19.363  1.00  0.00     0.054 A
HETATM   26  C14 UNL     1      15.002  13.326  19.430  1.00  0.00     0.074 A
HETATM   27 CL1  UNL     1      14.548  14.934  18.929  1.00  0.00    -0.081 Cl
HETATM   28  C15 UNL     1      14.177  12.375  19.970  1.00  0.00     0.125 A
HETATM   29 CL2  UNL     1      12.444  12.573  20.279  1.00  0.00    -0.063 Cl
HETATM   30  N6  UNL     1      14.916  11.282  20.216  1.00  0.00    -0.347 N
ATOM     31  H6  UNL     1      14.547  10.421  20.619  1.00  0.00     0.167 HD
ENDBRANCH  23  24
ENDBRANCH   7  23
TORSDOF 4
ENDMDL