MODEL 5
REMARK VINA RESULT: -8.929381611      5.413      9.242
REMARK  6 active torsions:
REMARK  status: ('A' for Active; 'I' for Inactive)
REMARK    1  A    between atoms: O1_2  and  C2_3
REMARK    2  A    between atoms: C2_3  and  C3_4
REMARK    3  A    between atoms: C13_22  and  N5_23
REMARK    4  A    between atoms: N5_23  and  C14_25
REMARK    5  A    between atoms: C18_31  and  C19_32
REMARK    6  A    between atoms: C19_32  and  O2_33
ROOT
HETATM    1  C3  UNL     1      16.587  12.453  18.683  1.00  0.00    -0.003 A
HETATM    2  C4  UNL     1      16.178  13.779  18.899  1.00  0.00     0.100 A
HETATM    3  N1  UNL     1      15.385  13.848  19.964  1.00  0.00    -0.351 N
ATOM      4  H1  UNL     1      14.958  14.700  20.327  1.00  0.00     0.166 HD
HETATM    5  C5  UNL     1      15.235  12.620  20.486  1.00  0.00     0.119 A
HETATM    6  N2  UNL     1      14.570  12.176  21.563  1.00  0.00    -0.338 N
ATOM      7  H2  UNL     1      14.027  12.819  22.138  1.00  0.00     0.168 HD
HETATM    8  C6  UNL     1      14.631  10.875  21.871  1.00  0.00     0.182 A
HETATM    9  N3  UNL     1      15.324   9.995  21.153  1.00  0.00    -0.351 N
ATOM     10  H3  UNL     1      15.337   9.015  21.433  1.00  0.00     0.166 HD
HETATM   11  C7  UNL     1      16.027  10.395  20.032  1.00  0.00     0.058 A
HETATM   12  C8  UNL     1      16.793   9.396  19.328  1.00  0.00    -0.006 A
HETATM   13  C9  UNL     1      16.462   8.878  18.112  1.00  0.00     0.015 A
HETATM   14  C10 UNL     1      17.195   7.923  17.435  1.00  0.00     0.016 A
HETATM   15  C11 UNL     1      18.346   7.454  18.030  1.00  0.00     0.007 A
HETATM   16  C12 UNL     1      19.096   6.500  17.377  1.00  0.00     0.120 A
HETATM   17  N4  UNL     1      20.227   6.050  17.979  1.00  0.00    -0.201 N
ATOM     18  H4  UNL     1      20.793   5.344  17.509  1.00  0.00     0.183 HD
HETATM   19  C13 UNL     1      20.618   6.512  19.175  1.00  0.00     0.683 A
HETATM   20  N6  UNL     1      19.864   7.447  19.792  1.00  0.00    -0.191 N
ATOM     21  H6  UNL     1      20.169   7.792  20.702  1.00  0.00     0.184 HD
HETATM   22  C21 UNL     1      18.731   7.944  19.266  1.00  0.00     0.061 A
HETATM   23  C22 UNL     1      17.970   8.894  19.898  1.00  0.00     0.044 A
HETATM   24  C23 UNL     1      15.984  11.725  19.692  1.00  0.00     0.045 A
ENDROOT
BRANCH   1  25
HETATM   25  C2  UNL     1      17.405  11.945  17.584  1.00  0.00     0.208 C
BRANCH  25  26
HETATM   26  O1  UNL     1      18.014  13.051  16.936  1.00  0.00    -0.391 OA
HETATM   27  C1  UNL     1      19.138  12.648  16.240  1.00  0.00     0.201 C
ENDBRANCH  25  26
ENDBRANCH   1  25
BRANCH  19  28
HETATM   28  N5  UNL     1      21.685   6.076  19.723  1.00  0.00    -0.189 N
ATOM     29  H5  UNL     1      22.168   6.657  20.410  1.00  0.00     0.184 HD
BRANCH  28  30
HETATM   30  C14 UNL     1      22.215   4.796  19.396  1.00  0.00     0.091 A
HETATM   31  C15 UNL     1      21.523   3.643  19.701  1.00  0.00     0.078 A
HETATM   32  C16 UNL     1      22.083   2.433  19.360  1.00  0.00     0.157 A
HETATM   33  F1  UNL     1      21.421   1.288  19.649  1.00  0.00    -0.203 F
HETATM   34  C17 UNL     1      23.318   2.399  18.725  1.00  0.00     0.166 A
HETATM   35  F2  UNL     1      23.844   1.203  18.402  1.00  0.00    -0.202 F
HETATM   36  C18 UNL     1      24.008   3.549  18.421  1.00  0.00     0.048 A
HETATM   37  C20 UNL     1      23.453   4.755  18.758  1.00  0.00     0.155 A
HETATM   38  F3  UNL     1      24.095   5.916  18.480  1.00  0.00    -0.203 F
BRANCH  36  39
HETATM   39  C19 UNL     1      25.331   3.512  17.741  1.00  0.00     0.209 C
BRANCH  39  40
HETATM   40  O2  UNL     1      25.169   3.500  16.370  1.00  0.00    -0.396 OA
ATOM     41  H2  UNL     1      25.395   4.346  16.002  1.00  0.00     0.209 HD
ENDBRANCH  39  40
ENDBRANCH  36  39
ENDBRANCH  28  30
ENDBRANCH  19  28
TORSDOF 6
ENDMDL