MODEL 4
REMARK VINA RESULT: -9.729403612      2.121      3.416
REMARK  5 active torsions:
REMARK  status: ('A' for Active; 'I' for Inactive)
REMARK    1  A    between atoms: O1_2  and  C2_3
REMARK    2  A    between atoms: C7_10  and  N2_11
REMARK    3  A    between atoms: N2_11  and  C8_13
REMARK    4  A    between atoms: N5_19  and  C10_21
REMARK    5  A    between atoms: C10_21  and  C11_22
ROOT
HETATM    1  C8  UNL     1      18.587  11.167  15.393  1.00  0.00     0.726 A
HETATM    2  N3  UNL     1      19.443  10.932  14.288  1.00  0.00    -0.117 N
ATOM      3  H3  UNL     1      20.245  11.510  14.039  1.00  0.00     0.206 HD
HETATM    4  N4  UNL     1      19.073   9.909  13.658  1.00  0.00    -0.117 N
ATOM      5  H4  UNL     1      19.532   9.546  12.822  1.00  0.00     0.206 HD
HETATM    6  C9  UNL     1      17.936   9.330  14.263  1.00  0.00     0.708 A
HETATM    7  N5  UNL     1      17.441   8.315  13.795  1.00  0.00    -0.220 N
ATOM      8  H5  UNL     1      17.972   8.009  12.980  1.00  0.00     0.178 HD
HETATM    9  N6  UNL     1      17.750  10.182  15.298  1.00  0.00    -0.019 N
ATOM     10  H6  UNL     1      16.992  10.056  15.968  1.00  0.00     0.203 HD
ENDROOT
BRANCH   1  11
HETATM   11  N2  UNL     1      18.920  12.298  16.173  1.00  0.00    -0.019 N
ATOM     12  H2  UNL     1      19.852  12.711  16.119  1.00  0.00     0.203 HD
BRANCH  11  13
HETATM   13  C7  UNL     1      17.979  12.821  16.995  1.00  0.00     0.712 A
HETATM   14  N1  UNL     1      17.555  12.018  18.021  1.00  0.00    -0.187 N
HETATM   15  C6  UNL     1      16.604  12.599  18.861  1.00  0.00     0.083 A
ATOM     16  H1  UNL     1      17.907  11.070  18.160  1.00  0.00     0.184 HD
HETATM   17  C4  UNL     1      16.138  11.893  19.969  1.00  0.00    -0.030 A
HETATM   18  C17 UNL     1      16.149  13.875  18.636  1.00  0.00     0.079 A
HETATM   19  C3  UNL     1      15.233  12.478  20.818  1.00  0.00     0.045 A
HETATM   20  C5  UNL     1      16.660  10.515  20.204  1.00  0.00     0.050 C
HETATM   21  C2  UNL     1      14.761  13.750  20.601  1.00  0.00     0.071 A
HETATM   22  C18 UNL     1      15.197  14.443  19.534  1.00  0.00     0.070 A
HETATM   23  N8  UNL     1      16.575  14.630  17.622  1.00  0.00    -0.284 N
HETATM   24  N7  UNL     1      17.528  14.007  16.805  1.00  0.00    -0.131 N
ATOM     25  H8  UNL     1      16.238  15.578  17.456  1.00  0.00     0.187 HD
ATOM     26  H7  UNL     1      17.886  14.530  16.006  1.00  0.00     0.205 HD
BRANCH  21  27
HETATM   27  O1  UNL     1      13.816  14.302  21.507  1.00  0.00    -0.356 OA
HETATM   28  C1  UNL     1      12.695  13.488  21.894  1.00  0.00     0.210 C
ENDBRANCH  21  27
ENDBRANCH  11  13
ENDBRANCH   1  11
BRANCH   7  29
HETATM   29  C10 UNL     1      16.372   7.445  14.033  1.00  0.00     0.180 C
BRANCH  29  30
HETATM   30  C11 UNL     1      17.039   6.237  14.729  1.00  0.00     0.004 A
HETATM   31  C12 UNL     1      17.438   5.165  13.943  1.00  0.00     0.045 A
HETATM   32 CL1  UNL     1      17.274   5.305  12.183  1.00  0.00    -0.084 Cl
HETATM   33  C13 UNL     1      17.997   4.030  14.503  1.00  0.00     0.048 A
HETATM   34  C14 UNL     1      18.140   4.005  15.865  1.00  0.00     0.037 A
HETATM   35 CL2  UNL     1      18.861   2.619  16.685  1.00  0.00    -0.084 Cl
HETATM   36  C15 UNL     1      17.739   5.071  16.652  1.00  0.00     0.048 A
HETATM   37  C16 UNL     1      17.178   6.207  16.090  1.00  0.00     0.045 A
HETATM   38 CL3  UNL     1      16.594   7.505  17.137  1.00  0.00    -0.084 Cl
ENDBRANCH  29  30
ENDBRANCH   7  29
TORSDOF 5
ENDMDL