MODEL 5
REMARK VINA RESULT: -9.721093805      2.896      5.641
REMARK  7 active torsions:
REMARK  status: ('A' for Active; 'I' for Inactive)
REMARK    1  A    between atoms: O1_1  and  C1_3
REMARK    2  A    between atoms: C2_6  and  N2_7
REMARK    3  A    between atoms: N2_7  and  C3_9
REMARK    4  A    between atoms: C5_16  and  N5_17
REMARK    5  A    between atoms: N5_17  and  N6_19
REMARK    6  A    between atoms: C6_21  and  C7_22
REMARK    7  A    between atoms: C15_33  and  C16_34
ROOT
HETATM    1  C3  UNL     1      19.164   7.131  18.824  1.00  0.00     0.700 A
HETATM    2  N3  UNL     1      18.720   5.889  19.064  1.00  0.00    -0.164 N
ATOM      3  H3  UNL     1      18.459   5.627  20.013  1.00  0.00     0.186 HD
HETATM    4  C4  UNL     1      18.610   4.970  18.063  1.00  0.00     0.208 A
HETATM    5 CL1  UNL     1      18.023   3.364  18.434  1.00  0.00    -0.044 Cl
HETATM    6  N4  UNL     1      18.959   5.330  16.814  1.00  0.00    -0.163 N
ATOM      7  H4  UNL     1      18.882   4.652  16.056  1.00  0.00     0.187 HD
HETATM    8  C5  UNL     1      19.404   6.559  16.549  1.00  0.00     0.713 A
HETATM    9  N7  UNL     1      19.501   7.453  17.574  1.00  0.00    -0.021 N
ATOM     10  H7  UNL     1      19.841   8.395  17.379  1.00  0.00     0.203 HD
ENDROOT
BRANCH   1  11
HETATM   11  N2  UNL     1      19.257   8.042  19.899  1.00  0.00    -0.176 N
ATOM     12  H2  UNL     1      20.098   8.021  20.475  1.00  0.00     0.186 HD
BRANCH  11  13
HETATM   13  C2  UNL     1      18.339   8.897  20.192  1.00  0.00     0.122 A
HETATM   14  N1  UNL     1      17.649   9.497  19.208  1.00  0.00    -0.322 N
HETATM   15  C1  UNL     1      16.670  10.408  19.487  1.00  0.00     0.152 A
ATOM     16  H1  UNL     1      17.859   9.269  18.237  1.00  0.00     0.169 HD
HETATM   17  C15 UNL     1      16.343  10.756  20.779  1.00  0.00     0.025 A
HETATM   18  C14 UNL     1      17.048  10.144  21.813  1.00  0.00     0.020 A
HETATM   19  C13 UNL     1      18.021   9.236  21.485  1.00  0.00     0.050 A
BRANCH  15  20
HETATM   20  O1  UNL     1      16.012  10.975  18.388  1.00  0.00    -0.345 OA
ATOM     21  H1  UNL     1      15.592  11.815  18.533  1.00  0.00     0.219 HD
ENDBRANCH  15  20
BRANCH  17  22
HETATM   22  C16 UNL     1      15.292  11.730  21.048  1.00  0.00    -0.021 A
HETATM   23  C17 UNL     1      14.096  11.283  21.552  1.00  0.00     0.015 A
HETATM   24  C18 UNL     1      13.053  12.162  21.827  1.00  0.00     0.043 A
HETATM   25  C19 UNL     1      13.192  13.515  21.599  1.00  0.00     0.116 A
HETATM   26  F1  UNL     1      12.162  14.367  21.871  1.00  0.00    -0.206 F
HETATM   27  C20 UNL     1      14.387  13.974  21.092  1.00  0.00     0.043 A
HETATM   28  C21 UNL     1      15.423  13.079  20.822  1.00  0.00     0.015 A
ENDBRANCH  17  22
ENDBRANCH  11  13
ENDBRANCH   1  11
BRANCH   8  29
HETATM   29  N5  UNL     1      19.736   6.887  15.341  1.00  0.00    -0.132 N
ATOM     30  H5  UNL     1      20.723   6.999  15.115  1.00  0.00     0.205 HD
BRANCH  29  31
HETATM   31  N6  UNL     1      18.824   7.083  14.376  1.00  0.00    -0.297 N
HETATM   32  C6  UNL     1      18.307   8.126  13.936  1.00  0.00     0.119 C
ATOM     33  H6  UNL     1      18.497   6.229  13.925  1.00  0.00     0.186 HD
BRANCH  32  34
HETATM   34  C7  UNL     1      18.531   9.485  14.333  1.00  0.00    -0.019 A
HETATM   35  C8  UNL     1      19.139  10.412  13.566  1.00  0.00     0.014 A
HETATM   36  C9  UNL     1      19.313  11.721  14.042  1.00  0.00     0.024 A
HETATM   37  C10 UNL     1      18.881  12.106  15.283  1.00  0.00     0.034 A
HETATM   38 CL2  UNL     1      19.114  13.745  15.844  1.00  0.00    -0.084 Cl
HETATM   39  C11 UNL     1      18.263  11.154  16.055  1.00  0.00     0.024 A
HETATM   40  C12 UNL     1      18.087   9.873  15.602  1.00  0.00     0.014 A
ENDBRANCH  32  34
ENDBRANCH  29  31
ENDBRANCH   8  29
TORSDOF 7
ENDMDL