MODEL 3
REMARK VINA RESULT: -10.258780387      2.458      3.567
REMARK  4 active torsions:
REMARK  status: ('A' for Active; 'I' for Inactive)
REMARK    1  A    between atoms: O1_2  and  C2_3
REMARK    2  A    between atoms: C4_5  and  C5_6
REMARK    3  A    between atoms: C8_11  and  C9_12
REMARK    4  A    between atoms: C18_27  and  C19_28
ROOT
HETATM    1  C5  UNL     1      15.957  11.949  18.997  1.00  0.00     0.065 A
HETATM    2  N1  UNL     1      16.436  13.110  18.459  1.00  0.00    -0.364 N
ATOM      3  H1  UNL     1      16.045  13.993  18.788  1.00  0.00     0.165 HD
HETATM    4  C6  UNL     1      17.384  13.149  17.528  1.00  0.00     0.089 A
HETATM    5  C7  UNL     1      17.965  11.980  17.030  1.00  0.00     0.031 A
HETATM    6  C8  UNL     1      17.505  10.793  17.551  1.00  0.00     0.002 A
HETATM    7  C15 UNL     1      16.522  10.792  18.514  1.00  0.00     0.083 A
HETATM    8  C16 UNL     1      16.023   9.537  19.022  1.00  0.00     0.102 C
HETATM    9  N2  UNL     1      15.602   8.517  19.412  1.00  0.00    -0.191 NA
ENDROOT
BRANCH   1  10
HETATM   10  C4  UNL     1      14.916  12.005  20.004  1.00  0.00     0.010 A
HETATM   11  C3  UNL     1      14.939  11.308  21.190  1.00  0.00     0.054 A
HETATM   12  C2  UNL     1      13.881  11.413  22.102  1.00  0.00     0.096 A
HETATM   13  C18 UNL     1      12.797  12.212  21.836  1.00  0.00     0.077 A
HETATM   14  N3  UNL     1      12.786  12.899  20.655  1.00  0.00    -0.362 N
HETATM   15  C17 UNL     1      13.787  12.804  19.783  1.00  0.00     0.102 A
ATOM     16  H3  UNL     1      11.991  13.500  20.436  1.00  0.00     0.165 HD
BRANCH  12  17
HETATM   17  O1  UNL     1      13.939  10.707  23.271  1.00  0.00    -0.354 OA
HETATM   18  C1  UNL     1      14.855   9.659  23.522  1.00  0.00     0.210 C
ENDBRANCH  12  17
BRANCH  13  19
HETATM   19  C19 UNL     1      11.715  12.321  22.790  1.00  0.00     0.011 A
HETATM   20  C20 UNL     1      10.398  12.160  22.417  1.00  0.00     0.103 A
HETATM   21  N4  UNL     1       9.381  12.251  23.299  1.00  0.00    -0.350 N
HETATM   22  C21 UNL     1       9.693  12.508  24.577  1.00  0.00     0.123 A
ATOM     23  H4  UNL     1       8.412  12.130  23.004  1.00  0.00     0.166 HD
HETATM   24  N5  UNL     1       8.746  12.604  25.449  1.00  0.00    -0.384 N
HETATM   25  C22 UNL     1      10.973  12.682  25.035  1.00  0.00     0.090 A
ATOM     26  H52 UNL     1       7.792  12.475  25.107  1.00  0.00     0.157 HD
ATOM     27  H51 UNL     1       8.982  12.799  26.422  1.00  0.00     0.157 HD
HETATM   28  N6  UNL     1      11.250  12.954  26.402  1.00  0.00    -0.098 NA
HETATM   29  C23 UNL     1      12.004  12.583  24.108  1.00  0.00     0.045 A
ENDBRANCH  13  19
ENDBRANCH   1  10
BRANCH   6  30
HETATM   30  C9  UNL     1      18.103   9.560  17.078  1.00  0.00     0.016 A
HETATM   31  C10 UNL     1      17.988   9.070  15.808  1.00  0.00     0.042 A
HETATM   32  C11 UNL     1      18.576   7.861  15.418  1.00  0.00     0.073 A
HETATM   33 CL1  UNL     1      18.391   7.289  13.775  1.00  0.00    -0.081 Cl
HETATM   34  C12 UNL     1      19.289   7.163  16.368  1.00  0.00     0.141 A
HETATM   35  F1  UNL     1      19.860   5.993  15.999  1.00  0.00    -0.204 F
HETATM   36  C13 UNL     1      19.427   7.620  17.648  1.00  0.00     0.087 A
HETATM   37  C14 UNL     1      18.835   8.818  18.001  1.00  0.00     0.130 A
HETATM   38  F2  UNL     1      18.996   9.254  19.293  1.00  0.00    -0.205 F
ENDBRANCH   6  30
TORSDOF 4
ENDMDL