MODEL 4
REMARK VINA RESULT: -9.198340640      4.102      9.210
REMARK  4 active torsions:
REMARK  status: ('A' for Active; 'I' for Inactive)
REMARK    1  A    between atoms: C2_2  and  N1_3
REMARK    2  A    between atoms: N3_9  and  C6_11
REMARK    3  A    between atoms: C9_16  and  C10_17
REMARK    4  A    between atoms: C10_17  and  N5_19
ROOT
HETATM    1  C6  UNL     1      16.016   9.068  21.749  1.00  0.00     0.049 A
HETATM    2  C7  UNL     1      17.304   9.526  21.866  1.00  0.00     0.117 A
HETATM    3  N4  UNL     1      18.273   8.956  21.135  1.00  0.00    -0.372 N
ATOM      4  H4  UNL     1      19.223   9.313  21.240  1.00  0.00     0.164 HD
HETATM    5  C8  UNL     1      18.076   7.950  20.279  1.00  0.00     0.096 A
HETATM    6  C9  UNL     1      16.787   7.483  20.153  1.00  0.00    -0.018 A
HETATM    7  C17 UNL     1      15.763   8.031  20.878  1.00  0.00     0.041 A
ENDROOT
BRANCH   1   8
HETATM    8  N3  UNL     1      15.003   9.674  22.521  1.00  0.00    -0.339 N
HETATM    9  C5  UNL     1      14.410  10.755  22.258  1.00  0.00     0.139 A
HETATM   10  C4  UNL     1      14.706  11.488  21.133  1.00  0.00     0.122 A
HETATM   11  N7  UNL     1      13.462  11.220  23.083  1.00  0.00    -0.317 N
HETATM   12  N2  UNL     1      15.562  11.333  20.126  1.00  0.00    -0.346 N
HETATM   13  C19 UNL     1      14.039  12.686  20.853  1.00  0.00     0.141 A
HETATM   14  C3  UNL     1      15.472  12.343  19.251  1.00  0.00     0.185 A
ATOM     15  H2  UNL     1      16.205  10.546  20.033  1.00  0.00     0.167 HD
HETATM   16  N1  UNL     1      14.525  13.182  19.706  1.00  0.00    -0.328 N
HETATM   17  N8  UNL     1      13.103  13.106  21.706  1.00  0.00    -0.317 N
HETATM   18  C18 UNL     1      12.821  12.382  22.805  1.00  0.00     0.182 A
ATOM     19  H8  UNL     1      12.602  13.976  21.526  1.00  0.00     0.170 HD
HETATM   20 CL3  UNL     1      11.575  12.975  23.906  1.00  0.00    -0.045 Cl
ATOM     21  H7  UNL     1      13.221  10.696  23.925  1.00  0.00     0.170 HD
ATOM     22  H3  UNL     1      14.725   9.191  23.375  1.00  0.00     0.167 HD
BRANCH  16  23
HETATM   23  C2  UNL     1      14.111  14.419  19.045  1.00  0.00     0.127 C
HETATM   24  C1  UNL     1      15.287  15.316  18.774  1.00  0.00     0.027 C
ENDBRANCH  16  23
ENDBRANCH   1   8
BRANCH   6  25
HETATM   25  C10 UNL     1      16.563   6.352  19.198  1.00  0.00     0.113 C
HETATM   26  C11 UNL     1      15.254   5.696  19.666  1.00  0.00     0.037 C
BRANCH  25  27
HETATM   27  N5  UNL     1      16.385   6.798  17.892  1.00  0.00    -0.367 N
HETATM   28  C12 UNL     1      16.593   6.425  16.736  1.00  0.00     0.123 A
HETATM   29  N6  UNL     1      16.215   7.275  15.726  1.00  0.00    -0.350 N
HETATM   30  C16 UNL     1      17.165   5.250  16.321  1.00  0.00     0.079 A
HETATM   31  C13 UNL     1      16.368   7.022  14.441  1.00  0.00     0.113 A
ATOM     32  H6  UNL     1      15.786   8.162  15.988  1.00  0.00     0.166 HD
HETATM   33  C14 UNL     1      16.940   5.847  14.017  1.00  0.00     0.051 A
HETATM   34 CL1  UNL     1      17.139   5.525  12.295  1.00  0.00    -0.083 Cl
HETATM   35  C15 UNL     1      17.344   4.947  14.977  1.00  0.00     0.053 A
HETATM   36 CL2  UNL     1      17.702   4.059  17.467  1.00  0.00    -0.080 Cl
ATOM     37  H5  UNL     1      15.945   7.718  17.890  1.00  0.00     0.161 HD
ENDBRANCH  25  27
ENDBRANCH   6  25
TORSDOF 4
ENDMDL