MODEL 2
REMARK VINA RESULT: -10.223122994      4.111      7.958
REMARK  7 active torsions:
REMARK  status: ('A' for Active; 'I' for Inactive)
REMARK    1  A    between atoms: N1_1  and  C1_4
REMARK    2  A    between atoms: C2_7  and  N3_8
REMARK    3  A    between atoms: C6_12  and  O1_13
REMARK    4  A    between atoms: O1_13  and  C7_14
REMARK    5  A    between atoms: C11_18  and  N4_19
REMARK    6  A    between atoms: N4_19  and  C12_21
REMARK    7  A    between atoms: C13_24  and  C14_25
ROOT
HETATM    1  C7  UNL     1      14.059  13.410  19.149  1.00  0.00     0.080 A
HETATM    2  C8  UNL     1      14.249  14.773  19.123  1.00  0.00     0.037 A
HETATM    3  C9  UNL     1      15.403  15.344  18.625  1.00  0.00     0.005 A
HETATM    4  C10 UNL     1      16.390  14.548  18.142  1.00  0.00     0.029 A
HETATM    5  C11 UNL     1      16.277  13.164  18.131  1.00  0.00     0.036 A
HETATM    6  C21 UNL     1      15.076  12.648  18.654  1.00  0.00     0.066 A
ENDROOT
BRANCH   5   7
HETATM    7  N4  UNL     1      17.271  12.397  17.654  1.00  0.00    -0.342 N
ATOM      8  H4  UNL     1      18.009  12.596  18.329  1.00  0.00     0.167 HD
BRANCH   7   9
HETATM    9  C12 UNL     1      17.831  11.622  16.927  1.00  0.00     0.119 A
HETATM   10  N5  UNL     1      18.380  12.073  15.736  1.00  0.00    -0.327 N
HETATM   11  C13 UNL     1      19.016  11.308  14.866  1.00  0.00     0.149 A
ATOM     12  H5  UNL     1      18.287  13.065  15.516  1.00  0.00     0.169 HD
HETATM   13  N6  UNL     1      19.138  10.002  15.158  1.00  0.00    -0.341 N
HETATM   14  C15 UNL     1      18.633   9.487  16.291  1.00  0.00     0.049 A
ATOM     15  H6  UNL     1      19.623   9.389  14.503  1.00  0.00     0.167 HD
HETATM   16  C16 UNL     1      18.763   8.130  16.588  1.00  0.00     0.054 A
HETATM   17  C20 UNL     1      17.967  10.262  17.214  1.00  0.00     0.035 A
HETATM   18  C17 UNL     1      18.255   7.570  17.746  1.00  0.00     0.036 A
HETATM   19 CL1  UNL     1      18.424   5.865  18.109  1.00  0.00    -0.084 Cl
HETATM   20  C18 UNL     1      17.594   8.357  18.656  1.00  0.00     0.025 A
HETATM   21  C19 UNL     1      17.453   9.704  18.382  1.00  0.00     0.019 A
BRANCH  11  22
HETATM   22  C14 UNL     1      19.591  11.865  13.586  1.00  0.00     0.420 C
HETATM   23  F1  UNL     1      20.152  10.878  12.818  1.00  0.00    -0.206 F
HETATM   24  F2  UNL     1      20.500  12.875  13.872  1.00  0.00    -0.206 F
ENDBRANCH  11  22
ENDBRANCH   7   9
ENDBRANCH   5   7
BRANCH   1  25
HETATM   25  O1  UNL     1      12.876  12.839  19.660  1.00  0.00    -0.293 OA
BRANCH  25  26
HETATM   26  C6  UNL     1      12.920  12.373  20.966  1.00  0.00     0.166 A
HETATM   27  C5  UNL     1      11.980  12.755  21.914  1.00  0.00     0.105 A
HETATM   28  C2  UNL     1      12.017  12.296  23.212  1.00  0.00     0.123 A
HETATM   29  N2  UNL     1      13.005  11.455  23.541  1.00  0.00    -0.177 N
HETATM   30  C1  UNL     1      13.933  11.060  22.657  1.00  0.00     0.679 A
ATOM     31  H2  UNL     1      13.054  11.103  24.497  1.00  0.00     0.185 HD
HETATM   32  N7  UNL     1      13.875  11.520  21.401  1.00  0.00    -0.170 N
ATOM     33  H7  UNL     1      14.587  11.210  20.739  1.00  0.00     0.186 HD
BRANCH  28  34
HETATM   34  N3  UNL     1      11.058  12.685  24.187  1.00  0.00    -0.364 N
HETATM   35  C3  UNL     1       9.739  13.023  24.634  1.00  0.00     0.144 A
HETATM   36  C4  UNL     1      10.847  13.043  25.621  1.00  0.00     0.144 A
ENDBRANCH  28  34
BRANCH  30  37
HETATM   37  N1  UNL     1      14.864  10.240  23.046  1.00  0.00    -0.234 N
ATOM     38  H12 UNL     1      15.740  10.572  23.450  1.00  0.00     0.174 HD
ATOM     39  H11 UNL     1      14.714   9.237  22.943  1.00  0.00     0.174 HD
ENDBRANCH  30  37
ENDBRANCH  25  26
ENDBRANCH   1  25
TORSDOF 7
ENDMDL