MODEL 4
REMARK VINA RESULT: -9.176383209      2.719      7.316
REMARK  5 active torsions:
REMARK  status: ('A' for Active; 'I' for Inactive)
REMARK    1  A    between atoms: O1_2  and  C2_3
REMARK    2  A    between atoms: C5_6  and  N1_7
REMARK    3  A    between atoms: N1_7  and  C6_9
REMARK    4  A    between atoms: C7_12  and  O2_13
REMARK    5  A    between atoms: O2_13  and  C8_14
ROOT
HETATM    1  C2  UNL     1       8.485 -12.880 -25.988  1.00  0.00     0.069 A
HETATM    2  C3  UNL     1       7.215 -13.392 -26.168  1.00  0.00     0.039 A
HETATM    3  C4  UNL     1       6.147 -13.059 -25.352  1.00  0.00     0.034 A
HETATM    4  C5  UNL     1       6.346 -12.180 -24.314  1.00  0.00     0.070 A
HETATM    5  C16 UNL     1       7.623 -11.657 -24.123  1.00  0.00     0.074 A
HETATM    6  C17 UNL     1       7.876 -10.742 -23.059  1.00  0.00     0.102 C
HETATM    7  N4  UNL     1       8.081  -9.987 -22.205  1.00  0.00    -0.191 NA
HETATM    8  C18 UNL     1       8.679 -12.001 -24.947  1.00  0.00     0.061 A
ENDROOT
BRANCH   4   9
HETATM    9  N1  UNL     1       5.325 -11.784 -23.438  1.00  0.00    -0.190 N
ATOM     10  H1  UNL     1       5.426 -11.977 -22.441  1.00  0.00     0.184 HD
BRANCH   9  11
HETATM   11  C6  UNL     1       4.258 -11.183 -23.856  1.00  0.00     0.684 A
HETATM   12  N2  UNL     1       3.118 -11.856 -24.036  1.00  0.00    -0.169 N
HETATM   13  C7  UNL     1       1.959 -11.257 -24.479  1.00  0.00     0.181 A
ATOM     14  H2  UNL     1       3.104 -12.856 -23.836  1.00  0.00     0.186 HD
HETATM   15  C14 UNL     1       1.971  -9.918 -24.746  1.00  0.00     0.078 A
HETATM   16 BR1  UNL     1       0.437  -8.985 -25.340  1.00  0.00    -0.045 Br
HETATM   17  C15 UNL     1       3.170  -9.232 -24.552  1.00  0.00     0.129 A
HETATM   18  N3  UNL     1       4.245  -9.870 -24.125  1.00  0.00    -0.200 N
ATOM     19  H3  UNL     1       5.105  -9.338 -23.994  1.00  0.00     0.183 HD
BRANCH  13  20
HETATM   20  O2  UNL     1       0.821 -12.046 -24.634  1.00  0.00    -0.292 OA
BRANCH  20  21
HETATM   21  C8  UNL     1       0.044 -12.393 -23.523  1.00  0.00     0.077 A
HETATM   22  C9  UNL     1       0.612 -12.913 -22.390  1.00  0.00     0.037 A
HETATM   23  C10 UNL     1      -0.200 -13.244 -21.297  1.00  0.00     0.003 A
HETATM   24  C11 UNL     1      -1.553 -13.037 -21.390  1.00  0.00     0.000 A
HETATM   25  C12 UNL     1      -2.128 -12.516 -22.524  1.00  0.00     0.003 A
HETATM   26  C13 UNL     1      -1.346 -12.187 -23.602  1.00  0.00     0.037 A
ENDBRANCH  20  21
ENDBRANCH  13  20
ENDBRANCH   9  11
ENDBRANCH   4   9
BRANCH   1  27
HETATM   27  O1  UNL     1       9.538 -13.245 -26.837  1.00  0.00    -0.356 OA
HETATM   28  C1  UNL     1      10.340 -14.356 -26.522  1.00  0.00     0.210 C
ENDBRANCH   1  27
TORSDOF 5
ENDMDL