MODEL 5
REMARK VINA RESULT: -9.224365864      1.377      5.748
REMARK  6 active torsions:
REMARK  status: ('A' for Active; 'I' for Inactive)
REMARK    1  A    between atoms: N1_2  and  C2_4
REMARK    2  A    between atoms: C4_8  and  N3_9
REMARK    3  A    between atoms: N3_9  and  C5_11
REMARK    4  A    between atoms: C5_11  and  C6_12
REMARK    5  A    between atoms: C6_12  and  C7_13
REMARK    6  A    between atoms: C13_22  and  C14_23
ROOT
HETATM    1  C2  UNL     1      -0.016  -8.937 -28.013  1.00  0.00     0.146 A
HETATM    2  N2  UNL     1       0.699  -8.982 -26.890  1.00  0.00    -0.331 N
ATOM      3  H2  UNL     1       1.550  -8.428 -26.795  1.00  0.00     0.168 HD
HETATM    4  C3  UNL     1       0.290  -9.751 -25.907  1.00  0.00     0.113 A
HETATM    5  C4  UNL     1       0.889  -9.945 -24.647  1.00  0.00     0.133 A
HETATM    6  N4  UNL     1       0.313 -10.776 -23.776  1.00  0.00    -0.325 N
ATOM      7  H4  UNL     1       0.777 -10.888 -22.875  1.00  0.00     0.169 HD
HETATM    8  C13 UNL     1      -0.809 -11.476 -23.964  1.00  0.00     0.135 A
HETATM    9  N6  UNL     1      -1.397 -11.305 -25.160  1.00  0.00    -0.333 N
ATOM     10  H6  UNL     1      -2.259 -11.808 -25.370  1.00  0.00     0.168 HD
HETATM   11  C19 UNL     1      -0.860 -10.466 -26.104  1.00  0.00     0.110 A
HETATM   12  S1  UNL     1      -1.308 -10.003 -27.696  1.00  0.00    -0.034 SA
ENDROOT
BRANCH   5  13
HETATM   13  N3  UNL     1       1.976  -9.316 -24.368  1.00  0.00    -0.374 N
ATOM     14  H3  UNL     1       1.884  -8.403 -23.920  1.00  0.00     0.161 HD
BRANCH  13  15
HETATM   15  C5  UNL     1       3.291  -9.782 -24.627  1.00  0.00     0.126 C
BRANCH  15  16
HETATM   16  C6  UNL     1       3.686 -10.728 -23.503  1.00  0.00     0.058 C
BRANCH  16  17
HETATM   17  C7  UNL     1       4.013 -12.073 -24.031  1.00  0.00    -0.057 A
HETATM   18  C8  UNL     1       5.336 -12.395 -24.235  1.00  0.00     0.009 A
HETATM   19  C9  UNL     1       5.637 -13.657 -24.732  1.00  0.00     0.024 A
HETATM   20  C10 UNL     1       4.641 -14.565 -25.012  1.00  0.00     0.034 A
HETATM   21 CL1  UNL     1       5.056 -16.153 -25.637  1.00  0.00    -0.084 Cl
HETATM   22  C11 UNL     1       3.344 -14.226 -24.802  1.00  0.00     0.024 A
HETATM   23  C12 UNL     1       3.015 -12.971 -24.308  1.00  0.00     0.009 A
ENDBRANCH  16  17
ENDBRANCH  15  16
ENDBRANCH  13  15
ENDBRANCH   5  13
BRANCH   8  24
HETATM   24  C14 UNL     1      -1.371 -12.366 -22.953  1.00  0.00     0.076 A
HETATM   25  C15 UNL     1      -0.639 -12.730 -21.841  1.00  0.00     0.033 A
HETATM   26  C16 UNL     1      -1.121 -13.554 -20.875  1.00  0.00     0.004 A
HETATM   27  C17 UNL     1      -2.400 -14.048 -21.013  1.00  0.00     0.017 A
HETATM   28  C18 UNL     1      -3.130 -13.683 -22.126  1.00  0.00     0.088 A
HETATM   29  N5  UNL     1      -2.612 -12.862 -23.061  1.00  0.00    -0.363 N
ATOM     30  H5  UNL     1      -3.179 -12.611 -23.871  1.00  0.00     0.165 HD
ENDBRANCH   8  24
BRANCH   1  31
HETATM   31  N1  UNL     1       0.241  -8.228 -29.094  1.00  0.00    -0.375 N
HETATM   32  C1  UNL     1       1.113  -7.106 -28.942  1.00  0.00     0.148 C
ATOM     33  H1  UNL     1      -0.165  -8.468 -29.999  1.00  0.00     0.161 HD
ENDBRANCH   1  31
TORSDOF 6
ENDMDL