MODEL 4
REMARK VINA RESULT: -8.333210117      3.822      6.807
REMARK  7 active torsions:
REMARK  status: ('A' for Active; 'I' for Inactive)
REMARK    1  A    between atoms: C2_2  and  C3_3
REMARK    2  A    between atoms: C3_3  and  C4_4
REMARK    3  A    between atoms: C3_3  and  N6_32
REMARK    4  A    between atoms: C5_5  and  C6_6
REMARK    5  A    between atoms: C9_14  and  C10_15
REMARK    6  A    between atoms: C13_18  and  C14_19
REMARK    7  A    between atoms: C16_23  and  N4_24
ROOT
HETATM    1  C6  UNL     1       4.268 -12.432 -24.282  1.00  0.00     0.084 A
HETATM    2  C7  UNL     1       4.749 -13.685 -24.687  1.00  0.00     0.125 A
HETATM    3 CL1  UNL     1       3.604 -14.975 -24.990  1.00  0.00    -0.063 Cl
HETATM    4  N1  UNL     1       6.065 -13.910 -24.843  1.00  0.00    -0.342 N
ATOM      5  H1  UNL     1       6.395 -14.829 -25.138  1.00  0.00     0.167 HD
HETATM    6  C8  UNL     1       6.946 -12.922 -24.611  1.00  0.00     0.182 A
HETATM    7  N2  UNL     1       6.474 -11.732 -24.227  1.00  0.00    -0.350 N
ATOM      8  H2  UNL     1       7.151 -10.988 -24.053  1.00  0.00     0.166 HD
HETATM    9  C9  UNL     1       5.163 -11.441 -24.050  1.00  0.00     0.065 A
ENDROOT
BRANCH   9  10
HETATM   10  C10 UNL     1       4.741 -10.115 -23.613  1.00  0.00    -0.008 A
HETATM   11  C11 UNL     1       5.048  -9.662 -22.348  1.00  0.00     0.014 A
HETATM   12  C12 UNL     1       4.691  -8.403 -21.899  1.00  0.00     0.013 A
HETATM   13  C13 UNL     1       3.999  -7.551 -22.732  1.00  0.00    -0.023 A
HETATM   14  C18 UNL     1       3.687  -7.991 -24.002  1.00  0.00     0.013 A
HETATM   15  C19 UNL     1       4.054  -9.262 -24.442  1.00  0.00     0.014 A
BRANCH  13  16
HETATM   16  C14 UNL     1       3.610  -6.209 -22.276  1.00  0.00     0.006 A
HETATM   17  C15 UNL     1       2.839  -5.371 -23.033  1.00  0.00     0.119 A
HETATM   18  N3  UNL     1       2.520  -4.149 -22.549  1.00  0.00    -0.201 N
HETATM   19  C16 UNL     1       2.930  -3.715 -21.341  1.00  0.00     0.675 A
ATOM     20  H3  UNL     1       1.945  -3.531 -23.122  1.00  0.00     0.183 HD
HETATM   21  N5  UNL     1       3.682  -4.524 -20.596  1.00  0.00    -0.201 N
HETATM   22  C17 UNL     1       4.030  -5.762 -21.036  1.00  0.00     0.119 A
ATOM     23  H5  UNL     1       4.002  -4.209 -19.680  1.00  0.00     0.183 HD
BRANCH  19  24
HETATM   24  N4  UNL     1       2.608  -2.540 -20.908  1.00  0.00    -0.234 N
ATOM     25  H42 UNL     1       1.789  -2.059 -21.282  1.00  0.00     0.174 HD
ATOM     26  H41 UNL     1       3.159  -2.073 -20.188  1.00  0.00     0.174 HD
ENDBRANCH  19  24
ENDBRANCH  13  16
ENDBRANCH   9  10
BRANCH   1  27
HETATM   27  C5  UNL     1       2.869 -12.210 -24.090  1.00  0.00    -0.059 C
HETATM   28  C4  UNL     1       1.688 -11.991 -23.933  1.00  0.00    -0.065 C
BRANCH  28  29
HETATM   29  C3  UNL     1       0.227 -11.699 -23.721  1.00  0.00     0.300 C
BRANCH  29  30
HETATM   30  C2  UNL     1      -0.411 -12.816 -22.991  1.00  0.00     0.044 C
HETATM   31  C1  UNL     1       0.089 -13.117 -21.622  1.00  0.00     0.008 C
ENDBRANCH  29  30
BRANCH  29  32
HETATM   32  N6  UNL     1      -0.282 -11.313 -24.972  1.00  0.00     0.095 N
HETATM   33  C20 UNL     1      -1.705 -11.381 -25.065  1.00  0.00     0.310 C
HETATM   34  C21 UNL     1       0.113  -9.938 -25.231  1.00  0.00     0.310 C
ENDBRANCH  29  32
ENDBRANCH  28  29
ENDBRANCH   1  27
TORSDOF 7
ENDMDL