MODEL 1
REMARK VINA RESULT: -8.549817520      0.000      0.000
REMARK  6 active torsions:
REMARK  status: ('A' for Active; 'I' for Inactive)
REMARK    1  A    between atoms: C4_5  and  C5_6
REMARK    2  A    between atoms: C8_9  and  O1_10
REMARK    3  A    between atoms: C9_12  and  N2_13
REMARK    4  A    between atoms: N3_15  and  C10_17
REMARK    5  A    between atoms: C10_17  and  C11_23
REMARK    6  A    between atoms: N4_18  and  N5_20
ROOT
HETATM    1  C5  UNL     1       5.967 -11.948 -24.385  1.00  0.00    -0.006 A
HETATM    2  C6  UNL     1       6.409 -10.727 -23.928  1.00  0.00     0.016 A
HETATM    3  C7  UNL     1       5.551  -9.802 -23.407  1.00  0.00     0.040 A
HETATM    4  C8  UNL     1       4.217 -10.065 -23.325  1.00  0.00     0.095 A
HETATM    5  C9  UNL     1       3.716 -11.285 -23.773  1.00  0.00     0.099 A
HETATM    6  C12 UNL     1       4.622 -12.197 -24.294  1.00  0.00     0.052 A
HETATM    7 BR1  UNL     1       3.961 -13.885 -24.901  1.00  0.00    -0.048 Br
ENDROOT
BRANCH   5   8
HETATM    8  N2  UNL     1       2.332 -11.575 -23.696  1.00  0.00    -0.295 N
HETATM    9  N3  UNL     1       1.516 -10.821 -24.277  1.00  0.00    -0.278 N
ATOM     10  H3  UNL     1       1.897 -10.022 -24.786  1.00  0.00     0.189 HD
ATOM     11  H2  UNL     1       2.004 -12.388 -23.174  1.00  0.00     0.187 HD
BRANCH   9  12
HETATM   12  C10 UNL     1       0.115 -10.988 -24.285  1.00  0.00     0.213 C
HETATM   13  N4  UNL     1      -0.633  -9.995 -24.586  1.00  0.00    -0.272 N
ATOM     14  H4  UNL     1      -1.644 -10.133 -24.588  1.00  0.00     0.189 HD
BRANCH  13  15
HETATM   15  N5  UNL     1      -0.134  -8.729 -24.914  1.00  0.00    -0.261 N
HETATM   16  S1  UNL     1      -0.068  -8.277 -26.449  1.00  0.00     0.059 SA
ATOM     17  H5  UNL     1       0.185  -8.098 -24.179  1.00  0.00     0.196 HD
ENDBRANCH  13  15
BRANCH  12  18
HETATM   18  C11 UNL     1      -0.464 -12.263 -23.958  1.00  0.00     0.247 C
HETATM   19  O2  UNL     1       0.188 -13.311 -24.183  1.00  0.00    -0.642 OA
HETATM   20  O3  UNL     1      -1.731 -12.321 -23.400  1.00  0.00    -0.642 OA
ENDBRANCH  12  18
ENDBRANCH   9  12
ENDBRANCH   5   8
BRANCH   4  21
HETATM   21  O1  UNL     1       3.336  -9.134 -22.799  1.00  0.00    -0.358 OA
ATOM     22  H1  UNL     1       2.884  -8.516 -23.362  1.00  0.00     0.217 HD
ENDBRANCH   4  21
BRANCH   1  23
HETATM   23  C4  UNL     1       6.957 -12.863 -24.934  1.00  0.00    -0.022 A
HETATM   24  C3  UNL     1       6.911 -14.218 -24.720  1.00  0.00     0.029 A
HETATM   25  C2  UNL     1       7.894 -15.057 -25.262  1.00  0.00     0.090 A
HETATM   26  N1  UNL     1       8.908 -14.583 -26.006  1.00  0.00    -0.371 N
HETATM   27  C1  UNL     1       9.903 -15.496 -26.547  1.00  0.00     0.154 C
HETATM   28  C14 UNL     1       8.963 -13.259 -26.222  1.00  0.00     0.090 A
HETATM   29  C13 UNL     1       8.021 -12.393 -25.710  1.00  0.00     0.029 A
ENDBRANCH   1  23
TORSDOF 6
ENDMDL