MODEL 3
REMARK VINA RESULT: -8.408430200      0.988      2.093
REMARK  6 active torsions:
REMARK  status: ('A' for Active; 'I' for Inactive)
REMARK    1  A    between atoms: O1_2  and  C2_3
REMARK    2  A    between atoms: C5_6  and  N1_7
REMARK    3  A    between atoms: N1_7  and  C6_9
REMARK    4  A    between atoms: C9_14  and  N3_15
REMARK    5  A    between atoms: N3_15  and  C10_17
REMARK    6  A    between atoms: C17_27  and  O2_28
ROOT
HETATM    1  C6  UNL     1       0.029 -12.967 -23.953  1.00  0.00     0.122 A
HETATM    2  C7  UNL     1      -0.897 -12.876 -22.933  1.00  0.00     0.066 A
HETATM    3  C8  UNL     1      -1.986 -12.036 -23.074  1.00  0.00     0.110 A
HETATM    4  N2  UNL     1      -2.169 -11.297 -24.190  1.00  0.00    -0.202 N
ATOM      5  H2  UNL     1      -2.976 -10.680 -24.282  1.00  0.00     0.183 HD
HETATM    6  C9  UNL     1      -1.259 -11.398 -25.174  1.00  0.00     0.684 A
HETATM    7  N4  UNL     1      -0.197 -12.213 -25.044  1.00  0.00    -0.176 N
ATOM      8  H4  UNL     1       0.472 -12.261 -25.812  1.00  0.00     0.186 HD
ENDROOT
BRANCH   1   9
HETATM    9  N1  UNL     1       1.077 -13.748 -23.870  1.00  0.00    -0.342 N
ATOM     10  H1  UNL     1       0.976 -14.753 -23.725  1.00  0.00     0.167 HD
BRANCH   9  11
HETATM   11  C5  UNL     1       2.356 -13.149 -23.989  1.00  0.00     0.036 A
HETATM   12  C4  UNL     1       3.392 -13.754 -24.712  1.00  0.00     0.032 A
HETATM   13  C3  UNL     1       4.630 -13.104 -24.788  1.00  0.00     0.042 A
HETATM   14  C2  UNL     1       4.827 -11.900 -24.166  1.00  0.00     0.101 A
HETATM   15  C17 UNL     1       3.771 -11.335 -23.459  1.00  0.00     0.103 A
HETATM   16  C16 UNL     1       2.552 -11.941 -23.365  1.00  0.00     0.069 A
BRANCH  14  17
HETATM   17  O1  UNL     1       6.042 -11.250 -24.232  1.00  0.00    -0.353 OA
HETATM   18  C1  UNL     1       7.240 -11.814 -23.757  1.00  0.00     0.210 C
ENDBRANCH  14  17
BRANCH  15  19
HETATM   19  O2  UNL     1       4.009 -10.117 -22.844  1.00  0.00    -0.353 OA
HETATM   20  C18 UNL     1       3.538  -8.938 -23.431  1.00  0.00     0.210 C
ENDBRANCH  15  19
ENDBRANCH   9  11
ENDBRANCH   1   9
BRANCH   6  21
HETATM   21  N3  UNL     1      -1.396 -10.707 -26.260  1.00  0.00    -0.192 N
ATOM     22  H3  UNL     1      -2.231 -10.864 -26.826  1.00  0.00     0.184 HD
BRANCH  21  23
HETATM   23  C10 UNL     1      -0.466  -9.757 -26.706  1.00  0.00     0.049 A
HETATM   24  C11 UNL     1      -0.675  -9.108 -27.902  1.00  0.00     0.031 A
HETATM   25  C12 UNL     1       0.201  -8.165 -28.390  1.00  0.00     0.021 A
HETATM   26  C13 UNL     1       1.319  -7.879 -27.637  1.00  0.00     0.011 A
HETATM   27 BR1  UNL     1       2.538  -6.574 -28.307  1.00  0.00    -0.051 Br
HETATM   28  C14 UNL     1       1.553  -8.511 -26.440  1.00  0.00     0.021 A
HETATM   29  C15 UNL     1       0.658  -9.446 -25.981  1.00  0.00     0.031 A
ENDBRANCH  21  23
ENDBRANCH   6  21
TORSDOF 6
ENDMDL