MODEL 1
REMARK VINA RESULT: -8.589755427      0.000      0.000
REMARK  5 active torsions:
REMARK  status: ('A' for Active; 'I' for Inactive)
REMARK    1  A    between atoms: N1_2  and  C1_4
REMARK    2  A    between atoms: C3_8  and  N3_9
REMARK    3  A    between atoms: N3_9  and  C4_11
REMARK    4  A    between atoms: C4_11  and  C5_12
REMARK    5  A    between atoms: N5_22  and  C12_24
ROOT
HETATM    1  C1  UNL     1      -0.163 -11.874 -24.238  1.00  0.00     0.163 A
HETATM    2  C2  UNL     1      -0.002 -13.232 -23.892  1.00  0.00     0.146 A
HETATM    3  N2  UNL     1       1.177 -13.825 -23.872  1.00  0.00    -0.199 N
ATOM      4  H2  UNL     1       1.274 -14.808 -23.618  1.00  0.00     0.183 HD
HETATM    5  C3  UNL     1       2.239 -13.084 -24.198  1.00  0.00     0.679 A
HETATM    6  N4  UNL     1       2.156 -11.809 -24.530  1.00  0.00    -0.174 N
ATOM      7  H4  UNL     1       3.010 -11.304 -24.767  1.00  0.00     0.186 HD
HETATM    8  C11 UNL     1       0.940 -11.130 -24.568  1.00  0.00     0.157 A
HETATM    9  N5  UNL     1       1.004  -9.970 -24.850  1.00  0.00    -0.320 N
ATOM     10  H5  UNL     1       2.004  -9.856 -25.016  1.00  0.00     0.169 HD
ENDROOT
BRANCH   5  11
HETATM   11  N3  UNL     1       3.391 -13.677 -24.177  1.00  0.00    -0.222 N
ATOM     12  H3  UNL     1       4.022 -13.463 -23.404  1.00  0.00     0.178 HD
BRANCH  11  13
HETATM   13  C4  UNL     1       3.839 -14.615 -25.167  1.00  0.00     0.176 C
BRANCH  13  14
HETATM   14  C5  UNL     1       5.294 -14.340 -25.380  1.00  0.00    -0.039 A
HETATM   15  C6  UNL     1       6.098 -15.146 -26.171  1.00  0.00     0.009 A
HETATM   16  C7  UNL     1       7.429 -14.903 -26.372  1.00  0.00     0.002 A
HETATM   17  C8  UNL     1       8.027 -13.822 -25.781  1.00  0.00     0.019 A
HETATM   18  C9  UNL     1       7.262 -13.000 -24.989  1.00  0.00     0.011 A
HETATM   19 BR1  UNL     1       8.028 -11.476 -24.132  1.00  0.00    -0.051 Br
HETATM   20  C10 UNL     1       5.912 -13.256 -24.792  1.00  0.00     0.027 A
ENDBRANCH  13  14
ENDBRANCH  11  13
ENDBRANCH   5  11
BRANCH   1  21
HETATM   21  N1  UNL     1      -1.460 -11.355 -24.218  1.00  0.00    -0.110 N
HETATM   22  O1  UNL     1      -2.145 -11.516 -23.160  1.00  0.00    -0.532 OA
HETATM   23  O2  UNL     1      -2.053 -10.694 -25.215  1.00  0.00    -0.532 OA
ENDBRANCH   1  21
BRANCH   9  24
HETATM   24  C12 UNL     1       0.556  -8.740 -25.077  1.00  0.00     0.148 A
HETATM   25  C13 UNL     1       0.063  -8.231 -26.310  1.00  0.00     0.058 A
HETATM   26  C14 UNL     1      -0.295  -6.932 -26.131  1.00  0.00     0.029 A
HETATM   27  C15 UNL     1      -0.026  -6.649 -24.812  1.00  0.00     0.144 A
HETATM   28  O3  UNL     1       0.461  -7.700 -24.229  1.00  0.00    -0.306 OA
ENDBRANCH   9  24
TORSDOF 5
ENDMDL