MODEL 4
REMARK VINA RESULT: -9.077229603      3.312      7.882
REMARK  5 active torsions:
REMARK  status: ('A' for Active; 'I' for Inactive)
REMARK    1  A    between atoms: C3_4  and  S1_5
REMARK    2  A    between atoms: S1_5  and  C4_8
REMARK    3  A    between atoms: C5_9  and  C6_10
REMARK    4  A    between atoms: C12_18  and  N3_19
REMARK    5  A    between atoms: C13_24  and  C14_25
ROOT
HETATM    1  N1  UNL     1       4.419 -14.058 -25.109  1.00  0.00    -0.191 NA
HETATM    2  C1  UNL     1       4.554 -12.992 -24.656  1.00  0.00     0.105 C
HETATM    3  C2  UNL     1       4.724 -11.651 -24.130  1.00  0.00     0.111 A
HETATM    4  C3  UNL     1       6.012 -11.161 -24.072  1.00  0.00     0.171 A
HETATM    5  N2  UNL     1       6.219  -9.904 -23.662  1.00  0.00    -0.179 N
ATOM      6  H2  UNL     1       7.173  -9.545 -23.620  1.00  0.00     0.185 HD
HETATM    7  C12 UNL     1       5.200  -9.099 -23.304  1.00  0.00     0.677 A
HETATM    8  N4  UNL     1       3.957  -9.576 -23.360  1.00  0.00    -0.190 N
ATOM      9  H4  UNL     1       3.189  -8.963 -23.089  1.00  0.00     0.184 HD
HETATM   10  C13 UNL     1       3.664 -10.858 -23.768  1.00  0.00     0.083 A
ENDROOT
BRANCH   4  11
HETATM   11  S1  UNL     1       7.355 -12.203 -24.567  1.00  0.00     0.214 S
HETATM   12  O1  UNL     1       7.277 -13.449 -23.661  1.00  0.00    -0.217 OA
HETATM   13  O2  UNL     1       8.632 -11.518 -24.229  1.00  0.00    -0.217 OA
BRANCH  11  14
HETATM   14  C4  UNL     1       7.218 -12.681 -26.189  1.00  0.00     0.116 C
HETATM   15  C5  UNL     1       7.943 -13.332 -27.015  1.00  0.00     0.023 C
BRANCH  15  16
HETATM   16  C6  UNL     1       9.214 -13.975 -26.993  1.00  0.00    -0.036 A
HETATM   17  C7  UNL     1      10.325 -13.554 -27.649  1.00  0.00     0.011 A
HETATM   18  C8  UNL     1      11.561 -14.233 -27.587  1.00  0.00     0.001 A
HETATM   19  C9  UNL     1      11.637 -15.364 -26.836  1.00  0.00     0.000 A
HETATM   20  C10 UNL     1      10.547 -15.843 -26.148  1.00  0.00     0.001 A
HETATM   21  C11 UNL     1       9.374 -15.150 -26.237  1.00  0.00     0.011 A
ENDBRANCH  15  16
ENDBRANCH  11  14
ENDBRANCH   4  11
BRANCH  10  22
HETATM   22  C14 UNL     1       2.281 -11.263 -23.866  1.00  0.00    -0.007 A
HETATM   23  C15 UNL     1       1.335 -10.666 -24.633  1.00  0.00     0.015 A
HETATM   24  C16 UNL     1      -0.023 -11.021 -24.643  1.00  0.00     0.024 A
HETATM   25  C17 UNL     1      -0.388 -12.048 -23.810  1.00  0.00     0.034 A
HETATM   26 CL1  UNL     1      -2.079 -12.532 -23.785  1.00  0.00    -0.084 Cl
HETATM   27  C18 UNL     1       0.544 -12.681 -23.018  1.00  0.00     0.024 A
HETATM   28  C19 UNL     1       1.860 -12.319 -23.023  1.00  0.00     0.015 A
ENDBRANCH  10  22
BRANCH   7  29
HETATM   29  N3  UNL     1       5.439  -7.873 -22.911  1.00  0.00    -0.234 N
ATOM     30  H32 UNL     1       6.133  -7.676 -22.189  1.00  0.00     0.174 HD
ATOM     31  H31 UNL     1       4.927  -7.095 -23.325  1.00  0.00     0.174 HD
ENDBRANCH   7  29
TORSDOF 5
ENDMDL