MODEL 3
REMARK VINA RESULT: -8.502377676      4.699      5.888
REMARK  4 active torsions:
REMARK  status: ('A' for Active; 'I' for Inactive)
REMARK    1  A    between atoms: O1_2  and  C2_3
REMARK    2  A    between atoms: C7_8  and  C8_9
REMARK    3  A    between atoms: C8_9  and  N1_10
REMARK    4  A    between atoms: N5_19  and  C11_21
ROOT
HETATM    1  N1  UNL     1       2.296  -9.743 -24.412  1.00  0.00    -0.228 N
HETATM    2  N2  UNL     1       1.060  -9.278 -24.335  1.00  0.00    -0.265 N
ATOM      3  H2  UNL     1       0.431  -9.449 -23.550  1.00  0.00     0.190 HD
HETATM    4  C9  UNL     1       0.737  -8.555 -25.412  1.00  0.00     0.168 A
HETATM    5  N3  UNL     1      -0.221  -7.824 -26.029  1.00  0.00    -0.281 N
ATOM      6  H3  UNL     1      -1.153  -7.644 -25.657  1.00  0.00     0.188 HD
HETATM    7  N4  UNL     1       0.241  -7.375 -27.200  1.00  0.00    -0.282 N
ATOM      8  H4  UNL     1      -0.270  -6.800 -27.870  1.00  0.00     0.188 HD
HETATM    9  C10 UNL     1       1.503  -7.821 -27.331  1.00  0.00     0.153 A
HETATM   10  N5  UNL     1       2.334  -7.628 -28.308  1.00  0.00    -0.338 N
ATOM     11  H5  UNL     1       3.270  -8.030 -28.273  1.00  0.00     0.167 HD
HETATM   12  C17 UNL     1       1.861  -8.573 -26.224  1.00  0.00     0.142 A
HETATM   13  N6  UNL     1       2.774  -9.300 -25.580  1.00  0.00    -0.277 N
ATOM     14  H6  UNL     1       3.712  -9.493 -25.931  1.00  0.00     0.189 HD
ENDROOT
BRANCH   1  15
HETATM   15  C8  UNL     1       3.029 -10.568 -23.455  1.00  0.00     0.211 C
BRANCH  15  16
HETATM   16  C7  UNL     1       3.143 -11.955 -23.972  1.00  0.00    -0.004 A
HETATM   17  C2  UNL     1       2.059 -12.811 -23.955  1.00  0.00     0.076 A
HETATM   18  C3  UNL     1       2.149 -14.106 -24.436  1.00  0.00     0.037 A
HETATM   19  C4  UNL     1       3.342 -14.576 -24.950  1.00  0.00     0.003 A
HETATM   20  C5  UNL     1       4.427 -13.743 -24.975  1.00  0.00     0.001 A
HETATM   21  C6  UNL     1       4.321 -12.450 -24.490  1.00  0.00     0.012 A
BRANCH  17  22
HETATM   22  O1  UNL     1       0.887 -12.305 -23.434  1.00  0.00    -0.355 OA
HETATM   23  C1  UNL     1      -0.407 -12.568 -23.884  1.00  0.00     0.210 C
ENDBRANCH  17  22
ENDBRANCH  15  16
ENDBRANCH   1  15
BRANCH  10  24
HETATM   24  C11 UNL     1       1.932  -6.854 -29.424  1.00  0.00     0.051 A
HETATM   25  C12 UNL     1       1.113  -7.416 -30.378  1.00  0.00     0.031 A
HETATM   26  C13 UNL     1       0.729  -6.640 -31.467  1.00  0.00     0.002 A
HETATM   27  C14 UNL     1       1.134  -5.335 -31.627  1.00  0.00     0.002 A
HETATM   28  C15 UNL     1       1.954  -4.788 -30.661  1.00  0.00     0.021 A
HETATM   29  C16 UNL     1       2.349  -5.535 -29.574  1.00  0.00     0.037 A
HETATM   30 BR1  UNL     1       3.478  -4.799 -28.234  1.00  0.00    -0.049 Br
ENDBRANCH  10  24
TORSDOF 4
ENDMDL