MODEL 1
REMARK VINA RESULT: -9.111325203      0.000      0.000
REMARK  8 active torsions:
REMARK  status: ('A' for Active; 'I' for Inactive)
REMARK    1  A    between atoms: C2_2  and  C3_3
REMARK    2  A    between atoms: C3_3  and  O1_4
REMARK    3  A    between atoms: C3_3  and  C4_6
REMARK    4  A    between atoms: C5_7  and  C6_8
REMARK    5  A    between atoms: C8_12  and  N2_13
REMARK    6  A    between atoms: N2_13  and  C9_15
REMARK    7  A    between atoms: C9_15  and  C10_16
REMARK    8  A    between atoms: C17_26  and  C18_27
ROOT
HETATM    1  C6  UNL     1       5.302 -13.343 -25.060  1.00  0.00     0.048 A
HETATM    2  C7  UNL     1       5.383 -14.470 -25.816  1.00  0.00     0.111 A
HETATM    3  N1  UNL     1       6.535 -14.894 -26.316  1.00  0.00    -0.350 N
ATOM      4  H1  UNL     1       6.551 -15.745 -26.879  1.00  0.00     0.166 HD
HETATM    5  C8  UNL     1       7.713 -14.211 -26.092  1.00  0.00     0.127 A
HETATM    6  C15 UNL     1       7.683 -13.047 -25.320  1.00  0.00     0.103 A
HETATM    7  C16 UNL     1       8.927 -12.389 -25.020  1.00  0.00     0.104 C
HETATM    8  N4  UNL     1       9.959 -11.880 -24.752  1.00  0.00    -0.191 NA
HETATM    9  C17 UNL     1       6.481 -12.624 -24.814  1.00  0.00     0.042 A
ENDROOT
BRANCH   5  10
HETATM   10  N2  UNL     1       8.741 -14.706 -26.621  1.00  0.00    -0.349 N
ATOM     11  H2  UNL     1       8.904 -14.266 -27.527  1.00  0.00     0.167 HD
BRANCH  10  12
HETATM   12  C9  UNL     1       9.716 -15.643 -26.382  1.00  0.00     0.119 C
BRANCH  12  13
HETATM   13  C10 UNL     1      11.098 -14.998 -26.470  1.00  0.00     0.047 A
HETATM   14  C11 UNL     1      11.710 -14.910 -27.701  1.00  0.00     0.031 A
HETATM   15  C12 UNL     1      12.967 -14.330 -27.821  1.00  0.00     0.004 A
HETATM   16  C13 UNL     1      13.580 -13.852 -26.690  1.00  0.00     0.017 A
HETATM   17  C14 UNL     1      12.926 -13.964 -25.473  1.00  0.00     0.088 A
HETATM   18  N3  UNL     1      11.699 -14.533 -25.386  1.00  0.00    -0.365 N
ATOM     19  H3  UNL     1      11.236 -14.604 -24.480  1.00  0.00     0.165 HD
ENDBRANCH  12  13
ENDBRANCH  10  12
ENDBRANCH   5  10
BRANCH   9  20
HETATM   20  C18 UNL     1       6.326 -11.460 -23.959  1.00  0.00     0.090 A
HETATM   21  C19 UNL     1       6.683 -11.307 -22.656  1.00  0.00     0.042 A
HETATM   22  C20 UNL     1       6.347  -9.996 -22.235  1.00  0.00     0.053 A
HETATM   23  C21 UNL     1       5.796  -9.432 -23.350  1.00  0.00     0.145 A
HETATM   24 CL1  UNL     1       5.188  -7.776 -23.409  1.00  0.00    -0.057 Cl
HETATM   25  O2  UNL     1       5.798 -10.295 -24.318  1.00  0.00    -0.298 OA
ENDBRANCH   9  20
BRANCH   1  26
HETATM   26  C5  UNL     1       4.026 -12.928 -24.561  1.00  0.00    -0.062 C
HETATM   27  C4  UNL     1       2.912 -12.587 -24.160  1.00  0.00    -0.069 C
BRANCH  27  28
HETATM   28  C3  UNL     1       1.587 -12.167 -23.704  1.00  0.00     0.196 C
BRANCH  28  29
HETATM   29  C2  UNL     1       1.158 -10.887 -24.392  1.00  0.00     0.040 C
HETATM   30  C1  UNL     1       2.150  -9.775 -24.138  1.00  0.00     0.009 C
ENDBRANCH  28  29
BRANCH  28  31
HETATM   31  O1  UNL     1       0.714 -13.205 -23.913  1.00  0.00    -0.383 OA
ATOM     32  H1  UNL     1       1.016 -14.023 -23.537  1.00  0.00     0.211 HD
ENDBRANCH  28  31
ENDBRANCH  27  28
ENDBRANCH   1  26
TORSDOF 8
ENDMDL