MODEL 5
REMARK VINA RESULT: -8.829413660      1.028      1.442
REMARK  5 active torsions:
REMARK  status: ('A' for Active; 'I' for Inactive)
REMARK       I    between atoms: C2_4  and  N2_5
REMARK       I    between atoms: C2_4  and  N4_14
REMARK    1  A    between atoms: N2_5  and  C3_7
REMARK    2  A    between atoms: N4_14  and  C8_16
REMARK    3  A    between atoms: C9_19  and  C10_20
REMARK    4  A    between atoms: C10_20  and  C12_25
REMARK    5  A    between atoms: N6_21  and  O1_23
ROOT
HETATM    1  C8  UNL     1       5.742 -14.150 -25.423  1.00  0.00     0.164 A
HETATM    2  N5  UNL     1       5.149 -13.033 -25.056  1.00  0.00    -0.334 N
ATOM      3  H5  UNL     1       5.688 -12.168 -25.011  1.00  0.00     0.168 HD
HETATM    4  C9  UNL     1       3.888 -13.021 -24.751  1.00  0.00     0.070 A
HETATM    5  C18 UNL     1       3.218 -14.216 -24.829  1.00  0.00     0.085 A
HETATM    6  S1  UNL     1       4.467 -15.282 -25.345  1.00  0.00    -0.063 SA
ENDROOT
BRANCH   1   7
HETATM    7  N4  UNL     1       7.106 -14.371 -25.796  1.00  0.00    -0.170 N
HETATM    8  C2  UNL     1       8.041 -13.329 -25.649  1.00  0.00     0.681 C
HETATM    9  N1  UNL     1       7.999 -12.594 -24.600  1.00  0.00    -0.230 N
HETATM   10  N2  UNL     1       9.016 -13.097 -26.644  1.00  0.00    -0.177 N
HETATM   11  C1  UNL     1       8.903 -11.501 -24.341  1.00  0.00     0.165 C
ATOM     12  H1  UNL     1       7.280 -12.794 -23.904  1.00  0.00     0.177 HD
ATOM     13  H2  UNL     1       8.774 -12.508 -27.441  1.00  0.00     0.186 HD
ATOM     14  H4  UNL     1       7.397 -15.276 -26.164  1.00  0.00     0.186 HD
BRANCH  10  15
HETATM   15  C3  UNL     1      10.202 -13.602 -26.584  1.00  0.00     0.120 A
HETATM   16  C4  UNL     1      10.719 -14.169 -27.746  1.00  0.00     0.049 A
HETATM   17  C5  UNL     1      11.976 -14.725 -27.756  1.00  0.00     0.005 A
HETATM   18  C6  UNL     1      12.703 -14.704 -26.584  1.00  0.00     0.017 A
HETATM   19  C7  UNL     1      12.161 -14.136 -25.458  1.00  0.00     0.089 A
HETATM   20  N3  UNL     1      10.929 -13.594 -25.464  1.00  0.00    -0.352 N
ATOM     21  H3  UNL     1      10.550 -13.178 -24.613  1.00  0.00     0.166 HD
ENDBRANCH  10  15
ENDBRANCH   1   7
BRANCH   4  22
HETATM   22  C10 UNL     1       3.220 -11.803 -24.171  1.00  0.00     0.093 C
HETATM   23  N6  UNL     1       3.893 -11.165 -23.300  1.00  0.00    -0.264 N
ATOM     24  H6  UNL     1       4.797 -11.611 -23.143  1.00  0.00     0.194 HD
BRANCH  23  25
HETATM   25  O1  UNL     1       3.764 -10.110 -22.550  1.00  0.00    -0.285 OA
HETATM   26  C11 UNL     1       4.139  -8.794 -22.913  1.00  0.00     0.237 C
ENDBRANCH  23  25
BRANCH  22  27
HETATM   27  C12 UNL     1       1.870 -11.418 -24.479  1.00  0.00     0.017 A
HETATM   28  C13 UNL     1       1.692 -10.393 -25.446  1.00  0.00     0.015 A
HETATM   29  C14 UNL     1       0.458  -9.824 -25.648  1.00  0.00     0.001 A
HETATM   30  C15 UNL     1      -0.666 -10.189 -24.957  1.00  0.00     0.002 A
HETATM   31  C16 UNL     1      -0.525 -11.180 -24.018  1.00  0.00     0.025 A
HETATM   32  C17 UNL     1       0.727 -11.757 -23.817  1.00  0.00     0.046 A
HETATM   33 CL1  UNL     1       0.770 -13.202 -22.776  1.00  0.00    -0.083 Cl
ENDBRANCH  22  27
ENDBRANCH   4  22
TORSDOF 5
ENDMDL