MODEL 2
REMARK VINA RESULT: -6.914417912      3.491      6.196
REMARK  8 active torsions:
REMARK  status: ('A' for Active; 'I' for Inactive)
REMARK    1  A    between atoms: C5_6  and  C6_7
REMARK    2  A    between atoms: C7_10  and  C8_11
REMARK    3  A    between atoms: C8_11  and  O2_12
REMARK    4  A    between atoms: C8_11  and  N2_14
REMARK    5  A    between atoms: N2_14  and  C9_16
REMARK    6  A    between atoms: C19_27  and  C20_28
REMARK    7  A    between atoms: C20_28  and  O3_29
REMARK    8  A    between atoms: C21_33  and  O4_34
ROOT
HETATM    1  C6  UNL     1       4.810  20.657  55.032  1.00  0.00     0.122 A
HETATM    2  N1  UNL     1       4.523  19.638  55.844  1.00  0.00    -0.337 N
ATOM      3  H1  UNL     1       4.959  19.470  56.751  1.00  0.00     0.168 HD
HETATM    4  C7  UNL     1       3.550  18.844  55.275  1.00  0.00     0.110 A
HETATM    5  C19 UNL     1       3.258  19.434  54.080  1.00  0.00     0.066 A
HETATM    6  N3  UNL     1       4.045  20.546  53.949  1.00  0.00    -0.341 N
ATOM      7  H3  UNL     1       4.045  21.185  53.153  1.00  0.00     0.167 HD
ENDROOT
BRANCH   4   8
HETATM    8  C8  UNL     1       3.030  17.639  55.897  1.00  0.00     0.170 C
BRANCH   8   9
HETATM    9  O2  UNL     1       1.732  17.551  55.883  1.00  0.00    -0.344 OA
ATOM     10  H2  UNL     1       1.285  18.365  56.084  1.00  0.00     0.219 HD
ENDBRANCH   8   9
BRANCH   8  11
HETATM   11  N2  UNL     1       3.730  16.597  56.492  1.00  0.00    -0.334 N
ATOM     12  H2  UNL     1       4.337  16.069  55.864  1.00  0.00     0.168 HD
BRANCH  11  13
HETATM   13  C9  UNL     1       3.729  16.157  57.840  1.00  0.00     0.046 A
HETATM   14  C10 UNL     1       2.777  15.279  58.284  1.00  0.00     0.054 A
HETATM   15  C11 UNL     1       2.818  14.846  59.616  1.00  0.00     0.037 A
HETATM   16 CL1  UNL     1       1.595  13.722  60.180  1.00  0.00    -0.084 Cl
HETATM   17  C12 UNL     1       3.791  15.284  60.469  1.00  0.00     0.036 A
HETATM   18  C13 UNL     1       4.745  16.174  59.994  1.00  0.00    -0.022 A
HETATM   19  C14 UNL     1       5.739  16.632  60.868  1.00  0.00     0.012 A
HETATM   20  C18 UNL     1       4.733  16.619  58.695  1.00  0.00     0.001 A
HETATM   21  C15 UNL     1       6.711  17.520  60.466  1.00  0.00     0.001 A
HETATM   22  C16 UNL     1       6.702  17.967  59.168  1.00  0.00     0.001 A
HETATM   23  C17 UNL     1       5.710  17.511  58.294  1.00  0.00     0.014 A
ENDBRANCH  11  13
ENDBRANCH   8  11
ENDBRANCH   4   8
BRANCH   5  24
HETATM   24  C20 UNL     1       2.272  19.019  53.040  1.00  0.00     0.223 C
BRANCH  24  25
HETATM   25  O3  UNL     1       1.545  20.160  52.623  1.00  0.00    -0.395 OA
ATOM     26  H3  UNL     1       0.777  20.250  53.175  1.00  0.00     0.209 HD
ENDBRANCH  24  25
ENDBRANCH   5  24
BRANCH   1  27
HETATM   27  C5  UNL     1       5.795  21.721  55.314  1.00  0.00     0.083 C
HETATM   28  C4  UNL     1       6.300  22.725  54.404  1.00  0.00     0.166 C
HETATM   29  C3  UNL     1       6.978  23.726  55.267  1.00  0.00     0.095 C
HETATM   30  O1  UNL     1       6.155  22.688  53.154  1.00  0.00    -0.292 OA
HETATM   31  C2  UNL     1       7.348  22.922  56.483  1.00  0.00     0.046 C
HETATM   32  C1  UNL     1       7.269  23.749  57.748  1.00  0.00     0.017 C
HETATM   33  C21 UNL     1       6.372  21.816  56.494  1.00  0.00     0.065 C
BRANCH  33  34
HETATM   34  O4  UNL     1       6.123  21.004  57.626  1.00  0.00    -0.363 OA
ATOM     35  H4  UNL     1       5.260  20.882  58.006  1.00  0.00     0.217 HD
ENDBRANCH  33  34
ENDBRANCH   1  27
TORSDOF 8
ENDMDL