MODEL 2
REMARK VINA RESULT: -6.484473956      3.336      5.993
REMARK  6 active torsions:
REMARK  status: ('A' for Active; 'I' for Inactive)
REMARK    1  A    between atoms: O1_2  and  C2_3
REMARK    2  A    between atoms: C2_3  and  C3_4
REMARK    3  A    between atoms: C3_4  and  N1_5
REMARK       I    between atoms: N1_5  and  C4_7
REMARK    4  A    between atoms: C4_7  and  C5_9
REMARK    5  A    between atoms: C6_10  and  C7_11
REMARK    6  A    between atoms: N2_15  and  C10_16
ROOT
HETATM    1  C5  UNL     1       4.925  20.261  55.481  1.00  0.00     0.068 A
HETATM    2  C6  UNL     1       4.879  19.860  56.788  1.00  0.00     0.067 A
HETATM    3  N3  UNL     1       3.781  19.045  56.846  1.00  0.00    -0.350 N
ATOM      4  H3  UNL     1       3.463  18.573  57.693  1.00  0.00     0.166 HD
HETATM    5  C17 UNL     1       3.176  18.943  55.656  1.00  0.00     0.108 A
HETATM    6  C18 UNL     1       3.864  19.699  54.743  1.00  0.00    -0.006 A
HETATM    7  C19 UNL     1       3.485  19.792  53.301  1.00  0.00     0.062 C
HETATM    8  C20 UNL     1       2.055  19.449  53.052  1.00  0.00     0.128 C
HETATM    9  N4  UNL     1       1.601  18.339  53.860  1.00  0.00    -0.355 N
ATOM     10  H4  UNL     1       0.998  17.632  53.440  1.00  0.00     0.162 HD
HETATM   11  C21 UNL     1       1.977  18.210  55.225  1.00  0.00     0.268 C
HETATM   12  O5  UNL     1       1.343  17.515  56.050  1.00  0.00    -0.266 OA
ENDROOT
BRANCH   2  13
HETATM   13  C7  UNL     1       5.724  20.120  57.919  1.00  0.00     0.093 A
HETATM   14  C8  UNL     1       6.492  19.181  58.595  1.00  0.00     0.091 A
HETATM   15  C9  UNL     1       6.728  17.750  58.320  1.00  0.00     0.080 C
HETATM   16  O3  UNL     1       7.077  19.768  59.648  1.00  0.00    -0.231 OA
HETATM   17  N2  UNL     1       6.751  21.015  59.716  1.00  0.00    -0.179 N
HETATM   18  C16 UNL     1       5.922  21.249  58.666  1.00  0.00     0.287 A
HETATM   19  O4  UNL     1       5.453  22.362  58.487  1.00  0.00    -0.265 OA
BRANCH  17  20
HETATM   20  C10 UNL     1       7.194  21.946  60.715  1.00  0.00     0.067 A
HETATM   21  C11 UNL     1       8.343  22.693  60.553  1.00  0.00     0.035 A
HETATM   22  C12 UNL     1       8.801  23.594  61.486  1.00  0.00     0.044 A
HETATM   23  C13 UNL     1       8.083  23.775  62.654  1.00  0.00     0.116 A
HETATM   24  F1  UNL     1       8.529  24.663  63.578  1.00  0.00    -0.206 F
HETATM   25  C14 UNL     1       6.930  23.038  62.837  1.00  0.00     0.044 A
HETATM   26  C15 UNL     1       6.478  22.126  61.881  1.00  0.00     0.035 A
ENDBRANCH  17  20
ENDBRANCH   2  13
BRANCH   1  27
HETATM   27  C4  UNL     1       5.940  21.023  54.812  1.00  0.00     0.254 C
HETATM   28  N1  UNL     1       5.678  22.364  54.447  1.00  0.00    -0.355 N
ATOM     29  H1  UNL     1       4.762  22.744  54.687  1.00  0.00     0.162 HD
HETATM   30  O2  UNL     1       7.091  20.558  54.523  1.00  0.00    -0.268 OA
BRANCH  28  31
HETATM   31  C3  UNL     1       6.601  23.242  53.760  1.00  0.00     0.149 C
BRANCH  31  32
HETATM   32  C2  UNL     1       7.257  24.214  54.689  1.00  0.00     0.186 C
BRANCH  32  33
HETATM   33  O1  UNL     1       8.246  23.641  55.467  1.00  0.00    -0.394 OA
HETATM   34  C1  UNL     1       8.144  23.894  56.817  1.00  0.00     0.201 C
ENDBRANCH  32  33
ENDBRANCH  31  32
ENDBRANCH  28  31
ENDBRANCH   1  27
TORSDOF 6
ENDMDL