MODEL 1
REMARK VINA RESULT: -6.408398978      0.000      0.000
REMARK  6 active torsions:
REMARK  status: ('A' for Active; 'I' for Inactive)
REMARK    1  A    between atoms: O1_2  and  C2_3
REMARK    2  A    between atoms: C4_5  and  O2_6
REMARK    3  A    between atoms: O2_6  and  C5_7
REMARK    4  A    between atoms: C5_7  and  C6_8
REMARK    5  A    between atoms: C10_13  and  N1_14
REMARK       I    between atoms: N1_14  and  C11_15
REMARK       I    between atoms: C11_15  and  N2_17
REMARK    6  A    between atoms: N2_17  and  C12_19
ROOT
HETATM    1  N1  UNL     1       4.173  17.965  57.368  1.00  0.00    -0.349 NA
HETATM    2  C11 UNL     1       5.005  18.929  56.974  1.00  0.00     0.412 C
HETATM    3  O4  UNL     1       6.270  18.869  56.877  1.00  0.00    -0.229 OA
HETATM    4  N2  UNL     1       4.492  20.241  56.600  1.00  0.00    -0.129 N
ATOM      5  H2  UNL     1       3.486  20.410  56.651  1.00  0.00     0.190 HD
ENDROOT
BRANCH   1   6
HETATM    6  C10 UNL     1       3.316  16.968  57.775  1.00  0.00     0.149 A
HETATM    7  C4  UNL     1       1.907  17.350  57.699  1.00  0.00     0.112 A
HETATM    8  C3  UNL     1       0.976  16.457  58.140  1.00  0.00     0.080 A
HETATM    9  C2  UNL     1       1.315  15.232  58.642  1.00  0.00     0.109 A
HETATM   10  C21 UNL     1       2.629  14.850  58.722  1.00  0.00     0.152 A
HETATM   11  C20 UNL     1       3.611  15.732  58.283  1.00  0.00     0.093 A
HETATM   12  F1  UNL     1       3.028  13.662  59.210  1.00  0.00    -0.203 F
BRANCH   7  13
HETATM   13  O2  UNL     1       1.703  18.571  57.190  1.00  0.00    -0.341 OA
BRANCH  13  14
HETATM   14  C5  UNL     1       1.017  19.068  56.150  1.00  0.00     0.240 C
BRANCH  14  15
HETATM   15  C6  UNL     1       1.715  19.041  54.829  1.00  0.00     0.076 A
HETATM   16  C7  UNL     1       1.668  18.117  53.821  1.00  0.00     0.037 A
HETATM   17  C8  UNL     1       2.507  18.553  52.799  1.00  0.00     0.027 A
HETATM   18  C9  UNL     1       3.021  19.738  53.263  1.00  0.00     0.142 A
HETATM   19  O3  UNL     1       2.542  19.984  54.433  1.00  0.00    -0.325 OA
ENDBRANCH  14  15
ENDBRANCH  13  14
ENDBRANCH   7  13
BRANCH   9  20
HETATM   20  O1  UNL     1       0.348  14.366  59.075  1.00  0.00    -0.353 OA
HETATM   21  C1  UNL     1      -0.951  14.683  59.469  1.00  0.00     0.210 C
ENDBRANCH   9  20
ENDBRANCH   1   6
BRANCH   4  22
HETATM   22  C12 UNL     1       5.343  21.296  56.166  1.00  0.00     0.690 A
HETATM   23  N3  UNL     1       5.531  21.602  54.873  1.00  0.00    -0.155 N
HETATM   24  C13 UNL     1       6.343  22.578  54.446  1.00  0.00     0.272 A
ATOM     25  H3  UNL     1       5.027  21.058  54.173  1.00  0.00     0.187 HD
HETATM   26  O5  UNL     1       6.528  22.873  53.245  1.00  0.00    -0.267 OA
HETATM   27  C14 UNL     1       7.017  23.302  55.421  1.00  0.00     0.060 A
HETATM   28  C15 UNL     1       7.885  24.337  55.086  1.00  0.00     0.019 A
HETATM   29  C19 UNL     1       6.853  23.022  56.759  1.00  0.00     0.065 A
HETATM   30  C16 UNL     1       8.552  25.049  56.066  1.00  0.00     0.001 A
HETATM   31  C17 UNL     1       8.389  24.767  57.407  1.00  0.00     0.002 A
HETATM   32  C18 UNL     1       7.531  23.745  57.750  1.00  0.00     0.031 A
HETATM   33  N4  UNL     1       6.021  22.030  57.080  1.00  0.00    -0.190 N
ATOM     34  H4  UNL     1       5.888  21.813  58.068  1.00  0.00     0.184 HD
ENDBRANCH   4  22
TORSDOF 6
ENDMDL