MODEL 3
REMARK VINA RESULT: -6.232456729      2.828      6.238
REMARK  7 active torsions:
REMARK  status: ('A' for Active; 'I' for Inactive)
REMARK    1  A    between atoms: C3_3  and  C4_4
REMARK    2  A    between atoms: C4_4  and  C5_6
REMARK    3  A    between atoms: C5_6  and  C6_7
REMARK    4  A    between atoms: C11_12  and  O2_13
REMARK    5  A    between atoms: C13_17  and  N2_18
REMARK    6  A    between atoms: N2_18  and  C14_20
REMARK    7  A    between atoms: C16_22  and  O3_23
ROOT
HETATM    1  C1  UNL     1       5.336  18.050  58.044  1.00  0.00     0.069 C
HETATM    2  C2  UNL     1       4.515  18.321  56.845  1.00  0.00     0.027 A
HETATM    3  C3  UNL     1       3.385  17.615  56.502  1.00  0.00     0.068 A
HETATM    4  C11 UNL     1       2.937  18.188  55.338  1.00  0.00     0.114 A
HETATM    5  C12 UNL     1       3.833  19.229  55.028  1.00  0.00     0.139 A
HETATM    6  N1  UNL     1       4.777  19.304  55.938  1.00  0.00    -0.320 N
HETATM    7  C13 UNL     1       5.832  20.305  55.904  1.00  0.00     0.207 C
HETATM    8  C20 UNL     1       6.102  20.693  54.480  1.00  0.00     0.170 C
HETATM    9  N3  UNL     1       4.880  21.077  53.801  1.00  0.00    -0.352 N
ATOM     10  H3  UNL     1       4.785  21.962  53.303  1.00  0.00     0.162 HD
HETATM   11  C21 UNL     1       3.817  20.126  53.880  1.00  0.00     0.271 C
HETATM   12  O4  UNL     1       2.919  20.045  53.035  1.00  0.00    -0.266 OA
ENDROOT
BRANCH   7  13
HETATM   13  N2  UNL     1       5.375  21.471  56.666  1.00  0.00    -0.367 N
ATOM     14  H2  UNL     1       4.992  22.251  56.132  1.00  0.00     0.161 HD
BRANCH  13  15
HETATM   15  C14 UNL     1       5.416  21.612  58.053  1.00  0.00     0.033 A
HETATM   16  C15 UNL     1       4.307  21.940  58.799  1.00  0.00     0.065 A
HETATM   17  C16 UNL     1       4.399  22.046  60.178  1.00  0.00     0.069 A
HETATM   18  C17 UNL     1       5.603  21.823  60.800  1.00  0.00     0.060 A
HETATM   19  C18 UNL     1       6.730  21.495  60.085  1.00  0.00     0.038 A
HETATM   20 CL1  UNL     1       8.246  21.218  60.908  1.00  0.00    -0.084 Cl
HETATM   21  C19 UNL     1       6.618  21.394  58.718  1.00  0.00     0.053 A
BRANCH  17  22
HETATM   22  O3  UNL     1       3.257  22.378  60.908  1.00  0.00    -0.361 OA
ATOM     23  H3  UNL     1       2.489  22.692  60.445  1.00  0.00     0.217 HD
ENDBRANCH  17  22
ENDBRANCH  13  15
ENDBRANCH   7  13
BRANCH   3  24
HETATM   24  C4  UNL     1       2.757  16.512  57.188  1.00  0.00     0.168 C
HETATM   25  O1  UNL     1       3.360  15.385  57.124  1.00  0.00    -0.292 OA
BRANCH  24  26
HETATM   26  C5  UNL     1       1.501  16.545  57.950  1.00  0.00     0.122 C
BRANCH  26  27
HETATM   27  C6  UNL     1       1.338  17.830  58.733  1.00  0.00    -0.055 A
HETATM   28  C7  UNL     1       1.872  18.021  59.918  1.00  0.00    -0.015 A
HETATM   29  C8  UNL     1       1.505  19.382  60.378  1.00  0.00     0.054 A
HETATM   30  C9  UNL     1       0.695  19.910  59.282  1.00  0.00    -0.022 A
HETATM   31  C10 UNL     1       0.611  19.003  58.344  1.00  0.00     0.003 A
ENDBRANCH  26  27
ENDBRANCH  24  26
ENDBRANCH   3  24
BRANCH   4  32
HETATM   32  O2  UNL     1       1.834  17.841  54.593  1.00  0.00    -0.357 OA
ATOM     33  H2  UNL     1       1.282  17.074  54.688  1.00  0.00     0.217 HD
ENDBRANCH   4  32
TORSDOF 7
ENDMDL