MODEL 5
REMARK VINA RESULT: -6.398092939      3.489      8.252
REMARK  6 active torsions:
REMARK  status: ('A' for Active; 'I' for Inactive)
REMARK    1  A    between atoms: C3_6  and  C4_7
REMARK    2  A    between atoms: C8_12  and  C9_13
REMARK    3  A    between atoms: C9_13  and  C10_14
REMARK    4  A    between atoms: C10_14  and  O3_15
REMARK    5  A    between atoms: C12_20  and  C13_21
REMARK    6  A    between atoms: C13_21  and  C14_23
ROOT
HETATM    1  O1  UNL     1       7.333  20.673  55.361  1.00  0.00    -0.266 OA
HETATM    2  C1  UNL     1       7.030  21.521  56.099  1.00  0.00     0.272 C
HETATM    3  N1  UNL     1       7.591  22.827  55.771  1.00  0.00    -0.323 N
ATOM      4  H1  UNL     1       8.189  22.929  54.950  1.00  0.00     0.169 HD
HETATM    5  C2  UNL     1       7.308  23.977  56.597  1.00  0.00     0.037 C
HETATM    6  C3  UNL     1       8.180  24.931  56.736  1.00  0.00     0.064 C
HETATM    7  C8  UNL     1       5.959  23.914  57.251  1.00  0.00     0.134 C
HETATM    8  N2  UNL     1       5.987  22.663  57.986  1.00  0.00    -0.375 N
ATOM      9  H2  UNL     1       5.862  22.653  58.998  1.00  0.00     0.160 HD
HETATM   10  C11 UNL     1       6.192  21.437  57.263  1.00  0.00     0.101 C
HETATM   11  C12 UNL     1       5.636  20.357  57.710  1.00  0.00     0.090 C
ENDROOT
BRANCH  11  12
HETATM   12  C13 UNL     1       5.681  19.019  57.221  1.00  0.00     0.188 C
HETATM   13  O4  UNL     1       6.645  18.261  57.231  1.00  0.00    -0.287 OA
BRANCH  12  14
HETATM   14  C14 UNL     1       4.448  18.401  56.613  1.00  0.00     0.065 A
HETATM   15  C15 UNL     1       3.713  17.351  57.110  1.00  0.00     0.119 A
HETATM   16 CL1  UNL     1       4.076  16.487  58.610  1.00  0.00    -0.063 Cl
HETATM   17  N3  UNL     1       2.720  17.137  56.257  1.00  0.00    -0.345 N
HETATM   18  C16 UNL     1       2.797  18.023  55.225  1.00  0.00     0.044 A
ATOM     19  H3  UNL     1       2.004  16.417  56.358  1.00  0.00     0.167 HD
HETATM   20  C17 UNL     1       2.037  18.238  54.094  1.00  0.00     0.030 A
HETATM   21  C21 UNL     1       3.894  18.836  55.437  1.00  0.00     0.008 A
HETATM   22  C18 UNL     1       2.336  19.233  53.173  1.00  0.00     0.002 A
HETATM   23  C19 UNL     1       3.431  20.046  53.385  1.00  0.00     0.001 A
HETATM   24  C20 UNL     1       4.188  19.829  54.516  1.00  0.00     0.015 A
ENDBRANCH  12  14
ENDBRANCH  11  12
BRANCH   7  25
HETATM   25  C9  UNL     1       4.833  23.789  56.257  1.00  0.00     0.057 C
BRANCH  25  26
HETATM   26  C10 UNL     1       3.458  23.762  56.816  1.00  0.00     0.166 C
BRANCH  26  27
HETATM   27  O3  UNL     1       2.895  22.496  56.828  1.00  0.00    -0.401 OA
ATOM     28  H3  UNL     1       2.748  22.158  57.704  1.00  0.00     0.209 HD
ENDBRANCH  26  27
ENDBRANCH  25  26
ENDBRANCH   7  25
BRANCH   6  29
HETATM   29  C4  UNL     1       8.079  26.141  57.514  1.00  0.00     0.076 A
HETATM   30  C5  UNL     1       7.692  27.391  57.010  1.00  0.00     0.039 A
HETATM   31  C6  UNL     1       7.721  28.281  58.058  1.00  0.00     0.027 A
HETATM   32  C7  UNL     1       8.121  27.542  59.148  1.00  0.00     0.142 A
HETATM   33  O2  UNL     1       8.316  26.299  58.771  1.00  0.00    -0.323 OA
ENDBRANCH   6  29
TORSDOF 6
ENDMDL