MODEL 1
REMARK VINA RESULT: -7.299857040      0.000      0.000
REMARK  5 active torsions:
REMARK  status: ('A' for Active; 'I' for Inactive)
REMARK    1  A    between atoms: C6_9  and  N2_10
REMARK       I    between atoms: N2_10  and  C7_12
REMARK    2  A    between atoms: C7_12  and  C8_14
REMARK    3  A    between atoms: C10_16  and  C11_17
REMARK    4  A    between atoms: C15_21  and  O3_22
REMARK    5  A    between atoms: C16_24  and  O4_25
ROOT
HETATM    1  C8  UNL     1       2.966  14.386  59.273  1.00  0.00     0.101 A
HETATM    2  C9  UNL     1       3.582  15.062  58.255  1.00  0.00     0.049 A
HETATM    3  C10 UNL     1       3.613  16.400  58.574  1.00  0.00    -0.006 A
HETATM    4  C21 UNL     1       3.007  16.532  59.801  1.00  0.00     0.101 A
HETATM    5  N3  UNL     1       2.636  15.304  60.182  1.00  0.00    -0.361 N
ATOM      6  H3  UNL     1       2.159  15.096  61.060  1.00  0.00     0.165 HD
ENDROOT
BRANCH   3   7
HETATM    7  C11 UNL     1       4.183  17.493  57.765  1.00  0.00    -0.002 A
HETATM    8  C12 UNL     1       3.552  17.877  56.599  1.00  0.00     0.026 A
HETATM    9  C13 UNL     1       4.049  18.899  55.805  1.00  0.00    -0.022 A
HETATM   10  C14 UNL     1       3.376  19.237  54.654  1.00  0.00     0.051 A
HETATM   11  C18 UNL     1       5.205  19.553  56.184  1.00  0.00    -0.021 A
HETATM   12  C15 UNL     1       3.856  20.262  53.837  1.00  0.00     0.099 A
HETATM   13  C16 UNL     1       5.010  20.922  54.206  1.00  0.00     0.099 A
HETATM   14  C17 UNL     1       5.677  20.564  55.376  1.00  0.00     0.051 A
HETATM   15  C19 UNL     1       5.840  19.173  57.348  1.00  0.00     0.037 A
HETATM   16  C20 UNL     1       5.336  18.151  58.136  1.00  0.00     0.046 A
HETATM   17 CL1  UNL     1       6.160  17.677  59.622  1.00  0.00    -0.083 Cl
BRANCH  12  18
HETATM   18  O3  UNL     1       3.134  20.541  52.711  1.00  0.00    -0.358 OA
ATOM     19  H3  UNL     1       2.830  19.799  52.201  1.00  0.00     0.217 HD
ENDBRANCH  12  18
BRANCH  13  20
HETATM   20  O4  UNL     1       5.539  21.947  53.441  1.00  0.00    -0.358 OA
ATOM     21  H4  UNL     1       4.994  22.641  53.090  1.00  0.00     0.217 HD
ENDBRANCH  13  20
ENDBRANCH   3   7
BRANCH   1  22
HETATM   22  C7  UNL     1       2.720  12.939  59.346  1.00  0.00     0.272 C
HETATM   23  N2  UNL     1       2.411  12.238  58.152  1.00  0.00    -0.320 N
ATOM     24  H2  UNL     1       2.368  12.766  57.280  1.00  0.00     0.169 HD
HETATM   25  O2  UNL     1       2.778  12.320  60.442  1.00  0.00    -0.266 OA
BRANCH  23  26
HETATM   26  C6  UNL     1       2.159  10.842  58.105  1.00  0.00     0.066 A
HETATM   27  C3  UNL     1       2.981   9.835  57.447  1.00  0.00     0.056 A
HETATM   28  C2  UNL     1       4.094  10.019  56.783  1.00  0.00    -0.012 C
HETATM   29  C4  UNL     1       2.329   8.534  57.655  1.00  0.00     0.257 A
HETATM   30  C1  UNL     1       4.811   8.871  56.162  1.00  0.00     0.037 C
HETATM   31  O1  UNL     1       2.734   7.428  57.241  1.00  0.00    -0.267 OA
HETATM   32  N1  UNL     1       1.168   8.828  58.414  1.00  0.00    -0.331 N
HETATM   33  C5  UNL     1       1.119  10.250  58.657  1.00  0.00     0.122 A
ATOM     34  H1  UNL     1       0.480   8.146  58.736  1.00  0.00     0.168 HD
ENDBRANCH  23  26
ENDBRANCH   1  22
TORSDOF 5
ENDMDL