MODEL 5
REMARK VINA RESULT: -7.396884090      2.090      3.172
REMARK  5 active torsions:
REMARK  status: ('A' for Active; 'I' for Inactive)
REMARK    1  A    between atoms: C3_4  and  N2_5
REMARK       I    between atoms: N2_5  and  C4_7
REMARK    2  A    between atoms: C4_7  and  C5_9
REMARK    3  A    between atoms: C5_9  and  O2_10
REMARK    4  A    between atoms: O2_10  and  C6_11
REMARK    5  A    between atoms: C6_11  and  C7_12
ROOT
HETATM    1  N2  UNL     1       5.270  20.341  56.317  1.00  0.00    -0.325 N
ATOM      2  H2  UNL     1       4.252  20.392  56.339  1.00  0.00     0.169 HD
HETATM    3  C4  UNL     1       5.896  20.568  55.080  1.00  0.00     0.245 C
HETATM    4  O1  UNL     1       7.113  20.542  54.914  1.00  0.00    -0.271 OA
ENDROOT
BRANCH   3   5
HETATM    5  C5  UNL     1       4.993  20.860  53.906  1.00  0.00     0.270 C
BRANCH   5   6
HETATM    6  O2  UNL     1       3.697  20.606  54.084  1.00  0.00    -0.379 OA
BRANCH   6   7
HETATM    7  C6  UNL     1       3.010  19.661  53.429  1.00  0.00     0.201 C
BRANCH   7   8
HETATM    8  C7  UNL     1       2.395  18.547  54.212  1.00  0.00     0.157 C
HETATM    9  C8  UNL     1       1.341  18.981  55.200  1.00  0.00     0.076 C
HETATM   10  C9  UNL     1       1.445  17.934  56.292  1.00  0.00    -0.021 A
HETATM   11  C10 UNL     1       0.572  17.451  57.241  1.00  0.00     0.035 A
HETATM   12  C14 UNL     1       2.734  17.459  56.197  1.00  0.00     0.077 A
HETATM   13  C11 UNL     1       0.944  16.473  58.139  1.00  0.00     0.059 A
HETATM   14 CL1  UNL     1      -0.143  15.838  59.355  1.00  0.00    -0.082 Cl
HETATM   15  C12 UNL     1       2.239  15.978  58.062  1.00  0.00     0.070 A
HETATM   16  N3  UNL     1       2.667  14.970  58.966  1.00  0.00    -0.101 NA
HETATM   17  C13 UNL     1       3.099  16.481  57.098  1.00  0.00     0.065 A
HETATM   18  O3  UNL     1       3.408  18.108  55.159  1.00  0.00    -0.343 OA
ENDBRANCH   7   8
ENDBRANCH   6   7
ENDBRANCH   5   6
ENDBRANCH   3   5
BRANCH   1  19
HETATM   19  C3  UNL     1       5.926  20.047  57.532  1.00  0.00     0.043 A
HETATM   20  C2  UNL     1       6.124  18.797  58.053  1.00  0.00     0.056 A
HETATM   21  C1  UNL     1       6.743  18.553  59.290  1.00  0.00     0.049 A
HETATM   22  N1  UNL     1       6.889  17.214  59.720  1.00  0.00    -0.102 NA
HETATM   23  C17 UNL     1       7.173  19.617  60.020  1.00  0.00     0.042 A
HETATM   24  C16 UNL     1       6.991  20.889  59.530  1.00  0.00     0.020 A
HETATM   25  C15 UNL     1       6.385  21.123  58.315  1.00  0.00    -0.017 A
HETATM   26  C18 UNL     1       7.438  22.052  60.319  1.00  0.00     0.160 C
HETATM   27  C21 UNL     1       6.279  22.537  57.905  1.00  0.00     0.042 C
HETATM   28  C20 UNL     1       7.550  23.328  58.207  1.00  0.00     0.012 C
HETATM   29  C19 UNL     1       7.868  23.314  59.674  1.00  0.00     0.084 C
HETATM   30  O4  UNL     1       7.454  21.972  61.560  1.00  0.00    -0.292 OA
ENDBRANCH   1  19
TORSDOF 5
ENDMDL