MODEL 3
REMARK VINA RESULT: -7.208728763      3.473      7.302
REMARK  5 active torsions:
REMARK  status: ('A' for Active; 'I' for Inactive)
REMARK    1  A    between atoms: C6_8  and  N1_9
REMARK       I    between atoms: N1_9  and  C7_11
REMARK    2  A    between atoms: C7_11  and  C8_13
REMARK    3  A    between atoms: C8_13  and  C9_14
REMARK    4  A    between atoms: C9_14  and  C10_15
REMARK    5  A    between atoms: C12_19  and  C13_20
ROOT
HETATM    1  C1  UNL     1       7.704  20.288  60.412  1.00  0.00     0.062 C
HETATM    2  C2  UNL     1       7.112  18.925  60.489  1.00  0.00     0.023 C
HETATM    3 CL1  UNL     1       7.589  17.947  61.853  1.00  0.00    -0.088 Cl
HETATM    4  C3  UNL     1       6.292  18.535  59.569  1.00  0.00     0.045 A
HETATM    5  C4  UNL     1       5.583  17.232  59.435  1.00  0.00     0.197 A
HETATM    6  O1  UNL     1       5.639  16.246  60.193  1.00  0.00    -0.286 OA
HETATM    7  C5  UNL     1       4.769  17.299  58.211  1.00  0.00     0.055 A
HETATM    8  C6  UNL     1       3.885  16.484  57.488  1.00  0.00     0.050 A
HETATM    9  C11 UNL     1       3.331  17.021  56.317  1.00  0.00     0.045 A
HETATM   10  C12 UNL     1       3.596  18.297  55.824  1.00  0.00     0.006 A
HETATM   11  C17 UNL     1       4.484  19.071  56.580  1.00  0.00     0.055 A
HETATM   12  N3  UNL     1       5.041  20.301  56.542  1.00  0.00    -0.364 N
ATOM     13  H3  UNL     1       4.873  20.999  55.818  1.00  0.00     0.165 HD
HETATM   14  C18 UNL     1       5.871  20.469  57.631  1.00  0.00     0.101 A
HETATM   15  C19 UNL     1       5.853  19.308  58.400  1.00  0.00     0.008 A
HETATM   16  C20 UNL     1       4.998  18.523  57.701  1.00  0.00     0.021 A
ENDROOT
BRANCH   8  17
HETATM   17  N1  UNL     1       3.637  15.215  57.999  1.00  0.00    -0.326 N
HETATM   18  C7  UNL     1       2.433  14.643  58.458  1.00  0.00     0.222 C
HETATM   19  O2  UNL     1       1.373  15.276  58.451  1.00  0.00    -0.273 OA
ATOM     20  H1  UNL     1       4.451  14.603  58.048  1.00  0.00     0.169 HD
BRANCH  18  21
HETATM   21  C8  UNL     1       2.441  13.219  58.972  1.00  0.00     0.112 C
BRANCH  21  22
HETATM   22  C9  UNL     1       2.848  12.253  57.915  1.00  0.00     0.109 C
BRANCH  22  23
HETATM   23  C10 UNL     1       1.922  11.128  57.703  1.00  0.00     0.231 C
HETATM   24  N2  UNL     1       2.510   9.847  57.480  1.00  0.00    -0.062 NA
HETATM   25  O3  UNL     1       0.671  11.199  57.701  1.00  0.00    -0.277 OA
ENDBRANCH  22  23
ENDBRANCH  21  22
ENDBRANCH  18  21
ENDBRANCH   8  17
BRANCH  10  26
HETATM   26  C13 UNL     1       3.032  18.856  54.622  1.00  0.00     0.001 A
HETATM   27  C14 UNL     1       1.837  18.500  54.030  1.00  0.00     0.039 A
HETATM   28  C15 UNL     1       1.659  19.282  52.883  1.00  0.00     0.142 A
HETATM   29  O4  UNL     1       2.692  20.054  52.805  1.00  0.00    -0.334 OA
HETATM   30  C16 UNL     1       3.526  19.846  53.797  1.00  0.00     0.153 A
ENDBRANCH  10  26
TORSDOF 5
ENDMDL