MODEL 2
REMARK VINA RESULT: -6.619730497      1.418      2.002
REMARK  5 active torsions:
REMARK  status: ('A' for Active; 'I' for Inactive)
REMARK       I    between atoms: N1_2  and  C2_4
REMARK    1  A    between atoms: C2_4  and  O2_6
REMARK    2  A    between atoms: O2_6  and  C3_7
REMARK    3  A    between atoms: C8_12  and  N2_13
REMARK       I    between atoms: N2_13  and  C9_15
REMARK    4  A    between atoms: C9_15  and  C10_17
REMARK    5  A    between atoms: C14_23  and  O4_24
ROOT
HETATM    1  C3  UNL     1       5.937  21.438  54.263  1.00  0.00     0.083 A
HETATM    2  C4  UNL     1       6.426  20.960  55.481  1.00  0.00     0.038 A
HETATM    3  C5  UNL     1       5.728  20.027  56.216  1.00  0.00     0.016 A
HETATM    4  C6  UNL     1       4.526  19.532  55.777  1.00  0.00    -0.007 A
HETATM    5  C7  UNL     1       3.807  18.582  56.516  1.00  0.00     0.049 A
HETATM    6  C8  UNL     1       2.619  18.124  56.035  1.00  0.00     0.104 A
HETATM    7  C19 UNL     1       2.142  18.615  54.806  1.00  0.00     0.272 A
HETATM    8  O5  UNL     1       1.048  18.217  54.327  1.00  0.00    -0.266 OA
HETATM    9  N4  UNL     1       2.844  19.533  54.101  1.00  0.00    -0.321 N
ATOM     10  H4  UNL     1       2.484  19.880  53.212  1.00  0.00     0.169 HD
HETATM   11  C20 UNL     1       4.016  19.983  54.579  1.00  0.00     0.048 A
HETATM   12  C21 UNL     1       4.718  20.909  53.859  1.00  0.00     0.067 A
ENDROOT
BRANCH   6  13
HETATM   13  N2  UNL     1       1.782  17.156  56.685  1.00  0.00    -0.318 N
HETATM   14  C9  UNL     1       0.789  17.373  57.617  1.00  0.00     0.260 C
HETATM   15  O3  UNL     1       0.566  18.580  57.962  1.00  0.00    -0.267 OA
ATOM     16  H2  UNL     1       1.943  16.183  56.425  1.00  0.00     0.169 HD
BRANCH  14  17
HETATM   17  C10 UNL     1      -0.037  16.379  58.254  1.00  0.00     0.083 A
HETATM   18  C11 UNL     1      -1.434  16.416  58.067  1.00  0.00     0.030 A
HETATM   19  C12 UNL     1      -2.270  15.515  58.633  1.00  0.00    -0.034 A
HETATM   20  C13 UNL     1      -1.773  14.515  59.426  1.00  0.00     0.017 A
HETATM   21  C18 UNL     1      -3.770  15.363  58.567  1.00  0.00     0.041 C
HETATM   22  N3  UNL     1      -0.451  14.482  59.601  1.00  0.00    -0.339 N
HETATM   23  C16 UNL     1      -2.889  13.641  59.947  1.00  0.00     0.058 C
HETATM   24  C14 UNL     1       0.427  15.371  59.047  1.00  0.00     0.158 A
ATOM     25  H3  UNL     1      -0.069  13.741  60.191  1.00  0.00     0.168 HD
HETATM   26  C17 UNL     1      -4.073  14.577  59.800  1.00  0.00     0.011 C
BRANCH  24  27
HETATM   27  O4  UNL     1       1.788  15.198  59.330  1.00  0.00    -0.340 OA
HETATM   28  C15 UNL     1       2.491  14.178  58.685  1.00  0.00     0.211 C
ENDBRANCH  24  27
ENDBRANCH  14  17
ENDBRANCH   6  13
BRANCH   1  29
HETATM   29  O2  UNL     1       6.622  22.376  53.507  1.00  0.00    -0.262 OA
BRANCH  29  30
HETATM   30  C2  UNL     1       6.844  23.681  53.939  1.00  0.00     0.365 C
HETATM   31  N1  UNL     1       5.859  24.443  54.609  1.00  0.00    -0.341 N
HETATM   32  C1  UNL     1       6.176  25.792  55.022  1.00  0.00     0.151 C
ATOM     33  H1  UNL     1       4.939  24.047  54.799  1.00  0.00     0.164 HD
HETATM   34  O1  UNL     1       7.964  24.181  53.716  1.00  0.00    -0.238 OA
ENDBRANCH  29  30
ENDBRANCH   1  29
TORSDOF 5
ENDMDL