MODEL 2
REMARK VINA RESULT: -6.698024155      4.630      6.839
REMARK  5 active torsions:
REMARK  status: ('A' for Active; 'I' for Inactive)
REMARK    1  A    between atoms: C1_2  and  N1_3
REMARK    2  A    between atoms: N1_3  and  C2_5
REMARK    3  A    between atoms: C7_10  and  O2_11
REMARK    4  A    between atoms: O2_11  and  C8_12
REMARK    5  A    between atoms: C12_16  and  C13_17
ROOT
HETATM    1  C8  UNL     1       6.346  19.600  59.743  1.00  0.00     0.098 A
HETATM    2  C9  UNL     1       6.940  18.349  59.882  1.00  0.00     0.039 A
HETATM    3  C10 UNL     1       6.962  17.537  58.775  1.00  0.00     0.004 A
HETATM    4  C11 UNL     1       6.422  17.935  57.575  1.00  0.00     0.014 A
HETATM    5  C12 UNL     1       5.826  19.165  57.401  1.00  0.00     0.001 A
HETATM    6  C21 UNL     1       5.805  19.986  58.527  1.00  0.00     0.079 A
HETATM    7 CL1  UNL     1       5.025  21.546  58.362  1.00  0.00    -0.080 Cl
ENDROOT
BRANCH   5   8
HETATM    8  C13 UNL     1       5.209  19.568  56.148  1.00  0.00     0.005 A
HETATM    9  C14 UNL     1       5.962  20.425  55.338  1.00  0.00     0.015 A
HETATM   10  C15 UNL     1       5.471  20.911  54.157  1.00  0.00     0.003 A
HETATM   11  C16 UNL     1       4.220  20.563  53.742  1.00  0.00     0.032 A
HETATM   12  C17 UNL     1       3.447  19.711  54.526  1.00  0.00     0.063 A
HETATM   13  N2  UNL     1       2.215  19.380  54.079  1.00  0.00    -0.317 N
HETATM   14  C20 UNL     1       3.960  19.227  55.721  1.00  0.00     0.073 A
HETATM   15  C18 UNL     1       1.477  18.553  54.827  1.00  0.00     0.314 A
ATOM     16  H2  UNL     1       1.860  19.749  53.198  1.00  0.00     0.169 HD
HETATM   17  O3  UNL     1       0.321  18.224  54.437  1.00  0.00    -0.262 OA
HETATM   18  C19 UNL     1       1.990  18.072  56.012  1.00  0.00     0.314 A
HETATM   19  O4  UNL     1       1.250  17.294  56.681  1.00  0.00    -0.262 OA
HETATM   20  N3  UNL     1       3.218  18.402  56.460  1.00  0.00    -0.316 N
ATOM     21  H3  UNL     1       3.570  18.030  57.342  1.00  0.00     0.169 HD
ENDBRANCH   5   8
BRANCH   1  22
HETATM   22  O2  UNL     1       6.334  20.398  60.866  1.00  0.00    -0.307 OA
BRANCH  22  23
HETATM   23  C7  UNL     1       7.398  21.173  61.256  1.00  0.00     0.102 A
HETATM   24  C2  UNL     1       8.080  20.771  62.421  1.00  0.00     0.068 A
HETATM   25  C3  UNL     1       9.131  21.558  62.792  1.00  0.00     0.032 A
HETATM   26  C4  UNL     1       9.511  22.693  62.064  1.00  0.00     0.002 A
HETATM   27  C5  UNL     1       8.832  23.063  60.933  1.00  0.00     0.003 A
HETATM   28  C6  UNL     1       7.766  22.284  60.537  1.00  0.00     0.039 A
BRANCH  24  29
HETATM   29  N1  UNL     1       7.651  19.625  63.100  1.00  0.00    -0.332 N
ATOM     30  H1  UNL     1       6.704  19.641  63.481  1.00  0.00     0.168 HD
BRANCH  29  31
HETATM   31  C1  UNL     1       8.393  18.466  63.304  1.00  0.00     0.353 C
HETATM   32  O1  UNL     1       9.259  17.939  62.580  1.00  0.00    -0.283 OA
ENDBRANCH  29  31
ENDBRANCH  24  29
ENDBRANCH  22  23
ENDBRANCH   1  22
TORSDOF 5
ENDMDL