MODEL 5
REMARK VINA RESULT: -6.685764432      2.750      3.928
REMARK  5 active torsions:
REMARK  status: ('A' for Active; 'I' for Inactive)
REMARK    1  A    between atoms: C1_2  and  N1_3
REMARK    2  A    between atoms: N1_3  and  C2_5
REMARK    3  A    between atoms: C7_10  and  O2_11
REMARK    4  A    between atoms: O2_11  and  C8_12
REMARK    5  A    between atoms: C12_16  and  C13_17
ROOT
HETATM    1  C8  UNL     1     -36.092 -19.219  17.181  1.00  0.00     0.098 A
HETATM    2  C9  UNL     1     -35.592 -20.164  18.072  1.00  0.00     0.039 A
HETATM    3  C10 UNL     1     -34.230 -20.221  18.231  1.00  0.00     0.004 A
HETATM    4  C11 UNL     1     -33.386 -19.382  17.540  1.00  0.00     0.014 A
HETATM    5  C12 UNL     1     -33.844 -18.437  16.650  1.00  0.00     0.001 A
HETATM    6  C21 UNL     1     -35.228 -18.382  16.492  1.00  0.00     0.079 A
HETATM    7 CL1  UNL     1     -35.854 -17.218  15.343  1.00  0.00    -0.080 Cl
ENDROOT
BRANCH   5   8
HETATM    8  C13 UNL     1     -32.951 -17.585  15.882  1.00  0.00     0.005 A
HETATM    9  C14 UNL     1     -32.490 -18.110  14.670  1.00  0.00     0.015 A
HETATM   10  C15 UNL     1     -31.609 -17.423  13.880  1.00  0.00     0.003 A
HETATM   11  C16 UNL     1     -31.158 -16.196  14.266  1.00  0.00     0.032 A
HETATM   12  C17 UNL     1     -31.598 -15.647  15.467  1.00  0.00     0.063 A
HETATM   13  N2  UNL     1     -31.138 -14.425  15.814  1.00  0.00    -0.317 N
HETATM   14  C20 UNL     1     -32.493 -16.357  16.256  1.00  0.00     0.073 A
HETATM   15  C18 UNL     1     -31.570 -13.893  16.961  1.00  0.00     0.314 A
ATOM     16  H2  UNL     1     -30.480 -13.924  15.217  1.00  0.00     0.169 HD
HETATM   17  O3  UNL     1     -31.158 -12.751  17.314  1.00  0.00    -0.262 OA
HETATM   18  C19 UNL     1     -32.460 -14.599  17.742  1.00  0.00     0.314 A
HETATM   19  O4  UNL     1     -32.836 -14.050  18.818  1.00  0.00    -0.262 OA
HETATM   20  N3  UNL     1     -32.920 -15.818  17.399  1.00  0.00    -0.316 N
ATOM     21  H3  UNL     1     -33.578 -16.317  17.998  1.00  0.00     0.169 HD
ENDBRANCH   5   8
BRANCH   1  22
HETATM   22  O2  UNL     1     -37.461 -19.180  17.037  1.00  0.00    -0.307 OA
BRANCH  22  23
HETATM   23  C7  UNL     1     -38.332 -19.095  18.095  1.00  0.00     0.102 A
HETATM   24  C2  UNL     1     -38.546 -17.813  18.637  1.00  0.00     0.068 A
HETATM   25  C3  UNL     1     -39.412 -17.753  19.689  1.00  0.00     0.032 A
HETATM   26  C4  UNL     1     -40.051 -18.891  20.201  1.00  0.00     0.002 A
HETATM   27  C5  UNL     1     -39.826 -20.127  19.656  1.00  0.00     0.003 A
HETATM   28  C6  UNL     1     -38.956 -20.214  18.591  1.00  0.00     0.039 A
BRANCH  24  29
HETATM   29  N1  UNL     1     -37.880 -16.717  18.077  1.00  0.00    -0.332 N
ATOM     30  H1  UNL     1     -38.126 -16.468  17.118  1.00  0.00     0.168 HD
BRANCH  29  31
HETATM   31  C1  UNL     1     -36.913 -15.936  18.704  1.00  0.00     0.353 C
HETATM   32  O1  UNL     1     -36.041 -15.199  18.205  1.00  0.00    -0.283 OA
ENDBRANCH  29  31
ENDBRANCH  24  29
ENDBRANCH  22  23
ENDBRANCH   1  22
TORSDOF 5
ENDMDL