MODEL 4
REMARK VINA RESULT: -6.679276342      2.818      5.786
REMARK  6 active torsions:
REMARK  status: ('A' for Active; 'I' for Inactive)
REMARK    1  A    between atoms: O1_2  and  C2_3
REMARK    2  A    between atoms: C4_5  and  O2_6
REMARK    3  A    between atoms: O2_6  and  C5_7
REMARK    4  A    between atoms: C5_7  and  C6_8
REMARK    5  A    between atoms: C10_13  and  N1_14
REMARK       I    between atoms: N1_14  and  C11_15
REMARK       I    between atoms: C11_15  and  N2_17
REMARK    6  A    between atoms: N2_17  and  C12_19
ROOT
HETATM    1  N1  UNL     1     -33.110 -18.118  15.838  1.00  0.00    -0.349 NA
HETATM    2  C11 UNL     1     -33.424 -19.353  15.447  1.00  0.00     0.412 C
HETATM    3  O4  UNL     1     -33.862 -20.305  16.164  1.00  0.00    -0.229 OA
HETATM    4  N2  UNL     1     -33.270 -19.748  14.051  1.00  0.00    -0.129 N
ATOM      5  H2  UNL     1     -32.912 -19.065  13.383  1.00  0.00     0.190 HD
ENDROOT
BRANCH   1   6
HETATM    6  C10 UNL     1     -32.787 -16.843  16.244  1.00  0.00     0.149 A
HETATM    7  C4  UNL     1     -31.870 -16.160  15.333  1.00  0.00     0.112 A
HETATM    8  C3  UNL     1     -31.436 -14.915  15.675  1.00  0.00     0.080 A
HETATM    9  C2  UNL     1     -31.826 -14.292  16.827  1.00  0.00     0.109 A
HETATM   10  C21 UNL     1     -32.686 -14.911  17.697  1.00  0.00     0.152 A
HETATM   11  C20 UNL     1     -33.153 -16.184  17.386  1.00  0.00     0.093 A
HETATM   12  F1  UNL     1     -33.104 -14.355  18.849  1.00  0.00    -0.203 F
BRANCH   7  13
HETATM   13  O2  UNL     1     -31.563 -16.871  14.241  1.00  0.00    -0.341 OA
BRANCH  13  14
HETATM   14  C5  UNL     1     -30.436 -17.145  13.567  1.00  0.00     0.240 C
BRANCH  14  15
HETATM   15  C6  UNL     1     -29.922 -18.542  13.689  1.00  0.00     0.076 A
HETATM   16  C7  UNL     1     -29.121 -19.268  12.851  1.00  0.00     0.037 A
HETATM   17  C8  UNL     1     -28.934 -20.527  13.417  1.00  0.00     0.027 A
HETATM   18  C9  UNL     1     -29.649 -20.483  14.587  1.00  0.00     0.142 A
HETATM   19  O3  UNL     1     -30.202 -19.326  14.709  1.00  0.00    -0.325 OA
ENDBRANCH  14  15
ENDBRANCH  13  14
ENDBRANCH   7  13
BRANCH   9  20
HETATM   20  O1  UNL     1     -31.365 -13.041  17.133  1.00  0.00    -0.353 OA
HETATM   21  C1  UNL     1     -31.939 -11.822  16.776  1.00  0.00     0.210 C
ENDBRANCH   9  20
ENDBRANCH   1   6
BRANCH   4  22
HETATM   22  C12 UNL     1     -33.600 -21.053  13.589  1.00  0.00     0.690 A
HETATM   23  N3  UNL     1     -32.754 -21.816  12.881  1.00  0.00    -0.155 N
HETATM   24  C13 UNL     1     -33.055 -23.038  12.422  1.00  0.00     0.272 A
ATOM     25  H3  UNL     1     -31.826 -21.443  12.679  1.00  0.00     0.187 HD
HETATM   26  O5  UNL     1     -32.277 -23.760  11.761  1.00  0.00    -0.267 OA
HETATM   27  C14 UNL     1     -34.325 -23.520  12.711  1.00  0.00     0.060 A
HETATM   28  C15 UNL     1     -34.740 -24.776  12.281  1.00  0.00     0.019 A
HETATM   29  C19 UNL     1     -35.225 -22.770  13.435  1.00  0.00     0.065 A
HETATM   30  C16 UNL     1     -36.008 -25.244  12.575  1.00  0.00     0.001 A
HETATM   31  C17 UNL     1     -36.910 -24.492  13.298  1.00  0.00     0.002 A
HETATM   32  C18 UNL     1     -36.509 -23.246  13.730  1.00  0.00     0.031 A
HETATM   33  N4  UNL     1     -34.828 -21.565  13.848  1.00  0.00    -0.190 N
ATOM     34  H4  UNL     1     -35.483 -20.999  14.387  1.00  0.00     0.184 HD
ENDBRANCH   4  22
TORSDOF 6
ENDMDL