MODEL 4
REMARK VINA RESULT: -6.646504034      2.392      2.876
REMARK  5 active torsions:
REMARK  status: ('A' for Active; 'I' for Inactive)
REMARK    1  A    between atoms: C6_9  and  N2_10
REMARK       I    between atoms: N2_10  and  C7_12
REMARK    2  A    between atoms: C7_12  and  C8_14
REMARK    3  A    between atoms: C10_16  and  C11_17
REMARK    4  A    between atoms: C15_21  and  O3_22
REMARK    5  A    between atoms: C16_24  and  O4_25
ROOT
HETATM    1  C8  UNL     1     -38.603 -19.780  16.966  1.00  0.00     0.101 A
HETATM    2  C9  UNL     1     -37.758 -18.894  16.355  1.00  0.00     0.049 A
HETATM    3  C10 UNL     1     -36.526 -18.973  16.963  1.00  0.00    -0.006 A
HETATM    4  C21 UNL     1     -36.630 -19.920  17.953  1.00  0.00     0.101 A
HETATM    5  N3  UNL     1     -37.887 -20.378  17.920  1.00  0.00    -0.361 N
ATOM      6  H3  UNL     1     -38.253 -21.095  18.547  1.00  0.00     0.165 HD
ENDROOT
BRANCH   3   7
HETATM    7  C11 UNL     1     -35.319 -18.197  16.627  1.00  0.00    -0.002 A
HETATM    8  C12 UNL     1     -34.972 -17.108  17.401  1.00  0.00     0.026 A
HETATM    9  C13 UNL     1     -33.846 -16.347  17.124  1.00  0.00    -0.022 A
HETATM   10  C14 UNL     1     -33.551 -15.273  17.932  1.00  0.00     0.051 A
HETATM   11  C18 UNL     1     -33.047 -16.682  16.048  1.00  0.00    -0.021 A
HETATM   12  C15 UNL     1     -32.424 -14.491  17.675  1.00  0.00     0.099 A
HETATM   13  C16 UNL     1     -31.619 -14.817  16.603  1.00  0.00     0.099 A
HETATM   14  C17 UNL     1     -31.935 -15.908  15.797  1.00  0.00     0.051 A
HETATM   15  C19 UNL     1     -33.389 -17.769  15.271  1.00  0.00     0.037 A
HETATM   16  C20 UNL     1     -34.516 -18.524  15.554  1.00  0.00     0.046 A
HETATM   17 CL1  UNL     1     -34.940 -19.911  14.551  1.00  0.00    -0.083 Cl
BRANCH  12  18
HETATM   18  O3  UNL     1     -32.197 -13.442  18.520  1.00  0.00    -0.358 OA
ATOM     19  H3  UNL     1     -32.290 -12.570  18.155  1.00  0.00     0.217 HD
ENDBRANCH  12  18
BRANCH  13  20
HETATM   20  O4  UNL     1     -30.487 -14.083  16.293  1.00  0.00    -0.358 OA
ATOM     21  H4  UNL     1     -30.217 -13.937  15.394  1.00  0.00     0.217 HD
ENDBRANCH  13  20
ENDBRANCH   3   7
BRANCH   1  22
HETATM   22  C7  UNL     1     -40.013 -20.023  16.634  1.00  0.00     0.272 C
HETATM   23  N2  UNL     1     -40.702 -19.070  15.840  1.00  0.00    -0.320 N
ATOM     24  H2  UNL     1     -40.192 -18.244  15.528  1.00  0.00     0.169 HD
HETATM   25  O2  UNL     1     -40.613 -21.054  17.041  1.00  0.00    -0.266 OA
BRANCH  23  26
HETATM   26  C6  UNL     1     -42.062 -19.205  15.457  1.00  0.00     0.066 A
HETATM   27  C3  UNL     1     -42.570 -19.943  14.308  1.00  0.00     0.056 A
HETATM   28  C2  UNL     1     -41.881 -20.616  13.421  1.00  0.00    -0.012 C
HETATM   29  C4  UNL     1     -44.032 -19.799  14.306  1.00  0.00     0.257 A
HETATM   30  C1  UNL     1     -42.561 -21.314  12.296  1.00  0.00     0.037 C
HETATM   31  O1  UNL     1     -44.824 -20.291  13.476  1.00  0.00    -0.267 OA
HETATM   32  N1  UNL     1     -44.318 -18.992  15.437  1.00  0.00    -0.331 N
HETATM   33  C5  UNL     1     -43.078 -18.662  16.098  1.00  0.00     0.122 A
ATOM     34  H1  UNL     1     -45.247 -18.695  15.735  1.00  0.00     0.168 HD
ENDBRANCH  23  26
ENDBRANCH   1  22
TORSDOF 5
ENDMDL