MODEL 2
REMARK VINA RESULT: -6.786823173      1.575      1.740
REMARK  6 active torsions:
REMARK  status: ('A' for Active; 'I' for Inactive)
REMARK    1  A    between atoms: O1_2  and  C2_3
REMARK    2  A    between atoms: C2_3  and  C3_4
REMARK    3  A    between atoms: C3_4  and  N1_5
REMARK       I    between atoms: N1_5  and  C4_7
REMARK    4  A    between atoms: C4_7  and  C5_9
REMARK    5  A    between atoms: C6_10  and  C7_11
REMARK    6  A    between atoms: N2_15  and  C10_16
ROOT
HETATM    1  C5  UNL     1     -33.584 -18.348  15.695  1.00  0.00     0.068 A
HETATM    2  C6  UNL     1     -33.673 -19.421  14.852  1.00  0.00     0.067 A
HETATM    3  N3  UNL     1     -34.996 -19.771  14.898  1.00  0.00    -0.350 N
ATOM      4  H3  UNL     1     -35.402 -20.545  14.372  1.00  0.00     0.166 HD
HETATM    5  C17 UNL     1     -35.690 -18.973  15.718  1.00  0.00     0.108 A
HETATM    6  C18 UNL     1     -34.840 -18.042  16.257  1.00  0.00    -0.006 A
HETATM    7  C19 UNL     1     -35.285 -16.968  17.194  1.00  0.00     0.062 C
HETATM    8  C20 UNL     1     -36.561 -17.297  17.893  1.00  0.00     0.128 C
HETATM    9  N4  UNL     1     -37.514 -17.956  17.027  1.00  0.00    -0.355 N
ATOM     10  H4  UNL     1     -38.499 -17.697  17.082  1.00  0.00     0.162 HD
HETATM   11  C21 UNL     1     -37.110 -18.957  16.101  1.00  0.00     0.268 C
HETATM   12  O5  UNL     1     -37.895 -19.800  15.614  1.00  0.00    -0.266 OA
ENDROOT
BRANCH   2  13
HETATM   13  C7  UNL     1     -32.712 -20.099  14.030  1.00  0.00     0.093 A
HETATM   14  C8  UNL     1     -32.340 -21.433  14.139  1.00  0.00     0.091 A
HETATM   15  C9  UNL     1     -32.851 -22.507  15.013  1.00  0.00     0.080 C
HETATM   16  O3  UNL     1     -31.357 -21.689  13.265  1.00  0.00    -0.231 OA
HETATM   17  N2  UNL     1     -31.054 -20.628  12.595  1.00  0.00    -0.179 N
HETATM   18  C16 UNL     1     -31.872 -19.644  13.049  1.00  0.00     0.287 A
HETATM   19  O4  UNL     1     -31.797 -18.517  12.585  1.00  0.00    -0.265 OA
BRANCH  17  20
HETATM   20  C10 UNL     1     -30.047 -20.537  11.575  1.00  0.00     0.067 A
HETATM   21  C11 UNL     1     -30.249 -21.046  10.308  1.00  0.00     0.035 A
HETATM   22  C12 UNL     1     -29.310 -20.979   9.305  1.00  0.00     0.044 A
HETATM   23  C13 UNL     1     -28.093 -20.374   9.562  1.00  0.00     0.116 A
HETATM   24  F1  UNL     1     -27.163 -20.305   8.577  1.00  0.00    -0.206 F
HETATM   25  C14 UNL     1     -27.870 -19.859  10.824  1.00  0.00     0.044 A
HETATM   26  C15 UNL     1     -28.833 -19.934  11.832  1.00  0.00     0.035 A
ENDBRANCH  17  20
ENDBRANCH   2  13
BRANCH   1  27
HETATM   27  C4  UNL     1     -32.461 -17.491  15.939  1.00  0.00     0.254 C
HETATM   28  N1  UNL     1     -32.232 -16.381  15.092  1.00  0.00    -0.355 N
ATOM     29  H1  UNL     1     -32.895 -16.229  14.332  1.00  0.00     0.162 HD
HETATM   30  O2  UNL     1     -31.637 -17.667  16.897  1.00  0.00    -0.268 OA
BRANCH  28  31
HETATM   31  C3  UNL     1     -31.136 -15.444  15.214  1.00  0.00     0.149 C
BRANCH  31  32
HETATM   32  C2  UNL     1     -31.497 -14.253  16.043  1.00  0.00     0.186 C
BRANCH  32  33
HETATM   33  O1  UNL     1     -31.390 -14.481  17.402  1.00  0.00    -0.394 OA
HETATM   34  C1  UNL     1     -32.580 -14.451  18.093  1.00  0.00     0.201 C
ENDBRANCH  32  33
ENDBRANCH  31  32
ENDBRANCH  28  31
ENDBRANCH   1  27
TORSDOF 6
ENDMDL