MODEL 5
REMARK VINA RESULT: -6.793807142      3.203      6.789
REMARK  5 active torsions:
REMARK  status: ('A' for Active; 'I' for Inactive)
REMARK    1  A    between atoms: C3_4  and  N2_5
REMARK       I    between atoms: N2_5  and  C4_7
REMARK    2  A    between atoms: C4_7  and  C5_9
REMARK    3  A    between atoms: C5_9  and  O2_10
REMARK    4  A    between atoms: O2_10  and  C6_11
REMARK    5  A    between atoms: C6_11  and  C7_12
ROOT
HETATM    1  N2  UNL     1     -34.271 -19.011  14.351  1.00  0.00    -0.325 N
ATOM      2  H2  UNL     1     -35.077 -18.725  13.796  1.00  0.00     0.169 HD
HETATM    3  C4  UNL     1     -34.313 -20.291  14.928  1.00  0.00     0.245 C
HETATM    4  O1  UNL     1     -33.409 -20.763  15.614  1.00  0.00    -0.271 OA
ENDROOT
BRANCH   3   5
HETATM    5  C5  UNL     1     -35.555 -21.112  14.671  1.00  0.00     0.270 C
BRANCH   5   6
HETATM    6  O2  UNL     1     -36.595 -20.867  15.467  1.00  0.00    -0.379 OA
BRANCH   6   7
HETATM    7  C6  UNL     1     -36.690 -21.268  16.740  1.00  0.00     0.201 C
BRANCH   7   8
HETATM    8  C7  UNL     1     -37.270 -20.329  17.748  1.00  0.00     0.157 C
HETATM    9  C8  UNL     1     -38.193 -19.284  17.175  1.00  0.00     0.076 C
HETATM   10  C9  UNL     1     -38.022 -18.117  18.128  1.00  0.00    -0.021 A
HETATM   11  C10 UNL     1     -38.811 -17.045  18.480  1.00  0.00     0.035 A
HETATM   12  C14 UNL     1     -36.773 -18.297  18.679  1.00  0.00     0.077 A
HETATM   13  C11 UNL     1     -38.391 -16.104  19.396  1.00  0.00     0.059 A
HETATM   14 CL1  UNL     1     -39.372 -14.732  19.864  1.00  0.00    -0.082 Cl
HETATM   15  C12 UNL     1     -37.135 -16.265  19.966  1.00  0.00     0.070 A
HETATM   16  N3  UNL     1     -36.661 -15.321  20.914  1.00  0.00    -0.101 NA
HETATM   17  C13 UNL     1     -36.360 -17.353  19.594  1.00  0.00     0.065 A
HETATM   18  O3  UNL     1     -36.183 -19.453  18.159  1.00  0.00    -0.343 OA
ENDBRANCH   7   8
ENDBRANCH   6   7
ENDBRANCH   5   6
ENDBRANCH   3   5
BRANCH   1  19
HETATM   19  C3  UNL     1     -33.212 -18.087  14.471  1.00  0.00     0.043 A
HETATM   20  C2  UNL     1     -32.075 -18.067  13.709  1.00  0.00     0.056 A
HETATM   21  C1  UNL     1     -31.024 -17.155  13.893  1.00  0.00     0.049 A
HETATM   22  N1  UNL     1     -29.900 -17.237  13.039  1.00  0.00    -0.102 NA
HETATM   23  C17 UNL     1     -31.133 -16.233  14.888  1.00  0.00     0.042 A
HETATM   24  C16 UNL     1     -32.260 -16.221  15.675  1.00  0.00     0.020 A
HETATM   25  C15 UNL     1     -33.290 -17.117  15.490  1.00  0.00    -0.017 A
HETATM   26  C18 UNL     1     -32.385 -15.237  16.767  1.00  0.00     0.160 C
HETATM   27  C21 UNL     1     -34.448 -16.972  16.393  1.00  0.00     0.042 C
HETATM   28  C20 UNL     1     -34.835 -15.512  16.614  1.00  0.00     0.012 C
HETATM   29  C19 UNL     1     -33.701 -14.730  17.214  1.00  0.00     0.084 C
HETATM   30  O4  UNL     1     -31.355 -14.822  17.329  1.00  0.00    -0.292 OA
ENDBRANCH   1  19
TORSDOF 5
ENDMDL