MODEL 5
REMARK VINA RESULT: -6.157656345      5.274      8.543
REMARK  6 active torsions:
REMARK  status: ('A' for Active; 'I' for Inactive)
REMARK    1  A    between atoms: C3_6  and  C4_7
REMARK    2  A    between atoms: C8_12  and  C9_13
REMARK    3  A    between atoms: C9_13  and  C10_14
REMARK    4  A    between atoms: C10_14  and  O3_15
REMARK    5  A    between atoms: C12_20  and  C13_21
REMARK    6  A    between atoms: C13_21  and  C14_23
ROOT
HETATM    1  O1  UNL     1     -31.956 -20.395  13.065  1.00  0.00    -0.266 OA
HETATM    2  C1  UNL     1     -30.817 -20.303  13.285  1.00  0.00     0.272 C
HETATM    3  N1  UNL     1     -30.095 -21.570  13.229  1.00  0.00    -0.323 N
ATOM      4  H1  UNL     1     -30.598 -22.430  13.007  1.00  0.00     0.169 HD
HETATM    5  C2  UNL     1     -28.674 -21.617  13.484  1.00  0.00     0.037 C
HETATM    6  C3  UNL     1     -28.127 -22.664  14.027  1.00  0.00     0.064 C
HETATM    7  C8  UNL     1     -27.961 -20.361  13.079  1.00  0.00     0.134 C
HETATM    8  N2  UNL     1     -28.650 -19.317  13.817  1.00  0.00    -0.375 N
ATOM      9  H2  UNL     1     -28.143 -18.730  14.479  1.00  0.00     0.160 HD
HETATM   10  C11 UNL     1     -30.058 -19.124  13.597  1.00  0.00     0.101 C
HETATM   11  C12 UNL     1     -30.542 -17.930  13.711  1.00  0.00     0.090 C
ENDROOT
BRANCH  11  12
HETATM   12  C13 UNL     1     -31.877 -17.452  13.573  1.00  0.00     0.188 C
HETATM   13  O4  UNL     1     -32.508 -17.313  12.530  1.00  0.00    -0.287 OA
BRANCH  12  14
HETATM   14  C14 UNL     1     -32.662 -17.056  14.798  1.00  0.00     0.065 A
HETATM   15  C15 UNL     1     -33.776 -17.679  15.309  1.00  0.00     0.119 A
HETATM   16 CL1  UNL     1     -34.535 -19.117  14.612  1.00  0.00    -0.063 Cl
HETATM   17  N3  UNL     1     -34.139 -16.997  16.387  1.00  0.00    -0.345 N
HETATM   18  C16 UNL     1     -33.287 -15.951  16.582  1.00  0.00     0.044 A
ATOM     19  H3  UNL     1     -34.936 -17.221  16.982  1.00  0.00     0.167 HD
HETATM   20  C17 UNL     1     -33.207 -14.951  17.529  1.00  0.00     0.030 A
HETATM   21  C21 UNL     1     -32.340 -15.975  15.576  1.00  0.00     0.008 A
HETATM   22  C18 UNL     1     -32.216 -13.979  17.503  1.00  0.00     0.002 A
HETATM   23  C19 UNL     1     -31.268 -14.002  16.499  1.00  0.00     0.001 A
HETATM   24  C20 UNL     1     -31.352 -15.004  15.556  1.00  0.00     0.015 A
ENDBRANCH  12  14
ENDBRANCH  11  12
BRANCH   7  25
HETATM   25  C9  UNL     1     -28.144 -20.030  11.620  1.00  0.00     0.057 C
BRANCH  25  26
HETATM   26  C10 UNL     1     -27.035 -20.417  10.711  1.00  0.00     0.166 C
BRANCH  26  27
HETATM   27  O3  UNL     1     -25.984 -21.042  11.363  1.00  0.00    -0.401 OA
ATOM     28  H3  UNL     1     -26.085 -21.985  11.421  1.00  0.00     0.209 HD
ENDBRANCH  26  27
ENDBRANCH  25  26
ENDBRANCH   7  25
BRANCH   6  29
HETATM   29  C4  UNL     1     -26.743 -22.891  14.359  1.00  0.00     0.076 A
HETATM   30  C5  UNL     1     -26.221 -22.909  15.660  1.00  0.00     0.039 A
HETATM   31  C6  UNL     1     -24.872 -23.154  15.556  1.00  0.00     0.027 A
HETATM   32  C7  UNL     1     -24.630 -23.273  14.206  1.00  0.00     0.142 A
HETATM   33  O2  UNL     1     -25.758 -23.110  13.556  1.00  0.00    -0.323 OA
ENDBRANCH   6  29
TORSDOF 6
ENDMDL