MODEL 1
REMARK VINA RESULT: -6.842634576      0.000      0.000
REMARK  5 active torsions:
REMARK  status: ('A' for Active; 'I' for Inactive)
REMARK       I    between atoms: N1_2  and  C2_4
REMARK    1  A    between atoms: C2_4  and  O2_6
REMARK    2  A    between atoms: O2_6  and  C3_7
REMARK    3  A    between atoms: C8_12  and  N2_13
REMARK       I    between atoms: N2_13  and  C9_15
REMARK    4  A    between atoms: C9_15  and  C10_17
REMARK    5  A    between atoms: C14_23  and  O4_24
ROOT
HETATM    1  C3  UNL     1     -31.805 -15.365  16.607  1.00  0.00     0.083 A
HETATM    2  C4  UNL     1     -31.500 -15.640  15.271  1.00  0.00     0.038 A
HETATM    3  C5  UNL     1     -32.140 -16.649  14.585  1.00  0.00     0.016 A
HETATM    4  C6  UNL     1     -33.102 -17.420  15.187  1.00  0.00    -0.007 A
HETATM    5  C7  UNL     1     -33.760 -18.449  14.499  1.00  0.00     0.049 A
HETATM    6  C8  UNL     1     -34.706 -19.185  15.145  1.00  0.00     0.104 A
HETATM    7  C19 UNL     1     -35.000 -18.894  16.488  1.00  0.00     0.272 A
HETATM    8  O5  UNL     1     -35.868 -19.550  17.121  1.00  0.00    -0.266 OA
HETATM    9  N4  UNL     1     -34.359 -17.899  17.145  1.00  0.00    -0.321 N
ATOM     10  H4  UNL     1     -34.583 -17.700  18.120  1.00  0.00     0.169 HD
HETATM   11  C20 UNL     1     -33.426 -17.174  16.504  1.00  0.00     0.048 A
HETATM   12  C21 UNL     1     -32.783 -16.171  17.176  1.00  0.00     0.067 A
ENDROOT
BRANCH   6  13
HETATM   13  N2  UNL     1     -35.454 -20.262  14.562  1.00  0.00    -0.318 N
HETATM   14  C9  UNL     1     -35.051 -21.564  14.349  1.00  0.00     0.260 C
HETATM   15  O3  UNL     1     -33.867 -21.875  14.704  1.00  0.00    -0.267 OA
ATOM     16  H2  UNL     1     -36.404 -20.037  14.269  1.00  0.00     0.169 HD
BRANCH  14  17
HETATM   17  C10 UNL     1     -35.825 -22.627  13.760  1.00  0.00     0.083 A
HETATM   18  C11 UNL     1     -35.167 -23.650  13.046  1.00  0.00     0.030 A
HETATM   19  C12 UNL     1     -35.828 -24.678  12.468  1.00  0.00    -0.034 A
HETATM   20  C13 UNL     1     -37.192 -24.762  12.561  1.00  0.00     0.017 A
HETATM   21  C18 UNL     1     -35.337 -25.864  11.673  1.00  0.00     0.041 C
HETATM   22  N3  UNL     1     -37.813 -23.794  13.237  1.00  0.00    -0.339 N
HETATM   23  C16 UNL     1     -37.704 -25.984  11.838  1.00  0.00     0.058 C
HETATM   24  C14 UNL     1     -37.182 -22.739  13.836  1.00  0.00     0.158 A
ATOM     25  H3  UNL     1     -38.830 -23.844  13.313  1.00  0.00     0.168 HD
HETATM   26  C17 UNL     1     -36.549 -26.260  10.895  1.00  0.00     0.011 C
BRANCH  24  27
HETATM   27  O4  UNL     1     -37.980 -21.806  14.511  1.00  0.00    -0.340 OA
HETATM   28  C15 UNL     1     -39.298 -21.611  14.092  1.00  0.00     0.211 C
ENDBRANCH  24  27
ENDBRANCH  14  17
ENDBRANCH   6  13
BRANCH   1  29
HETATM   29  O2  UNL     1     -31.175 -14.357  17.317  1.00  0.00    -0.262 OA
BRANCH  29  30
HETATM   30  C2  UNL     1     -31.645 -13.046  17.351  1.00  0.00     0.365 C
HETATM   31  N1  UNL     1     -31.786 -12.255  16.188  1.00  0.00    -0.341 N
HETATM   32  C1  UNL     1     -32.281 -10.903  16.316  1.00  0.00     0.151 C
ATOM     33  H1  UNL     1     -31.543 -12.632  15.272  1.00  0.00     0.164 HD
HETATM   34  O1  UNL     1     -31.948 -12.569  18.462  1.00  0.00    -0.238 OA
ENDBRANCH  29  30
ENDBRANCH   1  29
TORSDOF 5
ENDMDL