MODEL 2
REMARK VINA RESULT: -6.711570547      1.364      1.626
REMARK  7 active torsions:
REMARK  status: ('A' for Active; 'I' for Inactive)
REMARK    1  A    between atoms: C3_3  and  C4_4
REMARK    2  A    between atoms: C4_4  and  C5_6
REMARK    3  A    between atoms: C5_6  and  C6_7
REMARK    4  A    between atoms: C11_12  and  O2_13
REMARK    5  A    between atoms: C13_17  and  N2_18
REMARK    6  A    between atoms: N2_18  and  C14_20
REMARK    7  A    between atoms: C16_22  and  O3_23
ROOT
HETATM    1  C1  UNL     1     -36.167 -18.023  15.491  1.00  0.00     0.069 C
HETATM    2  C2  UNL     1     -35.083 -17.170  16.022  1.00  0.00     0.027 A
HETATM    3  C3  UNL     1     -35.170 -16.439  17.185  1.00  0.00     0.068 A
HETATM    4  C11 UNL     1     -33.959 -15.804  17.306  1.00  0.00     0.114 A
HETATM    5  C12 UNL     1     -33.188 -16.187  16.192  1.00  0.00     0.139 A
HETATM    6  N1  UNL     1     -33.869 -17.008  15.427  1.00  0.00    -0.320 N
HETATM    7  C13 UNL     1     -33.320 -17.599  14.216  1.00  0.00     0.207 C
HETATM    8  C20 UNL     1     -32.296 -16.672  13.631  1.00  0.00     0.170 C
HETATM    9  N3  UNL     1     -31.307 -16.293  14.621  1.00  0.00    -0.352 N
ATOM     10  H3  UNL     1     -30.305 -16.395  14.461  1.00  0.00     0.162 HD
HETATM   11  C21 UNL     1     -31.837 -15.768  15.839  1.00  0.00     0.271 C
HETATM   12  O4  UNL     1     -31.208 -14.998  16.572  1.00  0.00    -0.266 OA
ENDROOT
BRANCH   7  13
HETATM   13  N2  UNL     1     -32.698 -18.876  14.576  1.00  0.00    -0.367 N
ATOM     14  H2  UNL     1     -32.029 -18.864  15.345  1.00  0.00     0.161 HD
BRANCH  13  15
HETATM   15  C14 UNL     1     -32.936 -20.106  13.964  1.00  0.00     0.033 A
HETATM   16  C15 UNL     1     -34.090 -20.828  14.171  1.00  0.00     0.065 A
HETATM   17  C16 UNL     1     -34.285 -22.036  13.520  1.00  0.00     0.069 A
HETATM   18  C17 UNL     1     -33.322 -22.513  12.665  1.00  0.00     0.060 A
HETATM   19  C18 UNL     1     -32.158 -21.818  12.436  1.00  0.00     0.038 A
HETATM   20 CL1  UNL     1     -30.953 -22.453  11.342  1.00  0.00    -0.084 Cl
HETATM   21  C19 UNL     1     -31.983 -20.621  13.091  1.00  0.00     0.053 A
BRANCH  17  22
HETATM   22  O3  UNL     1     -35.465 -22.745  13.748  1.00  0.00    -0.361 OA
ATOM     23  H3  UNL     1     -36.297 -22.296  13.655  1.00  0.00     0.217 HD
ENDBRANCH  17  22
ENDBRANCH  13  15
ENDBRANCH   7  13
BRANCH   3  24
HETATM   24  C4  UNL     1     -36.266 -16.337  18.118  1.00  0.00     0.168 C
HETATM   25  O1  UNL     1     -36.708 -15.160  18.349  1.00  0.00    -0.292 OA
BRANCH  24  26
HETATM   26  C5  UNL     1     -36.926 -17.441  18.829  1.00  0.00     0.122 C
BRANCH  26  27
HETATM   27  C6  UNL     1     -36.003 -18.123  19.815  1.00  0.00    -0.055 A
HETATM   28  C7  UNL     1     -36.216 -18.129  21.111  1.00  0.00    -0.015 A
HETATM   29  C8  UNL     1     -35.116 -18.883  21.758  1.00  0.00     0.054 A
HETATM   30  C9  UNL     1     -34.269 -19.288  20.638  1.00  0.00    -0.022 A
HETATM   31  C10 UNL     1     -34.796 -18.841  19.528  1.00  0.00     0.003 A
ENDBRANCH  26  27
ENDBRANCH  24  26
ENDBRANCH   3  24
BRANCH   4  32
HETATM   32  O2  UNL     1     -33.545 -14.954  18.305  1.00  0.00    -0.357 OA
ATOM     33  H2  UNL     1     -33.884 -14.092  18.517  1.00  0.00     0.217 HD
ENDBRANCH   4  32
TORSDOF 7
ENDMDL