MODEL 1
REMARK VINA RESULT: -7.269366733      0.000      0.000
REMARK  8 active torsions:
REMARK  status: ('A' for Active; 'I' for Inactive)
REMARK    1  A    between atoms: C5_6  and  C6_7
REMARK    2  A    between atoms: C7_10  and  C8_11
REMARK    3  A    between atoms: C8_11  and  O2_12
REMARK    4  A    between atoms: C8_11  and  N2_14
REMARK    5  A    between atoms: N2_14  and  C9_16
REMARK    6  A    between atoms: C19_27  and  C20_28
REMARK    7  A    between atoms: C20_28  and  O3_29
REMARK    8  A    between atoms: C21_33  and  O4_34
ROOT
HETATM    1  C6  UNL     1     -34.094 -16.083  17.873  1.00  0.00     0.122 A
HETATM    2  N1  UNL     1     -33.548 -16.588  16.765  1.00  0.00    -0.337 N
ATOM      3  H1  UNL     1     -33.789 -17.488  16.350  1.00  0.00     0.168 HD
HETATM    4  C7  UNL     1     -32.609 -15.712  16.263  1.00  0.00     0.110 A
HETATM    5  C19 UNL     1     -32.615 -14.649  17.119  1.00  0.00     0.066 A
HETATM    6  N3  UNL     1     -33.534 -14.898  18.102  1.00  0.00    -0.341 N
ATOM      7  H3  UNL     1     -33.753 -14.278  18.882  1.00  0.00     0.167 HD
ENDROOT
BRANCH   4   8
HETATM    8  C8  UNL     1     -31.818 -15.976  15.073  1.00  0.00     0.170 C
BRANCH   8   9
HETATM    9  O2  UNL     1     -30.643 -15.418  15.081  1.00  0.00    -0.344 OA
ATOM     10  H2  UNL     1     -30.076 -15.696  14.371  1.00  0.00     0.219 HD
ENDBRANCH   8   9
BRANCH   8  11
HETATM   11  N2  UNL     1     -32.156 -16.729  13.956  1.00  0.00    -0.334 N
ATOM     12  H2  UNL     1     -32.752 -16.255  13.278  1.00  0.00     0.168 HD
BRANCH  11  13
HETATM   13  C9  UNL     1     -31.796 -18.058  13.616  1.00  0.00     0.046 A
HETATM   14  C10 UNL     1     -30.558 -18.334  13.101  1.00  0.00     0.054 A
HETATM   15  C11 UNL     1     -30.226 -19.661  12.798  1.00  0.00     0.037 A
HETATM   16 CL1  UNL     1     -28.639 -20.007  12.136  1.00  0.00    -0.084 Cl
HETATM   17  C12 UNL     1     -31.115 -20.675  13.012  1.00  0.00     0.036 A
HETATM   18  C13 UNL     1     -32.365 -20.370  13.536  1.00  0.00    -0.022 A
HETATM   19  C14 UNL     1     -33.282 -21.406  13.749  1.00  0.00     0.012 A
HETATM   20  C18 UNL     1     -32.722 -19.080  13.843  1.00  0.00     0.001 A
HETATM   21  C15 UNL     1     -34.539 -21.175  14.260  1.00  0.00     0.001 A
HETATM   22  C16 UNL     1     -34.900 -19.886  14.568  1.00  0.00     0.001 A
HETATM   23  C17 UNL     1     -33.986 -18.849  14.355  1.00  0.00     0.014 A
ENDBRANCH  11  13
ENDBRANCH   8  11
ENDBRANCH   4   8
BRANCH   5  24
HETATM   24  C20 UNL     1     -31.806 -13.397  17.070  1.00  0.00     0.223 C
BRANCH  24  25
HETATM   25  O3  UNL     1     -30.441 -13.730  17.250  1.00  0.00    -0.395 OA
ATOM     26  H3  UNL     1     -30.343 -14.166  18.089  1.00  0.00     0.209 HD
ENDBRANCH  24  25
ENDBRANCH   5  24
BRANCH   1  27
HETATM   27  C5  UNL     1     -35.148 -16.734  18.677  1.00  0.00     0.083 C
HETATM   28  C4  UNL     1     -35.042 -17.946  19.461  1.00  0.00     0.166 C
HETATM   29  C3  UNL     1     -36.253 -17.959  20.321  1.00  0.00     0.095 C
HETATM   30  O1  UNL     1     -34.092 -18.767  19.373  1.00  0.00    -0.292 OA
HETATM   31  C2  UNL     1     -37.228 -17.124  19.537  1.00  0.00     0.046 C
HETATM   32  C1  UNL     1     -38.134 -16.320  20.443  1.00  0.00     0.017 C
HETATM   33  C21 UNL     1     -36.373 -16.253  18.708  1.00  0.00     0.065 C
BRANCH  33  34
HETATM   34  O4  UNL     1     -36.839 -15.084  18.063  1.00  0.00    -0.363 OA
ATOM     35  H4  UNL     1     -37.337 -14.403  18.503  1.00  0.00     0.217 HD
ENDBRANCH  33  34
ENDBRANCH   1  27
TORSDOF 8
ENDMDL