MODEL 1
REMARK VINA RESULT: -7.929961772      0.000      0.000
REMARK  5 active torsions:
REMARK  status: ('A' for Active; 'I' for Inactive)
REMARK    1  A    between atoms: C6_8  and  N1_9
REMARK       I    between atoms: N1_9  and  C7_11
REMARK    2  A    between atoms: C7_11  and  C8_13
REMARK    3  A    between atoms: C8_13  and  C9_14
REMARK    4  A    between atoms: C9_14  and  C10_15
REMARK    5  A    between atoms: C12_19  and  C13_20
ROOT
HETATM    1  C1  UNL     1     -37.460 -20.567  15.547  1.00  0.00     0.062 C
HETATM    2  C2  UNL     1     -36.187 -20.852  14.833  1.00  0.00     0.023 C
HETATM    3 CL1  UNL     1     -36.134 -22.321  13.893  1.00  0.00    -0.088 Cl
HETATM    4  C3  UNL     1     -35.201 -20.022  14.936  1.00  0.00     0.045 A
HETATM    5  C4  UNL     1     -33.845 -20.094  14.320  1.00  0.00     0.197 A
HETATM    6  O1  UNL     1     -33.387 -20.979  13.575  1.00  0.00    -0.286 OA
HETATM    7  C5  UNL     1     -33.103 -18.899  14.753  1.00  0.00     0.055 A
HETATM    8  C6  UNL     1     -31.835 -18.326  14.577  1.00  0.00     0.050 A
HETATM    9  C11 UNL     1     -31.585 -17.111  15.231  1.00  0.00     0.045 A
HETATM   10  C12 UNL     1     -32.501 -16.438  16.037  1.00  0.00     0.006 A
HETATM   11  C17 UNL     1     -33.751 -17.049  16.182  1.00  0.00     0.055 A
HETATM   12  N3  UNL     1     -34.922 -16.824  16.817  1.00  0.00    -0.364 N
ATOM     13  H3  UNL     1     -35.123 -16.016  17.407  1.00  0.00     0.165 HD
HETATM   14  C18 UNL     1     -35.802 -17.850  16.546  1.00  0.00     0.101 A
HETATM   15  C19 UNL     1     -35.182 -18.773  15.708  1.00  0.00     0.008 A
HETATM   16  C20 UNL     1     -33.957 -18.218  15.539  1.00  0.00     0.021 A
ENDROOT
BRANCH   8  17
HETATM   17  N1  UNL     1     -30.938 -19.016  13.770  1.00  0.00    -0.326 N
HETATM   18  C7  UNL     1     -29.875 -18.534  12.979  1.00  0.00     0.222 C
HETATM   19  O2  UNL     1     -29.608 -17.329  12.921  1.00  0.00    -0.273 OA
ATOM     20  H1  UNL     1     -31.070 -20.027  13.745  1.00  0.00     0.169 HD
BRANCH  18  21
HETATM   21  C8  UNL     1     -29.042 -19.516  12.183  1.00  0.00     0.112 C
BRANCH  21  22
HETATM   22  C9  UNL     1     -29.666 -20.867  12.149  1.00  0.00     0.109 C
BRANCH  22  23
HETATM   23  C10 UNL     1     -30.576 -21.109  11.017  1.00  0.00     0.231 C
HETATM   24  N2  UNL     1     -31.395 -22.277  11.092  1.00  0.00    -0.062 NA
HETATM   25  O3  UNL     1     -30.692 -20.385  10.002  1.00  0.00    -0.277 OA
ENDBRANCH  22  23
ENDBRANCH  21  22
ENDBRANCH  18  21
ENDBRANCH   8  17
BRANCH  10  26
HETATM   26  C13 UNL     1     -32.252 -15.190  16.712  1.00  0.00     0.001 A
HETATM   27  C14 UNL     1     -31.478 -14.143  16.251  1.00  0.00     0.039 A
HETATM   28  C15 UNL     1     -31.497 -13.122  17.207  1.00  0.00     0.142 A
HETATM   29  O4  UNL     1     -32.239 -13.545  18.177  1.00  0.00    -0.334 OA
HETATM   30  C16 UNL     1     -32.706 -14.747  17.938  1.00  0.00     0.153 A
ENDBRANCH  10  26
TORSDOF 5
ENDMDL