MODEL 5
REMARK VINA RESULT: -7.422152712      2.931      8.499
REMARK  16 active torsions:
REMARK  status: ('A' for Active; 'I' for Inactive)
REMARK    1  A    between atoms: C1_2  and  O2_4
REMARK    2  A    between atoms: O2_4  and  C2_5
REMARK    3  A    between atoms: C2_5  and  C3_6
REMARK    4  A    between atoms: C9_18  and  O4_19
REMARK    5  A    between atoms: C11_23  and  N5_24
REMARK    6  A    between atoms: N5_24  and  C12_26
REMARK    7  A    between atoms: C12_26  and  O6_27
REMARK    8  A    between atoms: C12_26  and  C13_29
REMARK    9  A    between atoms: C13_29  and  O7_30
REMARK   10  A    between atoms: C13_29  and  C14_32
REMARK   11  A    between atoms: C14_32  and  O8_33
REMARK   12  A    between atoms: C14_32  and  C15_35
REMARK   13  A    between atoms: C15_35  and  O9_36
REMARK   14  A    between atoms: C15_35  and  C16_38
REMARK   15  A    between atoms: C16_38  and  O10_39
REMARK   16  A    between atoms: C17_41  and  O11_42
ROOT
HETATM    1  C3  UNL     1      66.938  22.835  95.277  1.00  0.00     0.069 A
HETATM    2  C4  UNL     1      66.042  21.838  95.512  1.00  0.00     0.315 A
HETATM    3  N2  UNL     1      65.431  20.999  96.155  1.00  0.00    -0.271 N
ATOM      4  H2  UNL     1      65.406  20.728  97.138  1.00  0.00     0.185 HD
HETATM    5  N3  UNL     1      64.819  20.585  95.069  1.00  0.00    -0.151 N
ATOM      6  H3  UNL     1      64.121  19.901  94.776  1.00  0.00     0.215 HD
HETATM    7  N4  UNL     1      65.802  21.788  94.421  1.00  0.00     0.110 N
HETATM    8  C5  UNL     1      66.621  22.769  93.949  1.00  0.00     0.230 A
HETATM    9  C6  UNL     1      66.879  23.315  92.740  1.00  0.00     0.220 A
HETATM   10  O3  UNL     1      67.695  24.226  92.458  1.00  0.00    -0.285 OA
HETATM   11  C7  UNL     1      66.004  22.616  91.812  1.00  0.00     0.031 A
HETATM   12  C8  UNL     1      65.982  23.083  90.572  1.00  0.00     0.057 C
HETATM   13  C9  UNL     1      64.895  22.725  89.729  1.00  0.00     0.119 C
HETATM   14  C10 UNL     1      63.886  21.778  89.988  1.00  0.00     0.234 C
HETATM   15  O5  UNL     1      63.371  21.281  88.995  1.00  0.00    -0.283 OA
HETATM   16  C11 UNL     1      63.364  21.309  91.201  1.00  0.00     0.117 C
HETATM   17  C17 UNL     1      63.856  21.586  92.407  1.00  0.00     0.105 C
HETATM   18  C18 UNL     1      65.326  21.722  92.555  1.00  0.00     0.030 A
HETATM   19  C19 UNL     1      65.422  21.491  93.881  1.00  0.00     0.330 A
ENDROOT
BRANCH  16  20
HETATM   20  N5  UNL     1      62.250  20.517  91.339  1.00  0.00    -0.356 N
ATOM     21  H5  UNL     1      61.363  21.018  91.387  1.00  0.00     0.162 HD
BRANCH  20  22
HETATM   22  C12 UNL     1      62.151  19.071  91.427  1.00  0.00     0.249 C
BRANCH  22  23
HETATM   23  O6  UNL     1      62.172  18.586  90.151  1.00  0.00    -0.374 OA
ATOM     24  H6  UNL     1      62.708  17.802  90.157  1.00  0.00     0.212 HD
ENDBRANCH  22  23
BRANCH  22  25
HETATM   25  C13 UNL     1      60.961  18.666  92.196  1.00  0.00     0.197 C
BRANCH  25  26
HETATM   26  O7  UNL     1      59.865  19.332  91.568  1.00  0.00    -0.389 OA
ATOM     27  H7  UNL     1      59.202  19.413  92.243  1.00  0.00     0.210 HD
ENDBRANCH  25  26
BRANCH  25  28
HETATM   28  C14 UNL     1      60.894  18.940  93.645  1.00  0.00     0.181 C
BRANCH  28  29
HETATM   29  O8  UNL     1      62.075  19.128  94.319  1.00  0.00    -0.390 OA
ATOM     30  H8  UNL     1      62.724  19.703  93.930  1.00  0.00     0.210 HD
ENDBRANCH  28  29
BRANCH  28  31
HETATM   31  C15 UNL     1      59.918  18.167  94.450  1.00  0.00     0.173 C
BRANCH  31  32
HETATM   32  O9  UNL     1      59.291  17.112  93.829  1.00  0.00    -0.391 OA
ATOM     33  H9  UNL     1      59.134  16.334  94.351  1.00  0.00     0.210 HD
ENDBRANCH  31  32
BRANCH  31  34
HETATM   34  C16 UNL     1      58.894  19.061  95.144  1.00  0.00     0.198 C
BRANCH  34  35
HETATM   35  O10 UNL     1      58.222  19.769  94.126  1.00  0.00    -0.398 OA
ATOM     36  H10 UNL     1      57.310  19.820  94.389  1.00  0.00     0.209 HD
ENDBRANCH  34  35
ENDBRANCH  31  34
ENDBRANCH  28  31
ENDBRANCH  25  28
ENDBRANCH  22  25
ENDBRANCH  20  22
ENDBRANCH  16  20
BRANCH  17  37
HETATM   37  O11 UNL     1      63.255  21.797  93.626  1.00  0.00    -0.358 OA
ATOM     38  H11 UNL     1      63.533  21.617  94.516  1.00  0.00     0.217 HD
ENDBRANCH  17  37
BRANCH  13  39
HETATM   39  O4  UNL     1      64.877  23.393  88.572  1.00  0.00    -0.357 OA
ATOM     40  H4  UNL     1      64.478  22.907  87.860  1.00  0.00     0.218 HD
ENDBRANCH  13  39
BRANCH   1  41
HETATM   41  C2  UNL     1      67.750  23.631  95.745  1.00  0.00     0.161 C
BRANCH  41  42
HETATM   42  O2  UNL     1      69.053  23.484  96.127  1.00  0.00    -0.275 OA
BRANCH  42  43
HETATM   43  C1  UNL     1      69.907  22.588  95.419  1.00  0.00     0.377 C
HETATM   44  N1  UNL     1      70.479  22.910  94.179  1.00  0.00    -0.032 NA
HETATM   45  O1  UNL     1      70.112  21.485  95.987  1.00  0.00    -0.242 OA
ENDBRANCH  42  43
ENDBRANCH  41  42
ENDBRANCH   1  41
TORSDOF 16
ENDMDL