MODEL 5
REMARK VINA RESULT: -7.975344378      2.559      3.936
REMARK  17 active torsions:
REMARK  status: ('A' for Active; 'I' for Inactive)
REMARK    1  A    between atoms: N1_1  and  N2_4
REMARK    2  A    between atoms: N2_4  and  O1_5
REMARK    3  A    between atoms: O1_5  and  C1_6
REMARK    4  A    between atoms: C1_6  and  C2_8
REMARK    5  A    between atoms: C2_8  and  C3_9
REMARK    6  A    between atoms: C3_9  and  C17_37
REMARK    7  A    between atoms: C4_10  and  O3_11
REMARK    8  A    between atoms: O3_11  and  C5_12
REMARK    9  A    between atoms: C7_14  and  O4_15
REMARK   10  A    between atoms: C10_19  and  O5_20
REMARK   11  A    between atoms: C12_24  and  O7_25
REMARK   12  A    between atoms: C12_24  and  O8_27
REMARK   13  A    between atoms: C13_29  and  O9_30
REMARK   14  A    between atoms: C17_37  and  N4_38
REMARK   15  A    between atoms: C17_37  and  C18_42
REMARK   16  A    between atoms: C18_42  and  C19_44
REMARK   17  A    between atoms: C19_44  and  O12_45
ROOT
HETATM    1  C5  UNL     1      62.625  18.743  93.039  1.00  0.00     0.160 A
HETATM    2  C6  UNL     1      63.291  19.657  92.367  1.00  0.00     0.072 A
HETATM    3  C7  UNL     1      64.175  20.676  92.776  1.00  0.00     0.096 A
HETATM    4  C8  UNL     1      64.770  21.536  91.866  1.00  0.00     0.066 A
HETATM    5  C9  UNL     1      64.490  21.392  90.527  1.00  0.00     0.050 A
HETATM    6  C10 UNL     1      63.626  20.400  90.116  1.00  0.00     0.114 A
HETATM    7  C11 UNL     1      63.017  19.521  91.026  1.00  0.00     0.125 A
HETATM    8  O6  UNL     1      62.134  18.472  90.841  1.00  0.00    -0.281 OA
HETATM    9  C12 UNL     1      61.846  17.930  92.092  1.00  0.00     0.338 A
HETATM   10  C13 UNL     1      65.045  22.196  89.630  1.00  0.00     0.081 A
HETATM   11  C14 UNL     1      65.980  23.273  90.017  1.00  0.00     0.068 A
HETATM   12  C15 UNL     1      66.304  23.481  91.280  1.00  0.00     0.100 A
HETATM   13  N3  UNL     1      67.200  24.522  91.592  1.00  0.00    -0.098 NA
HETATM   14  C16 UNL     1      65.697  22.602  92.267  1.00  0.00     0.210 A
HETATM   15  O10 UNL     1      65.965  22.749  93.485  1.00  0.00    -0.285 OA
ENDROOT
BRANCH   1  16
HETATM   16  O3  UNL     1      62.695  18.621  94.429  1.00  0.00    -0.317 OA
BRANCH  16  17
HETATM   17  C4  UNL     1      61.637  18.871  95.278  1.00  0.00     0.148 C
HETATM   18  C3  UNL     1      61.024  17.908  95.994  1.00  0.00    -0.011 C
BRANCH  18  19
HETATM   19  C2  UNL     1      61.536  16.561  95.832  1.00  0.00     0.151 C
BRANCH  19  20
HETATM   20  C1  UNL     1      60.666  15.538  95.273  1.00  0.00     0.283 C
HETATM   21  O2  UNL     1      59.855  14.889  95.946  1.00  0.00    -0.263 OA
BRANCH  20  22
HETATM   22  O1  UNL     1      60.705  15.229  93.899  1.00  0.00    -0.186 OA
BRANCH  22  23
HETATM   23  N2  UNL     1      59.531  15.248  93.151  1.00  0.00     0.022 NA
BRANCH  23  24
HETATM   24  N1  UNL     1      58.565  16.067  93.721  1.00  0.00    -0.322 N
ATOM     25  H12 UNL     1      58.174  16.882  93.248  1.00  0.00     0.174 HD
ATOM     26  H11 UNL     1      58.302  15.754  94.655  1.00  0.00     0.174 HD
ENDBRANCH  23  24
ENDBRANCH  22  23
ENDBRANCH  20  22
ENDBRANCH  19  20
ENDBRANCH  18  19
BRANCH  18  27
HETATM   27  C17 UNL     1      59.938  18.314  96.888  1.00  0.00     0.286 C
BRANCH  27  28
HETATM   28  N4  UNL     1      60.277  19.428  97.715  1.00  0.00    -0.064 N
ATOM     29  H43 UNL     1      60.373  19.141  98.689  1.00  0.00     0.275 HD
ATOM     30  H42 UNL     1      61.233  19.735  97.536  1.00  0.00     0.275 HD
ATOM     31  H41 UNL     1      59.623  20.205  97.628  1.00  0.00     0.275 HD
ENDBRANCH  27  28
BRANCH  27  32
HETATM   32  C18 UNL     1      58.645  18.493  96.175  1.00  0.00     0.184 C
HETATM   33  O11 UNL     1      57.791  17.649  96.310  1.00  0.00    -0.293 OA
BRANCH  32  34
HETATM   34  C19 UNL     1      58.370  19.655  95.312  1.00  0.00     0.245 C
BRANCH  34  35
HETATM   35  O12 UNL     1      58.336  19.291  93.964  1.00  0.00    -0.394 OA
ATOM     36  H12 UNL     1      58.798  19.921  93.423  1.00  0.00     0.209 HD
ENDBRANCH  34  35
ENDBRANCH  32  34
ENDBRANCH  27  32
ENDBRANCH  18  27
ENDBRANCH  16  17
ENDBRANCH   1  16
BRANCH   9  37
HETATM   37  O7  UNL     1      62.360  16.624  92.090  1.00  0.00    -0.338 OA
ATOM     38  H7  UNL     1      61.714  16.042  92.474  1.00  0.00     0.216 HD
ENDBRANCH   9  37
BRANCH   9  39
HETATM   39  O8  UNL     1      60.483  17.926  92.383  1.00  0.00    -0.338 OA
ATOM     40  H8  UNL     1      60.239  18.606  93.001  1.00  0.00     0.216 HD
ENDBRANCH   9  39
BRANCH   3  41
HETATM   41  O4  UNL     1      64.495  20.873  94.087  1.00  0.00    -0.359 OA
ATOM     42  H4  UNL     1      65.373  20.726  94.419  1.00  0.00     0.217 HD
ENDBRANCH   3  41
BRANCH   6  43
HETATM   43  O5  UNL     1      63.345  20.255  88.767  1.00  0.00    -0.357 OA
ATOM     44  H5  UNL     1      63.935  19.753  88.217  1.00  0.00     0.217 HD
ENDBRANCH   6  43
BRANCH  10  45
HETATM   45  O9  UNL     1      64.712  21.987  88.298  1.00  0.00    -0.360 OA
ATOM     46  H9  UNL     1      64.188  22.655  87.872  1.00  0.00     0.217 HD
ENDBRANCH  10  45
TORSDOF 17
ENDMDL