MODEL 2
REMARK VINA RESULT: -8.074535409      1.937      2.322
REMARK  15 active torsions:
REMARK  status: ('A' for Active; 'I' for Inactive)
REMARK    1  A    between atoms: N1_1  and  C1_4
REMARK    2  A    between atoms: N6_16  and  C5_17
REMARK    3  A    between atoms: C5_17  and  C6_18
REMARK    4  A    between atoms: C6_18  and  N7_19
REMARK    5  A    between atoms: N7_19  and  C7_21
REMARK    6  A    between atoms: C8_22  and  C9_23
REMARK    7  A    between atoms: C9_23  and  O1_24
REMARK    8  A    between atoms: C9_23  and  O2_26
REMARK    9  A    between atoms: C10_31  and  C11_32
REMARK       I    between atoms: C11_32  and  N9_34
REMARK   10  A    between atoms: N9_34  and  C12_36
REMARK   11  A    between atoms: C14_38  and  N10_39
REMARK   12  A    between atoms: C16_44  and  O5_45
REMARK   13  A    between atoms: C16_44  and  C17_47
REMARK   14  A    between atoms: C17_47  and  O6_48
REMARK   15  A    between atoms: C18_50  and  N11_51
ROOT
HETATM    1  C7  UNL     1      64.301  20.659  93.756  1.00  0.00     0.100 A
HETATM    2  C8  UNL     1      65.442  21.187  94.370  1.00  0.00     0.116 A
HETATM    3  N8  UNL     1      66.107  20.109  94.822  1.00  0.00    -0.257 N
ATOM      4  H8  UNL     1      66.993  20.140  95.326  1.00  0.00     0.195 HD
HETATM    5  O3  UNL     1      65.458  19.020  94.525  1.00  0.00    -0.230 OA
HETATM    6  C10 UNL     1      64.345  19.294  93.872  1.00  0.00     0.194 A
ENDROOT
BRANCH   6   7
HETATM    7  C11 UNL     1      63.355  18.335  93.375  1.00  0.00     0.280 C
HETATM    8  O4  UNL     1      63.458  17.783  92.255  1.00  0.00    -0.265 OA
HETATM    9  N9  UNL     1      62.239  18.009  94.170  1.00  0.00    -0.348 N
ATOM     10  H9  UNL     1      62.142  18.444  95.088  1.00  0.00     0.163 HD
BRANCH   9  11
HETATM   11  C12 UNL     1      61.218  17.068  93.720  1.00  0.00     0.120 C
HETATM   12  C13 UNL     1      60.882  16.133  94.822  1.00  0.00     0.060 C
HETATM   13  C14 UNL     1      59.485  15.639  94.664  1.00  0.00     0.188 C
HETATM   14  C15 UNL     1      58.456  16.733  94.719  1.00  0.00     0.075 C
HETATM   15  C16 UNL     1      58.869  17.971  93.987  1.00  0.00     0.111 C
HETATM   16  C18 UNL     1      60.068  17.827  93.134  1.00  0.00     0.242 C
BRANCH  13  17
HETATM   17  N10 UNL     1      59.376  14.947  93.384  1.00  0.00    -0.075 N
ATOM     18 3H10 UNL     1      58.425  14.632  93.191  1.00  0.00     0.274 HD
ATOM     19 2H10 UNL     1      59.479  15.578  92.590  1.00  0.00     0.274 HD
ATOM     20 1H10 UNL     1      60.052  14.183  93.367  1.00  0.00     0.274 HD
ENDBRANCH  13  17
BRANCH  15  21
HETATM   21  O5  UNL     1      57.790  18.336  93.161  1.00  0.00    -0.385 OA
ATOM     22  H5  UNL     1      57.923  17.901  92.327  1.00  0.00     0.210 HD
ENDBRANCH  15  21
BRANCH  15  23
HETATM   23  C17 UNL     1      59.025  19.129  94.969  1.00  0.00     0.204 C
BRANCH  23  24
HETATM   24  O6  UNL     1      58.157  20.137  94.494  1.00  0.00    -0.398 OA
ATOM     25  H6  UNL     1      58.226  20.843  95.125  1.00  0.00     0.209 HD
ENDBRANCH  23  24
ENDBRANCH  15  23
BRANCH  16  26
HETATM   26  N11 UNL     1      60.502  19.140  92.702  1.00  0.00    -0.070 N
ATOM     27 3H11 UNL     1      61.510  19.179  92.553  1.00  0.00     0.274 HD
ATOM     28 2H11 UNL     1      60.201  19.346  91.749  1.00  0.00     0.274 HD
ATOM     29 1H11 UNL     1      60.187  19.851  93.362  1.00  0.00     0.274 HD
ENDBRANCH  16  26
ENDBRANCH   9  11
ENDBRANCH   6   7
BRANCH   1  30
HETATM   30  N7  UNL     1      63.307  21.465  93.142  1.00  0.00    -0.384 N
ATOM     31  H7  UNL     1      62.494  21.773  93.675  1.00  0.00     0.159 HD
BRANCH  30  32
HETATM   32  C6  UNL     1      63.451  21.837  91.784  1.00  0.00     0.142 C
BRANCH  32  33
HETATM   33  C5  UNL     1      64.460  21.136  90.960  1.00  0.00     0.172 C
BRANCH  33  34
HETATM   34  N6  UNL     1      64.093  20.880  89.598  1.00  0.00    -0.258 N
HETATM   35  C3  UNL     1      63.596  19.749  89.055  1.00  0.00     0.157 A
HETATM   36  N3  UNL     1      63.295  18.536  89.519  1.00  0.00    -0.335 N
HETATM   37  C4  UNL     1      63.380  19.949  87.688  1.00  0.00     0.139 A
HETATM   38  C2  UNL     1      62.816  17.561  88.739  1.00  0.00     0.183 A
ATOM     39  H3  UNL     1      63.437  18.344  90.510  1.00  0.00     0.168 HD
HETATM   40  N2  UNL     1      62.598  17.738  87.405  1.00  0.00    -0.337 N
HETATM   41  C1  UNL     1      62.883  18.941  86.880  1.00  0.00     0.132 A
ATOM     42  H2  UNL     1      62.231  16.983  86.825  1.00  0.00     0.168 HD
HETATM   43  N4  UNL     1      63.763  21.221  87.466  1.00  0.00    -0.279 N
HETATM   44  N5  UNL     1      64.178  21.750  88.599  1.00  0.00    -0.238 N
ATOM     45  H4  UNL     1      63.737  21.697  86.565  1.00  0.00     0.189 HD
ATOM     46  H5  UNL     1      64.521  22.706  88.696  1.00  0.00     0.208 HD
BRANCH  41  47
HETATM   47  N1  UNL     1      62.689  19.132  85.621  1.00  0.00    -0.383 N
ATOM     48  H12 UNL     1      62.510  18.350  84.991  1.00  0.00     0.157 HD
ATOM     49  H11 UNL     1      62.714  20.085  85.258  1.00  0.00     0.157 HD
ENDBRANCH  41  47
ENDBRANCH  33  34
ENDBRANCH  32  33
ENDBRANCH  30  32
ENDBRANCH   1  30
BRANCH   2  50
HETATM   50  C9  UNL     1      65.790  22.632  94.465  1.00  0.00     0.309 C
BRANCH  50  51
HETATM   51  O1  UNL     1      66.193  23.103  93.195  1.00  0.00    -0.366 OA
ATOM     52  H1  UNL     1      66.779  23.842  93.304  1.00  0.00     0.213 HD
ENDBRANCH  50  51
BRANCH  50  53
HETATM   53  O2  UNL     1      66.895  22.800  95.307  1.00  0.00    -0.366 OA
ATOM     54  H2  UNL     1      67.661  22.396  94.918  1.00  0.00     0.213 HD
ENDBRANCH  50  53
ENDBRANCH   2  50
TORSDOF 15
ENDMDL