MODEL 3
REMARK VINA RESULT: -8.203706636      2.846      8.994
REMARK  18 active torsions:
REMARK  status: ('A' for Active; 'I' for Inactive)
REMARK    1  A    between atoms: N1_1  and  N2_4
REMARK    2  A    between atoms: C1_6  and  C2_7
REMARK    3  A    between atoms: C3_8  and  C4_9
REMARK    4  A    between atoms: C4_9  and  O1_10
REMARK    5  A    between atoms: C4_9  and  O2_12
REMARK    6  A    between atoms: C5_14  and  O3_15
REMARK    7  A    between atoms: C7_20  and  C8_21
REMARK    8  A    between atoms: C8_21  and  C9_22
REMARK    9  A    between atoms: C8_21  and  N4_43
REMARK   10  A    between atoms: C9_22  and  O6_23
REMARK   11  A    between atoms: O6_23  and  C10_24
REMARK   12  A    between atoms: C10_24  and  C11_26
REMARK   13  A    between atoms: C11_26  and  N3_27
REMARK   14  A    between atoms: C12_28  and  O8_29
REMARK   15  A    between atoms: C14_32  and  C15_33
REMARK   16  A    between atoms: C15_33  and  O9_34
REMARK   17  A    between atoms: C15_33  and  O10_36
REMARK   18  A    between atoms: C16_38  and  O11_39
ROOT
HETATM    1  C8  UNL     1      63.037  19.315  91.938  1.00  0.00     0.053 C
ENDROOT
BRANCH   1   2
HETATM    2  C7  UNL     1      63.186  18.821  90.574  1.00  0.00     0.077 A
HETATM    3  C2  UNL     1      63.296  19.582  89.395  1.00  0.00     0.015 A
HETATM    4  C3  UNL     1      63.195  19.021  88.141  1.00  0.00     0.067 A
HETATM    5  C5  UNL     1      62.982  17.609  88.062  1.00  0.00     0.198 A
HETATM    6  O4  UNL     1      62.890  16.926  89.147  1.00  0.00    -0.250 OA
HETATM    7  C6  UNL     1      62.975  17.433  90.342  1.00  0.00     0.303 A
HETATM    8  O5  UNL     1      62.853  16.635  91.293  1.00  0.00    -0.259 OA
BRANCH   3   9
HETATM    9  C1  UNL     1      63.727  20.949  89.547  1.00  0.00     0.119 C
HETATM   10  N2  UNL     1      64.776  21.439  89.022  1.00  0.00    -0.318 N
ATOM     11  H2  UNL     1      65.342  20.809  88.454  1.00  0.00     0.185 HD
BRANCH  10  12
HETATM   12  N1  UNL     1      65.225  22.738  89.144  1.00  0.00    -0.345 N
ATOM     13  H12 UNL     1      64.622  23.364  89.677  1.00  0.00     0.176 HD
ATOM     14  H11 UNL     1      66.088  23.121  88.758  1.00  0.00     0.176 HD
ENDBRANCH  10  12
ENDBRANCH   3   9
BRANCH   4  15
HETATM   15  C4  UNL     1      63.214  19.766  86.886  1.00  0.00     0.294 C
BRANCH  15  16
HETATM   16  O1  UNL     1      64.443  19.972  86.302  1.00  0.00    -0.367 OA
ATOM     17  H1  UNL     1      64.860  20.811  86.459  1.00  0.00     0.213 HD
ENDBRANCH  15  16
BRANCH  15  18
HETATM   18  O2  UNL     1      62.234  19.346  85.966  1.00  0.00    -0.367 OA
ATOM     19  H2  UNL     1      62.200  19.875  85.177  1.00  0.00     0.213 HD
ENDBRANCH  15  18
ENDBRANCH   4  15
BRANCH   5  20
HETATM   20  O3  UNL     1      62.887  17.048  86.801  1.00  0.00    -0.340 OA
ATOM     21  H3  UNL     1      62.674  16.123  86.748  1.00  0.00     0.220 HD
ENDBRANCH   5  20
ENDBRANCH   1   2
BRANCH   1  22
HETATM   22  C9  UNL     1      61.582  19.557  92.264  1.00  0.00     0.237 C
BRANCH  22  23
HETATM   23  O6  UNL     1      61.093  19.130  93.448  1.00  0.00    -0.311 OA
BRANCH  23  24
HETATM   24  C10 UNL     1      60.740  17.936  93.985  1.00  0.00     0.299 C
HETATM   25  O7  UNL     1      61.618  17.321  94.626  1.00  0.00    -0.259 OA
BRANCH  24  26
HETATM   26  C11 UNL     1      59.377  17.379  93.829  1.00  0.00     0.184 C
BRANCH  26  27
HETATM   27  N3  UNL     1      59.002  16.296  94.639  1.00  0.00    -0.261 N
HETATM   28  C12 UNL     1      59.407  15.026  94.437  1.00  0.00     0.150 A
HETATM   29  C13 UNL     1      58.941  13.982  95.237  1.00  0.00     0.071 A
HETATM   30  C14 UNL     1      58.054  14.207  96.261  1.00  0.00     0.039 A
HETATM   31  C16 UNL     1      57.652  15.508  96.457  1.00  0.00     0.146 A
HETATM   32  C17 UNL     1      58.122  16.494  95.663  1.00  0.00     0.287 A
HETATM   33  O12 UNL     1      57.721  17.677  95.882  1.00  0.00    -0.264 OA
BRANCH  28  34
HETATM   34  O8  UNL     1      60.301  14.735  93.427  1.00  0.00    -0.346 OA
ATOM     35  H8  UNL     1      61.127  15.203  93.370  1.00  0.00     0.219 HD
ENDBRANCH  28  34
BRANCH  30  36
HETATM   36  C15 UNL     1      57.546  13.080  97.088  1.00  0.00     0.291 C
BRANCH  36  37
HETATM   37  O9  UNL     1      57.710  13.261  98.443  1.00  0.00    -0.367 OA
ATOM     38  H9  UNL     1      58.326  12.658  98.842  1.00  0.00     0.213 HD
ENDBRANCH  36  37
BRANCH  36  39
HETATM   39  O10 UNL     1      56.169  12.880  96.820  1.00  0.00    -0.367 OA
ATOM     40  H10 UNL     1      55.833  12.191  97.383  1.00  0.00     0.213 HD
ENDBRANCH  36  39
ENDBRANCH  30  36
BRANCH  31  41
HETATM   41  O11 UNL     1      56.746  15.699  97.517  1.00  0.00    -0.355 OA
ATOM     42  H11 UNL     1      57.137  15.983  98.335  1.00  0.00     0.218 HD
ENDBRANCH  31  41
ENDBRANCH  26  27
ENDBRANCH  24  26
ENDBRANCH  23  24
ENDBRANCH  22  23
ENDBRANCH   1  22
BRANCH   1  43
HETATM   43  N4  UNL     1      63.852  18.822  92.948  1.00  0.00    -0.334 N
HETATM   44  C18 UNL     1      64.480  19.508  93.867  1.00  0.00     0.201 C
HETATM   45  N5  UNL     1      65.261  18.796  94.816  1.00  0.00    -0.067 NA
HETATM   46  N6  UNL     1      64.424  20.922  93.916  1.00  0.00    -0.067 NA
ATOM     47  H4  UNL     1      63.976  17.809  92.976  1.00  0.00     0.168 HD
ENDBRANCH   1  43
TORSDOF 18
ENDMDL