MODEL 5
REMARK VINA RESULT: -7.165974951      1.680      2.421
REMARK  16 active torsions:
REMARK  status: ('A' for Active; 'I' for Inactive)
REMARK    1  A    between atoms: C2_2  and  O1_3
REMARK    2  A    between atoms: C2_2  and  C3_5
REMARK    3  A    between atoms: C3_5  and  C4_6
REMARK    4  A    between atoms: C3_5  and  C11_35
REMARK    5  A    between atoms: C4_6  and  O2_7
REMARK    6  A    between atoms: O2_7  and  S1_8
REMARK    7  A    between atoms: S1_8  and  C6_11
REMARK    8  A    between atoms: C7_15  and  N2_16
REMARK    9  A    between atoms: C8_22  and  C9_23
REMARK   10  A    between atoms: C9_23  and  O4_24
REMARK   11  A    between atoms: C10_30  and  N6_31
REMARK   12  A    between atoms: C11_35  and  C12_36
REMARK   13  A    between atoms: C11_35  and  O6_39
REMARK   14  A    between atoms: C12_36  and  O5_37
REMARK   15  A    between atoms: O6_39  and  C13_40
REMARK   16  A    between atoms: C16_45  and  O7_46
ROOT
HETATM    1  S1  UNL     1      62.484  19.649  94.536  1.00  0.00     0.091 S
HETATM    2  C5  UNL     1      60.985  20.429  95.356  1.00  0.00     0.146 C
HETATM    3  O3  UNL     1      63.600  18.700  96.088  1.00  0.00    -0.241 OA
ENDROOT
BRANCH   1   4
HETATM    4  O2  UNL     1      63.158  19.645  93.102  1.00  0.00    -0.274 OA
BRANCH   4   5
HETATM    5  C4  UNL     1      64.176  20.516  92.733  1.00  0.00     0.166 C
BRANCH   5   6
HETATM    6  C3  UNL     1      63.810  21.799  92.177  1.00  0.00     0.025 C
BRANCH   6   7
HETATM    7  C2  UNL     1      63.496  22.866  92.850  1.00  0.00     0.050 C
HETATM    8  C1  UNL     1      64.500  23.645  93.595  1.00  0.00     0.076 C
BRANCH   7   9
HETATM    9  O1  UNL     1      62.168  23.355  92.905  1.00  0.00    -0.365 OA
ATOM     10  H1  UNL     1      61.536  22.789  93.330  1.00  0.00     0.217 HD
ENDBRANCH   7   9
ENDBRANCH   6   7
BRANCH   6  11
HETATM   11  C11 UNL     1      63.833  21.878  90.664  1.00  0.00     0.193 C
BRANCH  11  12
HETATM   12  C12 UNL     1      64.494  23.138  90.157  1.00  0.00     0.201 C
BRANCH  12  13
HETATM   13  O5  UNL     1      64.509  23.303  88.791  1.00  0.00    -0.398 OA
ATOM     14  H5  UNL     1      65.132  23.936  88.455  1.00  0.00     0.209 HD
ENDBRANCH  12  13
ENDBRANCH  11  12
BRANCH  11  15
HETATM   15  O6  UNL     1      64.326  20.735  90.056  1.00  0.00    -0.310 OA
BRANCH  15  16
HETATM   16  C13 UNL     1      63.694  19.969  89.104  1.00  0.00     0.218 C
HETATM   17  N7  UNL     1      63.341  18.757  89.293  1.00  0.00    -0.348 N
HETATM   18  C14 UNL     1      62.692  18.208  88.098  1.00  0.00     0.129 C
ATOM     19  H7  UNL     1      63.490  18.239  90.159  1.00  0.00     0.163 HD
HETATM   20  C15 UNL     1      63.094  16.787  87.839  1.00  0.00     0.036 C
HETATM   21  C16 UNL     1      63.238  19.141  87.005  1.00  0.00     0.243 C
HETATM   22  N8  UNL     1      63.323  20.369  87.766  1.00  0.00    -0.328 N
ATOM     23  H8  UNL     1      63.156  21.317  87.429  1.00  0.00     0.165 HD
BRANCH  21  24
HETATM   24  O7  UNL     1      62.342  19.236  85.950  1.00  0.00    -0.375 OA
ATOM     25  H7  UNL     1      62.141  20.146  85.762  1.00  0.00     0.212 HD
ENDBRANCH  21  24
ENDBRANCH  15  16
ENDBRANCH  11  15
ENDBRANCH   6  11
ENDBRANCH   5   6
ENDBRANCH   4   5
ENDBRANCH   1   4
BRANCH   1  26
HETATM   26  C6  UNL     1      61.759  17.923  94.404  1.00  0.00     0.347 C
HETATM   27  N1  UNL     1      60.936  17.486  95.552  1.00  0.00    -0.009 N
HETATM   28  C7  UNL     1      60.891  16.065  95.681  1.00  0.00     0.481 C
ATOM     29  H12 UNL     1      61.251  17.924  96.418  1.00  0.00     0.283 HD
ATOM     30  H11 UNL     1      59.997  17.881  95.503  1.00  0.00     0.283 HD
HETATM   31  N3  UNL     1      61.065  15.334  94.476  1.00  0.00    -0.350 N
HETATM   32  C8  UNL     1      59.969  15.311  93.575  1.00  0.00     0.219 C
ATOM     33  H3  UNL     1      61.938  14.849  94.267  1.00  0.00     0.159 HD
HETATM   34  N4  UNL     1      59.015  16.332  93.697  1.00  0.00    -0.314 N
HETATM   35  N5  UNL     1      59.412  17.625  93.644  1.00  0.00    -0.306 N
ATOM     36  H4  UNL     1      58.030  16.102  93.825  1.00  0.00     0.182 HD
HETATM   37  C10 UNL     1      60.738  17.905  93.246  1.00  0.00     0.341 C
ATOM     38  H5  UNL     1      58.769  18.380  93.885  1.00  0.00     0.182 HD
BRANCH  28  39
HETATM   39  N2  UNL     1      59.680  15.726  96.410  1.00  0.00    -0.033 N
ATOM     40  H23 UNL     1      59.791  15.807  97.421  1.00  0.00     0.278 HD
ATOM     41  H22 UNL     1      58.942  16.421  96.299  1.00  0.00     0.278 HD
ATOM     42  H21 UNL     1      59.393  14.792  96.117  1.00  0.00     0.278 HD
ENDBRANCH  28  39
BRANCH  32  43
HETATM   43  C9  UNL     1      59.246  13.968  93.770  1.00  0.00     0.211 C
BRANCH  43  44
HETATM   44  O4  UNL     1      59.247  13.261  92.549  1.00  0.00    -0.397 OA
ATOM     45  H4  UNL     1      58.441  12.764  92.477  1.00  0.00     0.209 HD
ENDBRANCH  43  44
ENDBRANCH  32  43
BRANCH  37  46
HETATM   46  N6  UNL     1      60.725  19.192  92.546  1.00  0.00    -0.054 N
ATOM     47  H63 UNL     1      59.778  19.559  92.448  1.00  0.00     0.276 HD
ATOM     48  H62 UNL     1      61.120  19.937  93.119  1.00  0.00     0.276 HD
ATOM     49  H61 UNL     1      61.196  19.118  91.644  1.00  0.00     0.276 HD
ENDBRANCH  37  46
ENDBRANCH   1  26
TORSDOF 16
ENDMDL