MODEL 1
REMARK VINA RESULT: -7.851859369      0.000      0.000
REMARK  16 active torsions:
REMARK  status: ('A' for Active; 'I' for Inactive)
REMARK    1  A    between atoms: N1_1  and  N2_4
REMARK    2  A    between atoms: N2_4  and  C1_6
REMARK    3  A    between atoms: C1_6  and  O1_7
REMARK    4  A    between atoms: C1_6  and  N3_9
REMARK    5  A    between atoms: N3_9  and  C2_11
REMARK    6  A    between atoms: C4_13  and  C5_14
REMARK    7  A    between atoms: C6_18  and  C7_19
REMARK    8  A    between atoms: C7_19  and  C8_20
REMARK    9  A    between atoms: C8_20  and  O4_21
REMARK   10  A    between atoms: C8_20  and  C9_23
REMARK   11  A    between atoms: C9_23  and  O5_24
REMARK   12  A    between atoms: C9_23  and  C10_26
REMARK   13  A    between atoms: C10_26  and  O6_27
REMARK   14  A    between atoms: C11_30  and  O8_31
REMARK   15  A    between atoms: C11_30  and  S1_33
REMARK   16  A    between atoms: S1_33  and  C12_34
ROOT
HETATM    1  C2  UNL     1      63.557  19.734  93.558  1.00  0.00     0.028 C
HETATM    2  C3  UNL     1      62.975  20.096  94.858  1.00  0.00     0.102 C
HETATM    3  C4  UNL     1      62.204  18.878  95.311  1.00  0.00     0.332 C
HETATM    4  N4  UNL     1      62.196  17.943  94.238  1.00  0.00     0.149 N
HETATM    5  C6  UNL     1      60.886  17.601  93.731  1.00  0.00     0.366 C
HETATM    6  O7  UNL     1      60.833  17.914  92.390  1.00  0.00    -0.308 OA
HETATM    7  C11 UNL     1      62.005  18.546  92.032  1.00  0.00     0.261 C
HETATM    8  C15 UNL     1      62.980  18.438  93.152  1.00  0.00     0.346 C
ENDROOT
BRANCH   7   9
HETATM    9  O8  UNL     1      61.785  19.898  91.752  1.00  0.00    -0.355 OA
ATOM     10  H8  UNL     1      62.560  20.417  91.934  1.00  0.00     0.214 HD
ENDBRANCH   7   9
BRANCH   7  11
HETATM   11  S1  UNL     1      62.691  17.686  90.591  1.00  0.00    -0.023 SA
BRANCH  11  12
HETATM   12  C12 UNL     1      63.105  18.793  89.266  1.00  0.00     0.167 A
HETATM   13  N5  UNL     1      62.765  18.569  87.987  1.00  0.00    -0.310 N
HETATM   14  C13 UNL     1      63.099  19.433  87.014  1.00  0.00     0.208 A
ATOM     15  H5  UNL     1      62.242  17.725  87.749  1.00  0.00     0.170 HD
HETATM   16  N6  UNL     1      62.745  19.209  85.656  1.00  0.00    -0.063 NA
HETATM   17  N7  UNL     1      63.788  20.549  87.307  1.00  0.00    -0.163 N
HETATM   18  C14 UNL     1      64.123  20.762  88.590  1.00  0.00     0.680 A
ATOM     19  H7  UNL     1      64.049  21.213  86.578  1.00  0.00     0.187 HD
HETATM   20  N8  UNL     1      64.786  21.821  88.909  1.00  0.00    -0.234 N
HETATM   21  N9  UNL     1      63.792  19.905  89.564  1.00  0.00    -0.170 N
ATOM     22  H82 UNL     1      65.039  22.473  88.166  1.00  0.00     0.174 HD
ATOM     23  H81 UNL     1      65.040  21.983  89.884  1.00  0.00     0.174 HD
ATOM     24  H9  UNL     1      64.061  20.098  90.529  1.00  0.00     0.186 HD
ENDBRANCH  11  12
ENDBRANCH   7  11
BRANCH   5  25
HETATM   25  C7  UNL     1      60.769  16.098  93.869  1.00  0.00     0.099 C
BRANCH  25  26
HETATM   26  C8  UNL     1      59.446  15.622  94.363  1.00  0.00     0.153 C
BRANCH  26  27
HETATM   27  O4  UNL     1      58.479  16.155  93.479  1.00  0.00    -0.393 OA
ATOM     28  H4  UNL     1      57.762  16.459  94.022  1.00  0.00     0.210 HD
ENDBRANCH  26  27
BRANCH  26  29
HETATM   29  C9  UNL     1      59.365  14.110  94.195  1.00  0.00     0.170 C
BRANCH  29  30
HETATM   30  O5  UNL     1      58.817  13.755  92.983  1.00  0.00    -0.391 OA
ATOM     31  H5  UNL     1      59.331  13.088  92.542  1.00  0.00     0.210 HD
ENDBRANCH  29  30
BRANCH  29  32
HETATM   32  C10 UNL     1      58.506  13.531  95.314  1.00  0.00     0.198 C
BRANCH  32  33
HETATM   33  O6  UNL     1      57.704  14.495  95.881  1.00  0.00    -0.398 OA
ATOM     34  H6  UNL     1      56.903  14.616  95.385  1.00  0.00     0.209 HD
ENDBRANCH  32  33
ENDBRANCH  29  32
ENDBRANCH  26  29
ENDBRANCH  25  26
ENDBRANCH   5  25
BRANCH   1  35
HETATM   35  N3  UNL     1      64.400  20.395  92.890  1.00  0.00    -0.351 N
ATOM     36  H3  UNL     1      65.115  19.857  92.401  1.00  0.00     0.163 HD
BRANCH  35  37
HETATM   37  C1  UNL     1      64.461  21.802  92.747  1.00  0.00     0.341 C
BRANCH  37  38
HETATM   38  N2  UNL     1      63.269  22.295  92.077  1.00  0.00    -0.297 N
ATOM     39  H2  UNL     1      63.133  22.093  91.086  1.00  0.00     0.184 HD
BRANCH  38  40
HETATM   40  N1  UNL     1      62.413  22.956  92.686  1.00  0.00    -0.346 N
ATOM     41  H12 UNL     1      62.705  23.489  93.505  1.00  0.00     0.176 HD
ATOM     42  H11 UNL     1      61.439  22.971  92.382  1.00  0.00     0.176 HD
ENDBRANCH  38  40
ENDBRANCH  37  38
BRANCH  37  43
HETATM   43  O1  UNL     1      65.579  22.169  91.981  1.00  0.00    -0.359 OA
ATOM     44  H1  UNL     1      66.339  21.721  92.332  1.00  0.00     0.214 HD
ENDBRANCH  37  43
ENDBRANCH  35  37
ENDBRANCH   1  35
BRANCH   3  45
HETATM   45  C5  UNL     1      62.891  18.293  96.489  1.00  0.00     0.208 C
HETATM   46  O2  UNL     1      62.341  18.361  97.614  1.00  0.00    -0.646 OA
HETATM   47  O3  UNL     1      64.125  17.665  96.424  1.00  0.00    -0.646 OA
ENDBRANCH   3  45
TORSDOF 16
ENDMDL