MODEL 2
REMARK VINA RESULT: -9.110031056      1.102      1.514
REMARK  13 active torsions:
REMARK  status: ('A' for Active; 'I' for Inactive)
REMARK    1  A    between atoms: N1_1  and  C1_4
REMARK    2  A    between atoms: C6_12  and  N3_13
REMARK    3  A    between atoms: N3_13  and  C7_15
REMARK    4  A    between atoms: C7_15  and  O2_16
REMARK    5  A    between atoms: C7_15  and  C8_18
REMARK    6  A    between atoms: C8_18  and  O3_19
REMARK    7  A    between atoms: C8_18  and  C10_27
REMARK    8  A    between atoms: O3_19  and  C9_20
REMARK       I    between atoms: C9_20  and  N4_22
REMARK    9  A    between atoms: N4_22  and  N5_24
REMARK   10  A    between atoms: C10_27  and  O5_28
REMARK   11  A    between atoms: C10_27  and  C11_30
REMARK   12  A    between atoms: C11_30  and  N6_31
REMARK   13  A    between atoms: C12_35  and  C13_36
ROOT
HETATM    1  C8  UNL     1      63.384  21.621  89.702  1.00  0.00     0.212 C
ENDROOT
BRANCH   1   2
HETATM    2  C7  UNL     1      64.205  22.829  89.374  1.00  0.00     0.251 C
BRANCH   2   3
HETATM    3  N3  UNL     1      65.591  22.563  89.704  1.00  0.00    -0.348 N
ATOM      4  H3  UNL     1      65.964  21.623  89.573  1.00  0.00     0.163 HD
BRANCH   3   5
HETATM    5  C6  UNL     1      66.452  23.596  90.211  1.00  0.00     0.104 A
HETATM    6  C5  UNL     1      67.225  23.407  91.334  1.00  0.00     0.049 A
HETATM    7  C4  UNL     1      68.060  24.415  91.820  1.00  0.00     0.025 A
HETATM    8  C3  UNL     1      68.128  25.636  91.175  1.00  0.00     0.077 A
HETATM    9  C2  UNL     1      68.943  26.660  91.625  1.00  0.00     0.273 A
HETATM   10  C15 UNL     1      67.340  25.791  90.052  1.00  0.00     0.138 A
HETATM   11  N2  UNL     1      68.967  27.827  90.955  1.00  0.00    -0.156 N
HETATM   12  O1  UNL     1      69.657  26.491  92.661  1.00  0.00    -0.267 OA
HETATM   13  C1  UNL     1      68.194  27.968  89.862  1.00  0.00     0.680 A
ATOM     14  H2  UNL     1      69.562  28.593  91.271  1.00  0.00     0.187 HD
HETATM   15  N14 UNL     1      67.399  26.976  89.417  1.00  0.00    -0.176 N
ATOM     16  H14 UNL     1      66.830  27.126  88.583  1.00  0.00     0.186 HD
HETATM   17  N13 UNL     1      66.530  24.788  89.596  1.00  0.00    -0.328 N
ATOM     18  H13 UNL     1      65.967  24.951  88.762  1.00  0.00     0.169 HD
BRANCH  13  19
HETATM   19  N1  UNL     1      68.218  29.087  89.221  1.00  0.00    -0.234 N
ATOM     20  H12 UNL     1      69.085  29.622  89.192  1.00  0.00     0.174 HD
ATOM     21  H11 UNL     1      67.367  29.409  88.760  1.00  0.00     0.174 HD
ENDBRANCH  13  19
ENDBRANCH   3   5
ENDBRANCH   2   3
BRANCH   2  22
HETATM   22  O2  UNL     1      64.052  23.274  88.073  1.00  0.00    -0.374 OA
ATOM     23  H2  UNL     1      63.596  22.643  87.529  1.00  0.00     0.212 HD
ENDBRANCH   2  22
ENDBRANCH   1   2
BRANCH   1  24
HETATM   24  O3  UNL     1      64.053  20.471  89.224  1.00  0.00    -0.290 OA
BRANCH  24  25
HETATM   25  C9  UNL     1      63.565  19.746  88.151  1.00  0.00     0.379 C
HETATM   26  O4  UNL     1      63.607  20.307  87.015  1.00  0.00    -0.237 OA
HETATM   27  N4  UNL     1      63.036  18.433  88.281  1.00  0.00    -0.252 N
ATOM     28  H4  UNL     1      63.002  17.983  89.195  1.00  0.00     0.191 HD
BRANCH  27  29
HETATM   29  N5  UNL     1      62.562  17.765  87.154  1.00  0.00    -0.341 N
ATOM     30  H52 UNL     1      63.144  17.050  86.719  1.00  0.00     0.177 HD
ATOM     31  H51 UNL     1      61.643  17.998  86.778  1.00  0.00     0.177 HD
ENDBRANCH  27  29
ENDBRANCH  24  25
ENDBRANCH   1  24
BRANCH   1  32
HETATM   32  C10 UNL     1      63.148  21.418  91.171  1.00  0.00     0.173 C
BRANCH  32  33
HETATM   33  O5  UNL     1      63.751  22.372  91.969  1.00  0.00    -0.391 OA
ATOM     34  H5  UNL     1      64.699  22.369  91.919  1.00  0.00     0.210 HD
ENDBRANCH  32  33
BRANCH  32  35
HETATM   35  C11 UNL     1      63.594  20.033  91.598  1.00  0.00     0.201 C
BRANCH  35  36
HETATM   36  N6  UNL     1      62.406  19.293  91.966  1.00  0.00    -0.214 N
HETATM   37  N7  UNL     1      61.148  19.557  91.661  1.00  0.00    -0.003 NA
HETATM   38  N8  UNL     1      60.343  18.628  92.194  1.00  0.00    -0.264 N
HETATM   39  C12 UNL     1      61.115  17.756  92.850  1.00  0.00     0.180 A
ATOM     40  H8  UNL     1      59.327  18.591  92.113  1.00  0.00     0.186 HD
HETATM   41  N12 UNL     1      62.374  18.190  92.692  1.00  0.00    -0.266 N
ATOM     42  H12 UNL     1      63.198  17.730  93.082  1.00  0.00     0.190 HD
BRANCH  39  43
HETATM   43  C13 UNL     1      60.705  16.559  93.600  1.00  0.00     0.171 A
HETATM   44  N9  UNL     1      59.592  15.829  93.413  1.00  0.00    -0.289 N
HETATM   45  C14 UNL     1      59.576  14.811  94.299  1.00  0.00     0.340 A
ATOM     46  H9  UNL     1      58.873  16.015  92.714  1.00  0.00     0.172 HD
HETATM   47  O6  UNL     1      58.728  13.904  94.467  1.00  0.00    -0.245 OA
HETATM   48  N10 UNL     1      60.719  14.948  95.031  1.00  0.00    -0.250 N
HETATM   49  N11 UNL     1      61.388  15.997  94.605  1.00  0.00    -0.278 N
ATOM     50  H10 UNL     1      61.008  14.332  95.791  1.00  0.00     0.192 HD
ATOM     51  H11 UNL     1      62.278  16.327  94.978  1.00  0.00     0.189 HD
ENDBRANCH  39  43
ENDBRANCH  35  36
ENDBRANCH  32  35
ENDBRANCH   1  32
TORSDOF 13
ENDMDL