MODEL 1
REMARK VINA RESULT: -8.127478421      0.000      0.000
REMARK  12 active torsions:
REMARK  status: ('A' for Active; 'I' for Inactive)
REMARK    1  A    between atoms: C2_10  and  C3_11
REMARK       I    between atoms: N5_15  and  C5_17
REMARK       I    between atoms: C5_17  and  N6_18
REMARK       I    between atoms: C5_17  and  N7_22
REMARK    2  A    between atoms: N8_28  and  C8_29
REMARK    3  A    between atoms: C9_30  and  O2_31
REMARK    4  A    between atoms: C10_34  and  C11_35
REMARK    5  A    between atoms: C11_35  and  C12_36
REMARK    6  A    between atoms: C12_36  and  C13_37
REMARK    7  A    between atoms: C12_36  and  O5_40
REMARK    8  A    between atoms: C13_37  and  O4_38
REMARK    9  A    between atoms: O5_40  and  N9_41
REMARK   10  A    between atoms: C14_44  and  O6_45
REMARK   11  A    between atoms: C14_44  and  C15_47
REMARK   12  A    between atoms: C15_47  and  O7_48
ROOT
HETATM    1  C3  UNL     1      63.147  19.371  90.153  1.00  0.00     0.141 A
HETATM    2  N4  UNL     1      63.831  20.112  91.076  1.00  0.00    -0.326 N
ATOM      3  H4  UNL     1      64.480  20.827  90.746  1.00  0.00     0.169 HD
HETATM    4  C4  UNL     1      63.680  19.936  92.401  1.00  0.00     0.121 A
HETATM    5  N5  UNL     1      64.304  20.613  93.290  1.00  0.00    -0.326 N
ATOM      6  H5  UNL     1      64.128  20.412  94.275  1.00  0.00     0.164 HD
HETATM    7  C5  UNL     1      65.257  21.659  92.946  1.00  0.00     0.481 C
HETATM    8  N6  UNL     1      65.724  22.337  94.114  1.00  0.00    -0.033 N
ATOM      9  H61 UNL     1      66.391  23.069  93.873  1.00  0.00     0.278 HD
ATOM     10  H62 UNL     1      66.112  21.685  94.796  1.00  0.00     0.278 HD
ATOM     11  H63 UNL     1      64.950  22.703  94.670  1.00  0.00     0.278 HD
HETATM   12  N7  UNL     1      64.635  22.655  92.079  1.00  0.00    -0.033 N
ATOM     13  H71 UNL     1      65.302  23.387  91.838  1.00  0.00     0.278 HD
ATOM     14  H72 UNL     1      63.784  23.038  92.492  1.00  0.00     0.278 HD
ATOM     15  H73 UNL     1      64.222  22.229  91.249  1.00  0.00     0.278 HD
HETATM   16  C6  UNL     1      62.797  18.967  92.831  1.00  0.00     0.070 A
HETATM   17  C7  UNL     1      62.417  18.541  94.085  1.00  0.00     0.130 A
HETATM   18  N8  UNL     1      61.519  17.561  93.971  1.00  0.00    -0.288 N
HETATM   19  N10 UNL     1      61.325  17.358  92.657  1.00  0.00    -0.282 N
ATOM     20  H10 UNL     1      60.688  16.665  92.266  1.00  0.00     0.189 HD
HETATM   21  C16 UNL     1      62.085  18.195  91.927  1.00  0.00     0.137 A
HETATM   22  N11 UNL     1      62.301  18.442  90.633  1.00  0.00    -0.325 N
ATOM     23  H11 UNL     1      61.785  17.882  89.955  1.00  0.00     0.169 HD
ENDROOT
BRANCH  18  24
HETATM   24  C8  UNL     1      60.866  16.838  94.981  1.00  0.00     0.201 C
HETATM   25  C9  UNL     1      61.012  15.355  94.981  1.00  0.00     0.285 C
HETATM   26  O3  UNL     1      59.782  14.804  95.389  1.00  0.00    -0.351 OA
HETATM   27  C10 UNL     1      59.099  15.840  95.959  1.00  0.00     0.166 C
HETATM   28  C14 UNL     1      59.345  16.970  95.003  1.00  0.00     0.132 C
BRANCH  25  29
HETATM   29  O2  UNL     1      61.339  14.787  93.784  1.00  0.00    -0.369 OA
ATOM     30  H2  UNL     1      61.092  13.877  93.674  1.00  0.00     0.212 HD
ENDBRANCH  25  29
BRANCH  27  31
HETATM   31  C11 UNL     1      57.737  15.628  96.402  1.00  0.00     0.072 C
BRANCH  31  32
HETATM   32  C12 UNL     1      57.409  14.534  97.332  1.00  0.00     0.177 C
BRANCH  32  33
HETATM   33  C13 UNL     1      56.568  14.973  98.509  1.00  0.00     0.198 C
BRANCH  33  34
HETATM   34  O4  UNL     1      55.936  16.190  98.271  1.00  0.00    -0.398 OA
ATOM     35  H4  UNL     1      56.349  16.903  98.745  1.00  0.00     0.209 HD
ENDBRANCH  33  34
ENDBRANCH  32  33
BRANCH  32  36
HETATM   36  O5  UNL     1      56.607  13.610  96.623  1.00  0.00    -0.280 OA
BRANCH  36  37
HETATM   37  N9  UNL     1      56.207  12.592  97.411  1.00  0.00    -0.311 N
ATOM     38  H92 UNL     1      55.228  12.395  97.620  1.00  0.00     0.184 HD
ATOM     39  H91 UNL     1      57.000  12.055  97.763  1.00  0.00     0.184 HD
ENDBRANCH  36  37
ENDBRANCH  32  36
ENDBRANCH  31  32
ENDBRANCH  27  31
BRANCH  28  40
HETATM   40  O6  UNL     1      58.918  16.757  93.719  1.00  0.00    -0.383 OA
ATOM     41  H6  UNL     1      59.066  15.837  93.535  1.00  0.00     0.210 HD
ENDBRANCH  28  40
BRANCH  28  42
HETATM   42  C15 UNL     1      58.922  18.307  95.559  1.00  0.00     0.207 C
BRANCH  42  43
HETATM   43  O7  UNL     1      58.136  18.992  94.645  1.00  0.00    -0.398 OA
ATOM     44  H7  UNL     1      58.261  18.647  93.768  1.00  0.00     0.209 HD
ENDBRANCH  42  43
ENDBRANCH  28  42
ENDBRANCH  18  24
BRANCH   1  45
HETATM   45  C2  UNL     1      63.337  19.590  88.728  1.00  0.00     0.146 A
HETATM   46  C1  UNL     1      63.929  20.634  88.062  1.00  0.00     0.154 A
HETATM   47  N1  UNL     1      64.457  21.677  88.613  1.00  0.00    -0.382 N
HETATM   48  N2  UNL     1      63.860  20.377  86.721  1.00  0.00    -0.224 N
ATOM     49  H12 UNL     1      64.897  22.452  88.118  1.00  0.00     0.157 HD
ATOM     50  H11 UNL     1      64.508  21.869  89.613  1.00  0.00     0.157 HD
HETATM   51  O1  UNL     1      63.254  19.231  86.591  1.00  0.00    -0.155 OA
ATOM     52  H2  UNL     1      64.214  20.968  85.968  1.00  0.00     0.198 HD
HETATM   53  N3  UNL     1      62.933  18.742  87.775  1.00  0.00    -0.234 N
ATOM     54  H3  UNL     1      62.452  17.858  87.937  1.00  0.00     0.197 HD
ENDBRANCH   1  45
TORSDOF 12
ENDMDL