MODEL 4
REMARK VINA RESULT: -6.841713715      1.538      1.871
REMARK  16 active torsions:
REMARK  status: ('A' for Active; 'I' for Inactive)
REMARK    1  A    between atoms: C3_4  and  N1_5
REMARK    2  A    between atoms: C5_11  and  N4_12
REMARK    3  A    between atoms: C9_23  and  C10_24
REMARK    4  A    between atoms: C10_24  and  N8_25
REMARK    5  A    between atoms: C10_24  and  C13_31
REMARK    6  A    between atoms: C11_27  and  C12_28
REMARK    7  A    between atoms: C12_28  and  O3_29
REMARK    8  A    between atoms: C13_31  and  O4_32
REMARK    9  A    between atoms: C13_31  and  C14_34
REMARK   10  A    between atoms: C14_34  and  O5_35
REMARK   11  A    between atoms: C14_34  and  C15_37
REMARK   12  A    between atoms: C15_37  and  O6_38
REMARK   13  A    between atoms: C15_37  and  C16_40
REMARK   14  A    between atoms: C16_40  and  O7_41
REMARK   15  A    between atoms: C17_43  and  O8_44
REMARK   16  A    between atoms: O8_44  and  N9_45
ROOT
HETATM    1  C1  UNL     1      64.586  22.605  93.796  1.00  0.00     0.042 C
HETATM    2  C2  UNL     1      63.799  21.597  93.018  1.00  0.00     0.156 C
HETATM    3  O1  UNL     1      64.617  20.514  92.743  1.00  0.00    -0.335 OA
HETATM    4  C3  UNL     1      64.021  19.465  92.101  1.00  0.00     0.395 C
HETATM    5  O2  UNL     1      62.837  19.008  92.647  1.00  0.00    -0.332 OA
HETATM    6  C9  UNL     1      62.021  19.947  93.193  1.00  0.00     0.185 C
HETATM    7  C17 UNL     1      62.718  21.024  93.962  1.00  0.00     0.211 C
ENDROOT
BRANCH   6   8
HETATM    8  C10 UNL     1      61.080  19.207  94.122  1.00  0.00     0.144 C
BRANCH   8   9
HETATM    9  N8  UNL     1      60.121  20.016  94.746  1.00  0.00    -0.390 N
HETATM   10  C11 UNL     1      59.875  20.206  95.954  1.00  0.00     0.082 C
ATOM     11  H8  UNL     1      59.523  20.537  94.104  1.00  0.00     0.159 HD
BRANCH  10  12
HETATM   12  C12 UNL     1      58.785  21.130  96.350  1.00  0.00     0.208 C
BRANCH  12  13
HETATM   13  O3  UNL     1      59.299  22.405  96.585  1.00  0.00    -0.396 OA
ATOM     14  H3  UNL     1      58.605  23.052  96.532  1.00  0.00     0.209 HD
ENDBRANCH  12  13
ENDBRANCH  10  12
ENDBRANCH   8   9
BRANCH   8  15
HETATM   15  C13 UNL     1      60.394  18.083  93.371  1.00  0.00     0.174 C
BRANCH  15  16
HETATM   16  O4  UNL     1      59.012  18.142  93.491  1.00  0.00    -0.391 OA
ATOM     17  H4  UNL     1      58.583  17.431  93.029  1.00  0.00     0.210 HD
ENDBRANCH  15  16
BRANCH  15  18
HETATM   18  C14 UNL     1      60.833  16.735  93.885  1.00  0.00     0.179 C
BRANCH  18  19
HETATM   19  O5  UNL     1      61.633  16.042  92.978  1.00  0.00    -0.390 OA
ATOM     20  H5  UNL     1      61.685  15.113  93.165  1.00  0.00     0.210 HD
ENDBRANCH  18  19
BRANCH  18  21
HETATM   21  C15 UNL     1      59.549  15.965  94.175  1.00  0.00     0.173 C
BRANCH  21  22
HETATM   22  O6  UNL     1      59.281  15.139  93.085  1.00  0.00    -0.391 OA
ATOM     23  H6  UNL     1      59.587  14.265  93.293  1.00  0.00     0.210 HD
ENDBRANCH  21  22
BRANCH  21  24
HETATM   24  C16 UNL     1      59.759  15.185  95.430  1.00  0.00     0.198 C
BRANCH  24  25
HETATM   25  O7  UNL     1      61.133  15.242  95.731  1.00  0.00    -0.398 OA
ATOM     26  H7  UNL     1      61.250  14.849  96.587  1.00  0.00     0.209 HD
ENDBRANCH  24  25
ENDBRANCH  21  24
ENDBRANCH  18  21
ENDBRANCH  15  18
ENDBRANCH   8  15
ENDBRANCH   6   8
BRANCH   7  27
HETATM   27  O8  UNL     1      63.393  20.584  95.072  1.00  0.00    -0.277 OA
BRANCH  27  28
HETATM   28  N9  UNL     1      63.114  21.252  96.211  1.00  0.00    -0.311 N
ATOM     29  H92 UNL     1      63.458  20.933  97.116  1.00  0.00     0.184 HD
ATOM     30  H91 UNL     1      62.541  22.087  96.091  1.00  0.00     0.184 HD
ENDBRANCH  27  28
ENDBRANCH   7  27
BRANCH   4  31
HETATM   31  N1  UNL     1      63.787  19.751  90.724  1.00  0.00    -0.220 N
HETATM   32  N2  UNL     1      63.851  20.939  90.144  1.00  0.00    -0.235 N
HETATM   33  N3  UNL     1      63.586  20.875  88.873  1.00  0.00    -0.280 N
ATOM     34  H2  UNL     1      64.082  21.802  90.637  1.00  0.00     0.208 HD
HETATM   35  C4  UNL     1      63.334  19.604  88.580  1.00  0.00     0.123 A
ATOM     36  H3  UNL     1      63.574  21.658  88.220  1.00  0.00     0.188 HD
HETATM   37  C5  UNL     1      62.996  18.894  87.438  1.00  0.00     0.131 A
HETATM   38  C8  UNL     1      63.460  18.894  89.750  1.00  0.00     0.117 A
HETATM   39  N5  UNL     1      62.795  17.565  87.448  1.00  0.00    -0.328 N
HETATM   40  C6  UNL     1      62.913  16.844  88.576  1.00  0.00     0.144 A
ATOM     41  H5  UNL     1      62.548  17.093  86.578  1.00  0.00     0.168 HD
HETATM   42  N6  UNL     1      62.701  15.451  88.578  1.00  0.00    -0.081 NA
HETATM   43  C7  UNL     1      63.252  17.552  89.731  1.00  0.00     0.118 A
HETATM   44  N7  UNL     1      63.373  16.801  90.914  1.00  0.00    -0.096 NA
BRANCH  37  45
HETATM   45  N4  UNL     1      62.877  19.577  86.329  1.00  0.00    -0.383 N
ATOM     46  H42 UNL     1      62.440  20.498  86.332  1.00  0.00     0.157 HD
ATOM     47  H41 UNL     1      63.239  19.145  85.479  1.00  0.00     0.157 HD
ENDBRANCH  37  45
ENDBRANCH   4  31
TORSDOF 16
ENDMDL