MODEL 2
REMARK VINA RESULT: -8.268681372      1.222      1.450
REMARK  17 active torsions:
REMARK  status: ('A' for Active; 'I' for Inactive)
REMARK    1  A    between atoms: N1_1  and  C1_4
REMARK    2  A    between atoms: C2_7  and  N3_8
REMARK       I    between atoms: N3_8  and  C3_10
REMARK       I    between atoms: C3_10  and  N4_12
REMARK    3  A    between atoms: N4_12  and  C4_14
REMARK    4  A    between atoms: C4_14  and  C5_15
REMARK    5  A    between atoms: C5_15  and  N5_16
REMARK    6  A    between atoms: C6_21  and  C7_22
REMARK    7  A    between atoms: C7_22  and  N8_23
REMARK    8  A    between atoms: N8_23  and  C8_26
REMARK    9  A    between atoms: C8_26  and  O2_27
REMARK   10  A    between atoms: C8_26  and  C9_29
REMARK   11  A    between atoms: C11_31  and  O3_32
REMARK   12  A    between atoms: C12_35  and  C13_36
REMARK   13  A    between atoms: C13_36  and  O5_37
REMARK   14  A    between atoms: C13_36  and  O6_39
REMARK   15  A    between atoms: C15_44  and  N10_45
REMARK   16  A    between atoms: N11_47  and  N12_49
REMARK   17  A    between atoms: N13_52  and  N14_53
ROOT
HETATM    1  C5  UNL     1      62.655  18.925  94.604  1.00  0.00     0.191 C
ENDROOT
BRANCH   1   2
HETATM    2  C4  UNL     1      62.299  18.965  96.093  1.00  0.00     0.147 C
BRANCH   2   3
HETATM    3  N4  UNL     1      62.921  17.949  96.833  1.00  0.00    -0.341 N
HETATM    4  C3  UNL     1      62.509  16.996  97.720  1.00  0.00     0.321 C
HETATM    5  N3  UNL     1      60.806  17.415  97.581  1.00  0.00    -0.294 N
HETATM    6  O1  UNL     1      62.157  16.180  98.478  1.00  0.00    -0.247 OA
ATOM      7  H3  UNL     1      60.272  18.059  98.164  1.00  0.00     0.172 HD
ATOM      8  H4  UNL     1      63.926  17.912  96.667  1.00  0.00     0.164 HD
BRANCH   5   9
HETATM    9  C2  UNL     1      60.398  16.747  96.607  1.00  0.00     0.128 A
HETATM   10  N2  UNL     1      60.907  15.631  96.063  1.00  0.00    -0.175 N
HETATM   11  C1  UNL     1      60.500  15.073  94.954  1.00  0.00     0.700 A
ATOM     12  H2  UNL     1      61.677  15.181  96.556  1.00  0.00     0.186 HD
HETATM   13  N13 UNL     1      59.470  15.624  94.245  1.00  0.00    -0.075 N
HETATM   14  C15 UNL     1      58.898  16.754  94.737  1.00  0.00     0.164 A
HETATM   15  C14 UNL     1      59.342  17.312  95.889  1.00  0.00     0.101 A
BRANCH  11  16
HETATM   16  N1  UNL     1      61.066  14.013  94.495  1.00  0.00    -0.233 N
ATOM     17  H12 UNL     1      60.499  13.176  94.360  1.00  0.00     0.174 HD
ATOM     18  H11 UNL     1      62.057  14.006  94.253  1.00  0.00     0.174 HD
ENDBRANCH  11  16
BRANCH  13  19
HETATM   19  N14 UNL     1      59.013  15.055  93.078  1.00  0.00    -0.322 N
ATOM     20 2H14 UNL     1      59.348  15.382  92.172  1.00  0.00     0.178 HD
ATOM     21 1H14 UNL     1      58.325  14.302  93.084  1.00  0.00     0.178 HD
ENDBRANCH  13  19
BRANCH  14  22
HETATM   22  N10 UNL     1      57.823  17.384  94.031  1.00  0.00    -0.269 N
HETATM   23  N11 UNL     1      58.001  18.327  93.214  1.00  0.00    -0.248 N
ATOM     24  H11 UNL     1      57.205  18.744  92.731  1.00  0.00     0.207 HD
ATOM     25  H10 UNL     1      56.872  17.055  94.196  1.00  0.00     0.190 HD
BRANCH  23  26
HETATM   26  N12 UNL     1      59.286  18.795  92.974  1.00  0.00    -0.331 N
ATOM     27 2H12 UNL     1      59.914  18.246  92.386  1.00  0.00     0.178 HD
ATOM     28 1H12 UNL     1      59.587  19.678  93.386  1.00  0.00     0.178 HD
ENDBRANCH  23  26
ENDBRANCH  14  22
ENDBRANCH   5   9
ENDBRANCH   2   3
ENDBRANCH   1   2
BRANCH   1  29
HETATM   29  N5  UNL     1      62.585  20.277  94.045  1.00  0.00    -0.217 N
HETATM   30  N6  UNL     1      61.958  21.339  94.399  1.00  0.00    -0.225 N
HETATM   31  N7  UNL     1      62.255  22.373  93.581  1.00  0.00    -0.271 N
ATOM     32  H6  UNL     1      61.319  21.395  95.193  1.00  0.00     0.210 HD
HETATM   33  C6  UNL     1      63.108  21.931  92.679  1.00  0.00     0.139 A
ATOM     34  H7  UNL     1      61.887  23.322  93.649  1.00  0.00     0.190 HD
HETATM   35  N9  UNL     1      63.303  20.628  92.974  1.00  0.00    -0.269 N
ATOM     36  H9  UNL     1      63.913  19.999  92.452  1.00  0.00     0.190 HD
BRANCH  33  37
HETATM   37  C7  UNL     1      63.891  22.608  91.588  1.00  0.00     0.314 C
BRANCH  37  38
HETATM   38  N8  UNL     1      63.347  22.108  90.305  1.00  0.00    -0.038 N
ATOM     39  H82 UNL     1      62.433  21.664  90.399  1.00  0.00     0.281 HD
ATOM     40  H81 UNL     1      63.059  22.853  89.670  1.00  0.00     0.281 HD
BRANCH  38  41
HETATM   41  C8  UNL     1      64.381  21.211  89.730  1.00  0.00     0.356 C
BRANCH  41  42
HETATM   42  O2  UNL     1      65.262  21.986  88.996  1.00  0.00    -0.366 OA
ATOM     43  H2  UNL     1      66.146  21.734  89.235  1.00  0.00     0.212 HD
ENDBRANCH  41  42
BRANCH  41  44
HETATM   44  C9  UNL     1      63.671  20.236  88.847  1.00  0.00     0.037 A
HETATM   45  C10 UNL     1      63.609  20.334  87.467  1.00  0.00     0.078 A
HETATM   46  C11 UNL     1      63.012  19.191  87.013  1.00  0.00     0.183 A
HETATM   47  O4  UNL     1      62.719  18.441  88.012  1.00  0.00    -0.287 OA
HETATM   48  C12 UNL     1      63.097  19.038  89.164  1.00  0.00     0.121 A
BRANCH  46  49
HETATM   49  O3  UNL     1      62.752  18.871  85.656  1.00  0.00    -0.341 OA
ATOM     50  H3  UNL     1      62.045  18.322  85.339  1.00  0.00     0.220 HD
ENDBRANCH  46  49
BRANCH  48  51
HETATM   51  C13 UNL     1      62.846  18.394  90.449  1.00  0.00     0.313 C
BRANCH  51  52
HETATM   52  O5  UNL     1      63.852  18.213  91.327  1.00  0.00    -0.365 OA
ATOM     53  H5  UNL     1      63.715  17.699  92.113  1.00  0.00     0.213 HD
ENDBRANCH  51  52
BRANCH  51  54
HETATM   54  O6  UNL     1      61.666  18.920  91.053  1.00  0.00    -0.365 OA
ATOM     55  H6  UNL     1      60.895  18.664  90.561  1.00  0.00     0.213 HD
ENDBRANCH  51  54
ENDBRANCH  48  51
ENDBRANCH  41  44
ENDBRANCH  38  41
ENDBRANCH  37  38
ENDBRANCH  33  37
ENDBRANCH   1  29
TORSDOF 17
ENDMDL