MODEL 1
REMARK VINA RESULT: -10.964731042      0.000      0.000
REMARK  2 active torsions:
REMARK  status: ('A' for Active; 'I' for Inactive)
REMARK    1  A    between atoms: C2_3  and  N1_4
REMARK    2  A    between atoms: N1_4  and  C3_6
ROOT
HETATM    1  O1  UNL     1      18.046  32.326  32.710  1.00  0.00    -0.285 OA
HETATM    2  C1  UNL     1      17.190  32.903  32.023  1.00  0.00     0.210 A
HETATM    3  C2  UNL     1      17.062  34.352  32.138  1.00  0.00     0.097 A
HETATM    4  C9  UNL     1      16.039  34.988  31.308  1.00  0.00     0.035 A
HETATM    5  C10 UNL     1      15.238  34.229  30.458  1.00  0.00     0.057 A
HETATM    6  N2  UNL     1      14.388  35.052  29.814  1.00  0.00    -0.354 N
ATOM      7  H2  UNL     1      13.690  34.759  29.131  1.00  0.00     0.166 HD
HETATM    8  C11 UNL     1      14.601  36.321  30.211  1.00  0.00     0.043 A
HETATM    9  C12 UNL     1      13.998  37.502  29.850  1.00  0.00     0.030 A
HETATM   10  C13 UNL     1      14.429  38.661  30.429  1.00  0.00     0.002 A
HETATM   11  C14 UNL     1      15.461  38.634  31.364  1.00  0.00     0.001 A
HETATM   12  C15 UNL     1      16.074  37.458  31.735  1.00  0.00     0.014 A
HETATM   13  C16 UNL     1      15.638  36.289  31.150  1.00  0.00     0.005 A
HETATM   14  C17 UNL     1      15.366  32.789  30.344  1.00  0.00     0.006 A
HETATM   15  C18 UNL     1      14.562  32.044  29.492  1.00  0.00     0.014 A
HETATM   16  C19 UNL     1      14.692  30.675  29.392  1.00  0.00     0.001 A
HETATM   17  C20 UNL     1      15.629  30.035  30.143  1.00  0.00     0.001 A
HETATM   18  C21 UNL     1      16.453  30.765  31.010  1.00  0.00     0.016 A
HETATM   19  C22 UNL     1      16.316  32.144  31.105  1.00  0.00     0.029 A
ENDROOT
BRANCH   3  20
HETATM   20  N1  UNL     1      17.767  35.087  32.896  1.00  0.00    -0.352 N
ATOM     21  H1  UNL     1      17.605  34.995  33.899  1.00  0.00     0.166 HD
BRANCH  20  22
HETATM   22  C3  UNL     1      18.742  36.012  32.502  1.00  0.00     0.032 A
HETATM   23  C4  UNL     1      19.076  37.026  33.368  1.00  0.00     0.029 A
HETATM   24  C5  UNL     1      20.029  37.956  33.024  1.00  0.00     0.002 A
HETATM   25  C6  UNL     1      20.673  37.903  31.814  1.00  0.00     0.000 A
HETATM   26  C7  UNL     1      20.328  36.882  30.961  1.00  0.00     0.002 A
HETATM   27  C8  UNL     1      19.379  35.945  31.288  1.00  0.00     0.029 A
ENDBRANCH  20  22
ENDBRANCH   3  20
TORSDOF 2
ENDMDL