MODEL 2
REMARK VINA RESULT: -8.243057664      0.069      1.348
REMARK  4 active torsions:
REMARK  status: ('A' for Active; 'I' for Inactive)
REMARK    1  A    between atoms: O1_1  and  C1_3
REMARK    2  A    between atoms: C4_6  and  C5_7
REMARK    3  A    between atoms: C6_8  and  C7_9
REMARK    4  A    between atoms: C17_21  and  C18_22
ROOT
HETATM    1  C1  UNL     1      14.713  33.811  30.264  1.00  0.00     0.094 A
HETATM    2  C2  UNL     1      14.244  32.508  30.235  1.00  0.00     0.054 A
HETATM    3  C3  UNL     1      15.165  31.492  30.416  1.00  0.00     0.012 A
HETATM    4  C4  UNL     1      14.692  30.200  30.386  1.00  0.00     0.030 A
HETATM    5  C13 UNL     1      15.623  29.201  30.568  1.00  0.00     0.022 A
HETATM    6  C14 UNL     1      16.967  29.480  30.771  1.00  0.00     0.004 A
HETATM    7  C15 UNL     1      17.428  30.761  30.799  1.00  0.00     0.030 A
HETATM    8  C16 UNL     1      16.502  31.791  30.617  1.00  0.00     0.044 A
HETATM    9  N1  UNL     1      16.888  33.069  30.634  1.00  0.00    -0.353 N
ATOM     10  H1  UNL     1      17.876  33.276  30.784  1.00  0.00     0.166 HD
HETATM   11  C17 UNL     1      16.041  34.094  30.464  1.00  0.00     0.076 A
ENDROOT
BRANCH   4  12
HETATM   12  C5  UNL     1      13.297  29.937  30.174  1.00  0.00    -0.060 C
HETATM   13  C6  UNL     1      12.119  29.699  30.008  1.00  0.00    -0.061 C
BRANCH  13  14
HETATM   14  C7  UNL     1      10.726  29.396  29.823  1.00  0.00     0.018 A
HETATM   15  C8  UNL     1       9.995  28.646  30.719  1.00  0.00     0.020 A
HETATM   16  C9  UNL     1       8.661  28.349  30.551  1.00  0.00     0.001 A
HETATM   17  C10 UNL     1       8.046  28.841  29.417  1.00  0.00     0.000 A
HETATM   18  C11 UNL     1       8.728  29.592  28.493  1.00  0.00     0.001 A
HETATM   19  C12 UNL     1      10.054  29.869  28.690  1.00  0.00     0.020 A
ENDBRANCH  13  14
ENDBRANCH   4  12
BRANCH   1  20
HETATM   20  O1  UNL     1      13.842  34.876  30.090  1.00  0.00    -0.358 OA
ATOM     21  H1  UNL     1      14.167  35.768  30.083  1.00  0.00     0.217 HD
ENDBRANCH   1  20
BRANCH  11  22
HETATM   22  C18 UNL     1      16.542  35.484  30.498  1.00  0.00    -0.007 A
HETATM   23  C19 UNL     1      15.717  36.535  30.161  1.00  0.00     0.014 A
HETATM   24  C20 UNL     1      16.131  37.846  30.179  1.00  0.00     0.001 A
HETATM   25  C21 UNL     1      17.431  38.104  30.551  1.00  0.00     0.000 A
HETATM   26  C22 UNL     1      18.276  37.081  30.892  1.00  0.00     0.001 A
HETATM   27  C23 UNL     1      17.838  35.771  30.868  1.00  0.00     0.014 A
ENDBRANCH  11  22
TORSDOF 4
ENDMDL