MODEL 5
REMARK VINA RESULT: -9.099522816      1.597      7.380
REMARK  1 active torsions:
REMARK  status: ('A' for Active; 'I' for Inactive)
REMARK    1  A    between atoms: C5_5  and  C6_6
ROOT
HETATM    1  C6  UNL     1      15.165  34.273  29.699  1.00  0.00     0.035 A
HETATM    2  C7  UNL     1      14.706  35.160  28.724  1.00  0.00     0.019 A
HETATM    3  C8  UNL     1      14.994  36.477  28.855  1.00  0.00     0.019 A
HETATM    4  C9  UNL     1      15.725  36.899  29.936  1.00  0.00     0.099 A
HETATM    5  N1  UNL     1      16.180  36.080  30.892  1.00  0.00    -0.304 N
HETATM    6  C10 UNL     1      15.898  34.755  30.775  1.00  0.00     0.125 A
HETATM    7  N2  UNL     1      16.398  34.127  31.820  1.00  0.00    -0.334 N
ATOM      8  H2  UNL     1      16.343  33.127  32.014  1.00  0.00     0.168 HD
HETATM    9  C11 UNL     1      16.999  35.070  32.589  1.00  0.00     0.104 A
HETATM   10  S1  UNL     1      17.871  35.328  34.021  1.00  0.00    -0.069 SA
HETATM   11  C12 UNL     1      18.086  37.018  33.911  1.00  0.00     0.019 A
HETATM   12  C13 UNL     1      18.722  37.930  34.750  1.00  0.00     0.020 A
HETATM   13  C14 UNL     1      18.740  39.264  34.401  1.00  0.00     0.001 A
HETATM   14  C15 UNL     1      18.125  39.603  33.244  1.00  0.00     0.001 A
HETATM   15  C16 UNL     1      17.497  38.715  32.414  1.00  0.00     0.015 A
HETATM   16  C17 UNL     1      17.460  37.340  32.741  1.00  0.00     0.011 A
HETATM   17  C18 UNL     1      16.889  36.309  32.049  1.00  0.00     0.086 A
ENDROOT
BRANCH   1  18
HETATM   18  C5  UNL     1      14.796  32.891  29.510  1.00  0.00     0.046 A
HETATM   19  C4  UNL     1      15.634  31.850  29.712  1.00  0.00     0.031 A
HETATM   20  C3  UNL     1      15.232  30.531  29.435  1.00  0.00     0.010 A
HETATM   21  C2  UNL     1      13.976  30.283  28.949  1.00  0.00    -0.047 A
HETATM   22  C1  UNL     1      13.552  28.891  28.656  1.00  0.00     0.049 C
HETATM   23  C19 UNL     1      13.146  31.376  28.751  1.00  0.00     0.095 A
HETATM   24  N3  UNL     1      13.564  32.607  29.028  1.00  0.00    -0.365 N
ATOM     25  H3  UNL     1      12.920  33.381  28.868  1.00  0.00     0.165 HD
ENDBRANCH   1  18
TORSDOF 1
ENDMDL