MODEL 3
REMARK VINA RESULT: -9.521665984      1.628      1.917
REMARK  3 active torsions:
REMARK  status: ('A' for Active; 'I' for Inactive)
REMARK    1  A    between atoms: C1_2  and  N1_3
REMARK    2  A    between atoms: C1_2  and  C9_15
REMARK    3  A    between atoms: N1_3  and  C2_5
ROOT
HETATM    1  S1  UNL     1      14.558  36.479  29.827  1.00  0.00    -0.059 SA
HETATM    2  C1  UNL     1      15.747  35.364  29.815  1.00  0.00     0.113 C
ENDROOT
BRANCH   2   3
HETATM    3  N1  UNL     1      17.118  35.700  29.940  1.00  0.00    -0.327 N
ATOM      4  H1  UNL     1      17.780  35.494  29.190  1.00  0.00     0.169 HD
BRANCH   3   5
HETATM    5  C2  UNL     1      17.515  36.284  31.052  1.00  0.00     0.150 A
HETATM    6  N2  UNL     1      17.620  37.594  31.291  1.00  0.00    -0.335 N
HETATM    7  C3  UNL     1      18.035  37.982  32.471  1.00  0.00     0.051 A
ATOM      8  H2  UNL     1      17.383  38.276  30.571  1.00  0.00     0.168 HD
HETATM    9  C4  UNL     1      18.212  39.309  32.913  1.00  0.00     0.031 A
HETATM   10  C8  UNL     1      18.336  37.025  33.394  1.00  0.00     0.035 A
HETATM   11  C5  UNL     1      18.648  39.595  34.160  1.00  0.00     0.002 A
HETATM   12  C6  UNL     1      18.953  38.631  35.092  1.00  0.00     0.002 A
HETATM   13  C7  UNL     1      18.787  37.316  34.684  1.00  0.00     0.021 A
HETATM   14  S2  UNL     1      18.012  35.589  32.529  1.00  0.00    -0.052 SA
ENDBRANCH   3   5
ENDBRANCH   2   3
BRANCH   2  15
HETATM   15  C9  UNL     1      15.409  33.956  29.669  1.00  0.00     0.003 A
HETATM   16  C10 UNL     1      14.547  33.525  28.674  1.00  0.00     0.015 A
HETATM   17  C11 UNL     1      14.204  32.218  28.502  1.00  0.00     0.013 A
HETATM   18  C12 UNL     1      14.732  31.270  29.351  1.00  0.00    -0.026 A
HETATM   19  C13 UNL     1      14.406  29.929  29.210  1.00  0.00     0.012 A
HETATM   20  C17 UNL     1      15.598  31.661  30.360  1.00  0.00    -0.025 A
HETATM   21  C14 UNL     1      14.937  29.007  30.057  1.00  0.00     0.001 A
HETATM   22  C15 UNL     1      15.802  29.392  31.063  1.00  0.00     0.001 A
HETATM   23  C16 UNL     1      16.119  30.706  31.201  1.00  0.00     0.012 A
HETATM   24  C18 UNL     1      15.929  33.011  30.508  1.00  0.00     0.027 A
ENDBRANCH   2  15
TORSDOF 3
ENDMDL