MODEL 3
REMARK VINA RESULT: -8.173077122      1.456      1.754
REMARK  2 active torsions:
REMARK  status: ('A' for Active; 'I' for Inactive)
REMARK    1  A    between atoms: C4_4  and  C5_5
REMARK    2  A    between atoms: C6_8  and  C7_9
ROOT
HETATM    1  C5  UNL     1      16.553  36.537  32.313  1.00  0.00     0.056 A
HETATM    2  N1  UNL     1      16.538  35.170  32.251  1.00  0.00    -0.340 N
ATOM      3  H1  UNL     1      17.129  34.644  32.895  1.00  0.00     0.167 HD
HETATM    4  C6  UNL     1      15.785  34.501  31.383  1.00  0.00     0.116 A
HETATM    5  N3  UNL     1      14.991  35.140  30.515  1.00  0.00    -0.341 N
ATOM      6  H3  UNL     1      14.419  34.611  29.856  1.00  0.00     0.167 HD
HETATM    7  C15 UNL     1      14.954  36.502  30.519  1.00  0.00     0.046 A
HETATM    8  C16 UNL     1      14.130  37.173  29.640  1.00  0.00     0.030 A
HETATM    9  C17 UNL     1      14.102  38.549  29.682  1.00  0.00     0.002 A
HETATM   10  C18 UNL     1      14.862  39.266  30.563  1.00  0.00     0.001 A
HETATM   11  C19 UNL     1      15.695  38.574  31.451  1.00  0.00     0.016 A
HETATM   12  C20 UNL     1      15.741  37.213  31.427  1.00  0.00     0.018 A
ENDROOT
BRANCH   4  13
HETATM   13  C7  UNL     1      15.861  33.026  31.419  1.00  0.00     0.009 A
HETATM   14  C8  UNL     1      16.554  32.392  32.423  1.00  0.00     0.017 A
HETATM   15  C9  UNL     1      16.626  31.021  32.459  1.00  0.00     0.031 A
HETATM   16  C10 UNL     1      16.012  30.232  31.499  1.00  0.00     0.042 A
HETATM   17  N2  UNL     1      15.922  28.903  31.294  1.00  0.00    -0.365 N
HETATM   18  C13 UNL     1      15.322  30.902  30.501  1.00  0.00    -0.007 A
HETATM   19  C11 UNL     1      15.193  28.662  30.190  1.00  0.00     0.089 A
ATOM     20  H2  UNL     1      16.343  28.188  31.888  1.00  0.00     0.165 HD
HETATM   21  C12 UNL     1      14.811  29.889  29.684  1.00  0.00     0.030 A
HETATM   22  C14 UNL     1      15.241  32.273  30.451  1.00  0.00     0.029 A
ENDBRANCH   4  13
BRANCH   1  23
HETATM   23  C4  UNL     1      17.407  37.173  33.303  1.00  0.00    -0.009 A
HETATM   24  C3  UNL     1      18.716  36.722  33.497  1.00  0.00     0.014 A
HETATM   25  C2  UNL     1      19.591  37.312  34.374  1.00  0.00     0.001 A
HETATM   26  C1  UNL     1      19.180  38.402  35.108  1.00  0.00     0.000 A
HETATM   27  C22 UNL     1      17.907  38.866  34.941  1.00  0.00     0.001 A
HETATM   28  C21 UNL     1      17.034  38.251  34.044  1.00  0.00     0.014 A
ENDBRANCH   1  23
TORSDOF 2
ENDMDL