MODEL 1
REMARK VINA RESULT: -6.949337936      0.000      0.000
REMARK  1 active torsions:
REMARK  status: ('A' for Active; 'I' for Inactive)
REMARK    1  A    between atoms: C8_9  and  N2_10
ROOT
HETATM    1  C1  UNL     1      17.907  32.619  32.743  1.00  0.00     0.156 C
HETATM    2  N1  UNL     1      17.171  33.684  32.143  1.00  0.00    -0.350 N
HETATM    3  C2  UNL     1      16.263  33.371  31.167  1.00  0.00     0.047 A
HETATM    4  C3  UNL     1      16.102  32.060  30.807  1.00  0.00     0.030 A
HETATM    5  C4  UNL     1      15.190  31.741  29.826  1.00  0.00     0.002 A
HETATM    6  C5  UNL     1      14.436  32.707  29.197  1.00  0.00     0.001 A
HETATM    7  C6  UNL     1      14.574  34.032  29.535  1.00  0.00     0.016 A
HETATM    8  C7  UNL     1      15.503  34.334  30.531  1.00  0.00     0.020 A
HETATM    9  C8  UNL     1      15.653  35.638  30.879  1.00  0.00     0.081 A
HETATM   10  C12 UNL     1      16.560  35.981  31.858  1.00  0.00     0.021 A
HETATM   11  C13 UNL     1      16.689  37.323  32.187  1.00  0.00     0.028 A
HETATM   12  C14 UNL     1      17.582  37.677  33.151  1.00  0.00    -0.025 A
HETATM   13  C15 UNL     1      17.721  39.013  33.490  1.00  0.00     0.012 A
HETATM   14  C16 UNL     1      18.621  39.353  34.461  1.00  0.00     0.001 A
HETATM   15  C17 UNL     1      19.374  38.389  35.089  1.00  0.00     0.001 A
HETATM   16  C18 UNL     1      19.243  37.058  34.760  1.00  0.00     0.012 A
HETATM   17  C19 UNL     1      18.327  36.706  33.772  1.00  0.00    -0.024 A
HETATM   18  C20 UNL     1      18.196  35.375  33.442  1.00  0.00     0.043 A
HETATM   19  C21 UNL     1      17.301  34.977  32.467  1.00  0.00     0.048 A
ENDROOT
BRANCH   9  20
HETATM   20  N2  UNL     1      14.874  36.652  30.231  1.00  0.00    -0.266 N
HETATM   21  C9  UNL     1      15.000  37.096  28.965  1.00  0.00     0.118 A
HETATM   22  C10 UNL     1      14.033  38.087  28.767  1.00  0.00     0.038 A
HETATM   23  C11 UNL     1      13.344  38.205  29.956  1.00  0.00     0.109 A
HETATM   24  N3  UNL     1      13.888  37.324  30.795  1.00  0.00    -0.305 N
ATOM     25  H3  UNL     1      13.580  37.186  31.757  1.00  0.00     0.186 HD
ENDBRANCH   9  20
TORSDOF 1
ENDMDL