MODEL 3
REMARK VINA RESULT: -10.036505217      1.111      1.178
REMARK  3 active torsions:
REMARK  status: ('A' for Active; 'I' for Inactive)
REMARK    1  A    between atoms: C1_2  and  N1_3
REMARK    2  A    between atoms: C1_2  and  C7_12
REMARK    3  A    between atoms: N1_3  and  C2_5
ROOT
HETATM    1  C7  UNL     1      16.824  35.349  31.997  1.00  0.00     0.082 A
HETATM    2  N3  UNL     1      17.794  35.621  32.881  1.00  0.00    -0.352 N
ATOM      3  H3  UNL     1      18.361  34.868  33.272  1.00  0.00     0.166 HD
HETATM    4  C8  UNL     1      18.014  36.898  33.250  1.00  0.00     0.043 A
HETATM    5  C9  UNL     1      19.043  37.125  34.178  1.00  0.00     0.030 A
HETATM    6  C10 UNL     1      19.306  38.412  34.587  1.00  0.00     0.002 A
HETATM    7  C11 UNL     1      18.553  39.427  34.070  1.00  0.00     0.001 A
HETATM    8  C12 UNL     1      17.534  39.241  33.156  1.00  0.00     0.014 A
HETATM    9  C13 UNL     1      17.277  37.951  32.752  1.00  0.00     0.002 A
HETATM   10  C14 UNL     1      16.267  37.695  31.837  1.00  0.00    -0.011 A
HETATM   11  C15 UNL     1      15.507  38.709  31.314  1.00  0.00     0.013 A
HETATM   12  C16 UNL     1      14.507  38.394  30.399  1.00  0.00     0.001 A
HETATM   13  C17 UNL     1      14.284  37.090  30.023  1.00  0.00     0.001 A
HETATM   14  C18 UNL     1      15.054  36.071  30.553  1.00  0.00     0.014 A
HETATM   15  C19 UNL     1      16.049  36.365  31.462  1.00  0.00     0.005 A
ENDROOT
BRANCH   1  16
HETATM   16  C1  UNL     1      16.535  33.984  31.555  1.00  0.00     0.130 C
HETATM   17  S1  UNL     1      16.122  32.834  32.657  1.00  0.00    -0.058 SA
BRANCH  16  18
HETATM   18  N1  UNL     1      16.594  33.601  30.200  1.00  0.00    -0.332 N
ATOM     19  H1  UNL     1      17.266  34.057  29.583  1.00  0.00     0.168 HD
BRANCH  18  20
HETATM   20  C2  UNL     1      15.803  32.671  29.716  1.00  0.00     0.105 A
HETATM   21  C3  UNL     1      16.200  31.353  29.706  1.00  0.00     0.048 A
HETATM   22  C4  UNL     1      15.388  30.367  29.205  1.00  0.00     0.005 A
HETATM   23  C5  UNL     1      14.145  30.692  28.697  1.00  0.00     0.017 A
HETATM   24  C6  UNL     1      13.802  32.025  28.733  1.00  0.00     0.089 A
HETATM   25  N2  UNL     1      14.596  32.979  29.222  1.00  0.00    -0.352 N
ATOM     26  H2  UNL     1      14.282  33.949  29.220  1.00  0.00     0.166 HD
ENDBRANCH  18  20
ENDBRANCH  16  18
ENDBRANCH   1  16
TORSDOF 3
ENDMDL