MODEL 2
REMARK VINA RESULT: -5.307367213      0.904      1.300
REMARK  3 active torsions:
REMARK  status: ('A' for Active; 'I' for Inactive)
REMARK    1  A    between atoms: C3_4  and  C4_5
REMARK    2  A    between atoms: C7_8  and  C8_9
REMARK    3  A    between atoms: C9_10  and  C10_11
ROOT
HETATM    1  C4  UNL     1      18.509  35.586  31.315  1.00  0.00    -0.010 A
HETATM    2  C5  UNL     1      18.743  34.672  30.299  1.00  0.00     0.016 A
HETATM    3  C6  UNL     1      17.776  33.725  30.044  1.00  0.00     0.040 A
HETATM    4  C7  UNL     1      16.630  33.709  30.786  1.00  0.00     0.086 A
HETATM    5  N1  UNL     1      16.442  34.602  31.751  1.00  0.00    -0.358 N
ATOM      6  H1  UNL     1      15.577  34.568  32.291  1.00  0.00     0.166 HD
HETATM    7  C20 UNL     1      17.345  35.541  32.039  1.00  0.00     0.101 A
ENDROOT
BRANCH   4   8
HETATM    8  C8  UNL     1      15.642  32.695  30.480  1.00  0.00    -0.043 C
HETATM    9  C9  UNL     1      14.804  31.863  30.230  1.00  0.00    -0.060 C
BRANCH   9  10
HETATM   10  C10 UNL     1      13.791  30.887  29.941  1.00  0.00     0.018 A
HETATM   11  C11 UNL     1      13.797  30.100  28.802  1.00  0.00     0.021 A
HETATM   12  C12 UNL     1      12.811  29.167  28.543  1.00  0.00     0.013 A
HETATM   13  C13 UNL     1      11.771  28.993  29.434  1.00  0.00    -0.026 A
HETATM   14  C14 UNL     1      10.764  28.057  29.194  1.00  0.00     0.012 A
HETATM   15  C18 UNL     1      11.739  29.763  30.576  1.00  0.00    -0.025 A
HETATM   16  C15 UNL     1       9.729  27.888  30.087  1.00  0.00     0.001 A
HETATM   17  C16 UNL     1       9.692  28.657  31.232  1.00  0.00     0.001 A
HETATM   18  C17 UNL     1      10.698  29.583  31.461  1.00  0.00     0.012 A
HETATM   19  C19 UNL     1      12.734  30.686  30.812  1.00  0.00     0.032 A
ENDBRANCH   9  10
ENDBRANCH   4   8
BRANCH   1  20
HETATM   20  C3  UNL     1      19.489  36.622  31.644  1.00  0.00    -0.018 A
HETATM   21  C2  UNL     1      19.225  37.626  32.558  1.00  0.00     0.086 A
HETATM   22  C1  UNL     1      20.175  38.595  32.850  1.00  0.00     0.245 A
HETATM   23  O1  UNL     1      19.920  39.508  33.688  1.00  0.00    -0.268 OA
HETATM   24  N2  UNL     1      21.382  38.572  32.242  1.00  0.00    -0.334 N
HETATM   25  C22 UNL     1      21.670  37.608  31.347  1.00  0.00     0.092 A
ATOM     26  H2  UNL     1      22.077  39.287  32.461  1.00  0.00     0.168 HD
HETATM   27  C21 UNL     1      20.734  36.642  31.052  1.00  0.00     0.029 A
ENDBRANCH   1  20
TORSDOF 3
ENDMDL