MODEL 5
REMARK VINA RESULT: -3.319916451      1.991      2.283
REMARK  1 active torsions:
REMARK  status: ('A' for Active; 'I' for Inactive)
REMARK    1  A    between atoms: N2_19  and  C16_21
ROOT
HETATM    1  O1  UNL     1      17.882  34.551  33.562  1.00  0.00    -0.286 OA
HETATM    2  C1  UNL     1      17.046  34.354  32.648  1.00  0.00     0.197 A
HETATM    3  C2  UNL     1      16.703  32.983  32.215  1.00  0.00     0.028 A
HETATM    4  C3  UNL     1      17.146  31.739  32.638  1.00  0.00     0.016 A
HETATM    5  C4  UNL     1      16.609  30.644  32.008  1.00  0.00     0.001 A
HETATM    6  C5  UNL     1      15.668  30.788  30.998  1.00  0.00     0.001 A
HETATM    7  C6  UNL     1      15.246  32.034  30.597  1.00  0.00     0.014 A
HETATM    8  C7  UNL     1      15.772  33.146  31.217  1.00  0.00     0.006 A
HETATM    9  C8  UNL     1      15.518  34.589  31.008  1.00  0.00     0.060 A
HETATM   10  N1  UNL     1      14.701  35.229  30.153  1.00  0.00    -0.354 N
ATOM     11  H1  UNL     1      14.132  34.675  29.512  1.00  0.00     0.166 HD
HETATM   12  C9  UNL     1      14.604  36.567  30.109  1.00  0.00     0.045 A
HETATM   13  C10 UNL     1      13.733  37.186  29.196  1.00  0.00     0.030 A
HETATM   14  C11 UNL     1      13.632  38.554  29.148  1.00  0.00     0.002 A
HETATM   15  C12 UNL     1      14.395  39.302  30.007  1.00  0.00     0.001 A
HETATM   16  C13 UNL     1      15.252  38.704  30.906  1.00  0.00     0.016 A
HETATM   17  C14 UNL     1      15.357  37.312  30.957  1.00  0.00     0.018 A
HETATM   18  C15 UNL     1      16.254  36.730  31.900  1.00  0.00     0.061 A
HETATM   19  N2  UNL     1      16.892  37.450  32.622  1.00  0.00    -0.355 N
ATOM     20  H2  UNL     1      16.599  38.387  32.347  1.00  0.00     0.166 HD
HETATM   21  C22 UNL     1      16.289  35.331  31.875  1.00  0.00     0.070 A
ENDROOT
BRANCH  19  22
HETATM   22  C16 UNL     1      17.778  37.668  33.589  1.00  0.00     0.032 A
HETATM   23  C17 UNL     1      19.019  36.991  33.665  1.00  0.00     0.029 A
HETATM   24  C18 UNL     1      19.880  37.299  34.675  1.00  0.00     0.002 A
HETATM   25  C19 UNL     1      19.593  38.250  35.634  1.00  0.00     0.000 A
HETATM   26  C20 UNL     1      18.380  38.918  35.569  1.00  0.00     0.002 A
HETATM   27  C21 UNL     1      17.491  38.641  34.576  1.00  0.00     0.029 A
ENDBRANCH  19  22
TORSDOF 1
ENDMDL