MODEL 5
REMARK VINA RESULT: -3.768121325      3.015      3.269
REMARK  3 active torsions:
REMARK  status: ('A' for Active; 'I' for Inactive)
REMARK    1  A    between atoms: C1_2  and  C2_3
REMARK    2  A    between atoms: C1_2  and  C3_5
REMARK    3  A    between atoms: C3_5  and  N1_6
ROOT
HETATM    1  N1  UNL     1     -25.148  42.384  14.159  1.00  0.00     0.015 N
HETATM    2  C4  UNL     1     -24.291  43.574  14.159  1.00  0.00     0.262 C
HETATM    3  C5  UNL     1     -24.494  43.997  12.689  1.00  0.00     0.054 C
HETATM    4  C6  UNL     1     -25.458  42.908  12.314  1.00  0.00     0.136 C
HETATM    5  C7  UNL     1     -24.754  41.693  12.921  1.00  0.00     0.283 C
HETATM    6  N2  UNL     1     -26.294  42.775  13.466  1.00  0.00    -0.040 NA
ENDROOT
BRANCH   1   7
HETATM    7  C3  UNL     1     -25.254  41.638  15.322  1.00  0.00     0.298 C
BRANCH   7   8
HETATM    8  C1  UNL     1     -26.445  41.865  16.190  1.00  0.00     0.211 C
HETATM    9  F1  UNL     1     -26.491  43.093  16.770  1.00  0.00    -0.246 F
BRANCH   8  10
HETATM   10  C2  UNL     1     -26.391  40.803  17.292  1.00  0.00     0.153 C
HETATM   11 CL1  UNL     1     -27.843  39.756  17.196  1.00  0.00    -0.128 Cl
ENDBRANCH   8  10
ENDBRANCH   7   8
ENDBRANCH   1   7
TORSDOF 3
ENDMDL