MODEL 2
REMARK VINA RESULT: -3.253720018      2.524      2.825
REMARK  2 active torsions:
REMARK  status: ('A' for Active; 'I' for Inactive)
REMARK    1  A    between atoms: N1_2  and  C2_4
REMARK    2  A    between atoms: C2_4  and  C3_6
ROOT
HETATM    1  C2  UNL     1     -24.131  43.604  14.410  1.00  0.00     0.218 C
HETATM    2 CL1  UNL     1     -25.314  42.778  15.452  1.00  0.00    -0.097 Cl
ENDROOT
BRANCH   1   3
HETATM    3  N1  UNL     1     -22.820  43.253  14.921  1.00  0.00    -0.387 N
HETATM    4  C1  UNL     1     -22.603  43.270  16.172  1.00  0.00     0.114 C
ATOM      5  H1  UNL     1     -22.074  42.992  14.276  1.00  0.00     0.159 HD
ENDBRANCH   1   3
BRANCH   1   6
HETATM    6  C3  UNL     1     -24.256  43.085  13.030  1.00  0.00     0.016 C
HETATM    7  C4  UNL     1     -23.239  42.556  12.373  1.00  0.00     0.030 C
HETATM    8 BR1  UNL     1     -25.935  43.164  12.127  1.00  0.00    -0.053 Br
ENDBRANCH   1   6
TORSDOF 2
ENDMDL