MODEL 5
REMARK VINA RESULT: -4.090128162      2.718      3.491
REMARK  2 active torsions:
REMARK  status: ('A' for Active; 'I' for Inactive)
REMARK    1  A    between atoms: C1_4  and  C2_5
REMARK    2  A    between atoms: C4_7  and  C5_8
ROOT
HETATM    1  C2  UNL     1     -23.555  43.007  15.218  1.00  0.00     0.032 A
HETATM    2  C3  UNL     1     -25.079  42.975  15.413  1.00  0.00     0.020 A
HETATM    3  C4  UNL     1     -24.478  43.586  14.216  1.00  0.00     0.050 A
ENDROOT
BRANCH   1   4
HETATM    4  C1  UNL     1     -22.853  43.827  16.205  1.00  0.00     0.057 C
HETATM    5  N1  UNL     1     -21.599  43.804  16.438  1.00  0.00    -0.411 N
ATOM      6  H12 UNL     1     -21.052  43.150  15.878  1.00  0.00     0.155 HD
ATOM      7  H11 UNL     1     -21.109  44.377  17.126  1.00  0.00     0.155 HD
ENDBRANCH   1   4
BRANCH   3   8
HETATM    8  C5  UNL     1     -24.727  42.862  12.912  1.00  0.00     0.192 C
HETATM    9 CL1  UNL     1     -25.436  41.255  13.288  1.00  0.00    -0.083 Cl
HETATM   10 CL2  UNL     1     -25.922  43.718  11.908  1.00  0.00    -0.083 Cl
HETATM   11 CL3  UNL     1     -23.220  42.568  12.033  1.00  0.00    -0.083 Cl
ENDBRANCH   3   8
TORSDOF 2
ENDMDL