MODEL 3
REMARK VINA RESULT: -3.416467256      3.000      3.765
REMARK  2 active torsions:
REMARK  status: ('A' for Active; 'I' for Inactive)
REMARK    1  A    between atoms: N1_5  and  C4_6
REMARK    2  A    between atoms: N1_5  and  C5_8
ROOT
HETATM    1  F1  UNL     1     -26.180  43.179  11.251  1.00  0.00    -0.248 F
HETATM    2  C1  UNL     1     -25.324  43.343  12.288  1.00  0.00     0.197 C
HETATM    3  C2  UNL     1     -24.112  42.400  12.203  1.00  0.00     0.067 C
HETATM    4  C3  UNL     1     -23.583  42.583  13.618  1.00  0.00     0.243 C
HETATM    5  N1  UNL     1     -24.755  42.727  14.467  1.00  0.00    -0.040 N
HETATM    6  C6  UNL     1     -25.898  42.833  13.615  1.00  0.00     0.277 C
ENDROOT
BRANCH   5   7
HETATM    7  C4  UNL     1     -24.565  43.958  15.235  1.00  0.00     0.352 C
HETATM    8 CL1  UNL     1     -23.011  43.848  16.113  1.00  0.00    -0.101 Cl
ENDBRANCH   5   7
BRANCH   5   9
HETATM    9  C5  UNL     1     -24.879  41.613  15.369  1.00  0.00     0.352 C
HETATM   10 CL2  UNL     1     -26.415  41.588  16.237  1.00  0.00    -0.101 Cl
ENDBRANCH   5   9
TORSDOF 2
ENDMDL