MODEL 3
REMARK VINA RESULT: -4.086877466      2.854      3.119
REMARK  3 active torsions:
REMARK  status: ('A' for Active; 'I' for Inactive)
REMARK    1  A    between atoms: C1_2  and  C2_4
REMARK    2  A    between atoms: C5_8  and  C6_9
REMARK    3  A    between atoms: C6_9  and  C7_10
ROOT
HETATM    1  C2  UNL     1     -25.061  42.192  14.620  1.00  0.00     0.067 A
HETATM    2  C3  UNL     1     -25.816  42.285  13.246  1.00  0.00     0.048 A
HETATM    3  C4  UNL     1     -24.675  43.091  13.642  1.00  0.00     0.059 A
HETATM    4 CL1  UNL     1     -23.218  42.711  12.642  1.00  0.00    -0.117 Cl
HETATM    5  C5  UNL     1     -24.294  43.515  14.979  1.00  0.00     0.032 A
ENDROOT
BRANCH   1   6
HETATM    6  C1  UNL     1     -26.006  41.936  15.643  1.00  0.00     0.242 C
HETATM    7  N1  UNL     1     -25.815  40.968  16.673  1.00  0.00    -0.061 NA
HETATM    8  O1  UNL     1     -27.102  42.585  15.683  1.00  0.00    -0.276 OA
ENDBRANCH   1   6
BRANCH   5   9
HETATM    9  C6  UNL     1     -22.904  43.310  15.534  1.00  0.00     0.039 C
BRANCH   9  10
HETATM   10  C7  UNL     1     -22.743  44.226  16.727  1.00  0.00     0.222 C
HETATM   11  F1  UNL     1     -23.891  44.963  16.943  1.00  0.00    -0.255 F
ENDBRANCH   9  10
ENDBRANCH   5   9
TORSDOF 3
ENDMDL