MODEL 1
REMARK VINA RESULT: -3.652376177      0.000      0.000
REMARK  2 active torsions:
REMARK  status: ('A' for Active; 'I' for Inactive)
REMARK    1  A    between atoms: C2_2  and  C3_4
REMARK    2  A    between atoms: C3_4  and  C4_6
ROOT
HETATM    1  C3  UNL     1     -24.156  42.477  13.245  1.00  0.00     0.298 C
HETATM    2  F1  UNL     1     -22.801  42.683  12.922  1.00  0.00    -0.234 F
ENDROOT
BRANCH   1   3
HETATM    3  C2  UNL     1     -24.217  42.645  14.710  1.00  0.00     0.022 C
HETATM    4  C1  UNL     1     -23.262  43.233  15.396  1.00  0.00     0.030 C
HETATM    5 BR1  UNL     1     -25.761  41.973  15.599  1.00  0.00    -0.053 Br
ENDBRANCH   1   3
BRANCH   1   6
HETATM    6  C4  UNL     1     -24.948  43.481  12.489  1.00  0.00     0.270 C
HETATM    7  N1  UNL     1     -26.181  43.139  11.883  1.00  0.00    -0.059 NA
HETATM    8  O1  UNL     1     -24.514  44.660  12.387  1.00  0.00    -0.273 OA
ENDBRANCH   1   6
TORSDOF 2
ENDMDL