MODEL 2
REMARK VINA RESULT: -4.872383775      1.667      1.897
REMARK  2 active torsions:
REMARK  status: ('A' for Active; 'I' for Inactive)
REMARK       I    between atoms: C1_2  and  N1_3
REMARK    1  A    between atoms: C1_2  and  C5_9
REMARK    2  A    between atoms: N1_3  and  C2_5
ROOT
HETATM    1  O1  UNL     1     -25.966  42.820  17.185  1.00  0.00    -0.273 OA
HETATM    2  C1  UNL     1     -26.338  42.410  16.046  1.00  0.00     0.226 C
HETATM    3  N1  UNL     1     -27.726  42.375  15.770  1.00  0.00    -0.353 N
ATOM      4  H1  UNL     1     -28.055  42.051  14.860  1.00  0.00     0.163 HD
ENDROOT
BRANCH   2   5
HETATM    5  C5  UNL     1     -25.386  41.974  15.010  1.00  0.00     0.137 A
HETATM    6  C6  UNL     1     -24.567  43.069  14.386  1.00  0.00     0.080 A
HETATM    7  C7  UNL     1     -25.543  42.286  13.572  1.00  0.00     0.192 A
HETATM    8  F2  UNL     1     -26.605  42.937  13.041  1.00  0.00    -0.225 F
HETATM    9 CL1  UNL     1     -24.851  41.053  12.458  1.00  0.00    -0.082 Cl
ENDBRANCH   2   5
BRANCH   3  10
HETATM   10  C2  UNL     1     -28.696  42.803  16.788  1.00  0.00     0.121 A
HETATM   11  C3  UNL     1     -30.165  42.728  16.461  1.00  0.00     0.067 A
HETATM   12  C4  UNL     1     -29.540  41.704  17.350  1.00  0.00     0.195 A
HETATM   13  F1  UNL     1     -29.421  40.435  16.838  1.00  0.00    -0.247 F
ENDBRANCH   3  10
TORSDOF 2
ENDMDL