MODEL 1
REMARK VINA RESULT: -4.191062358      0.000      0.000
REMARK  2 active torsions:
REMARK  status: ('A' for Active; 'I' for Inactive)
REMARK    1  A    between atoms: C1_2  and  C2_4
REMARK    2  A    between atoms: C2_4  and  N1_6
ROOT
HETATM    1  N1  UNL     1     -26.063  42.357  14.290  1.00  0.00    -0.360 N
ATOM      2  H1  UNL     1     -26.603  42.865  13.590  1.00  0.00     0.162 HD
HETATM    3  C3  UNL     1     -26.601  42.127  15.435  1.00  0.00     0.075 A
HETATM    4  C4  UNL     1     -26.118  41.436  16.651  1.00  0.00     0.095 A
HETATM    5  C5  UNL     1     -27.475  41.816  17.210  1.00  0.00     0.128 A
HETATM    6  N2  UNL     1     -27.873  42.449  15.973  1.00  0.00    -0.380 N
ATOM      7  H2  UNL     1     -28.709  42.925  15.633  1.00  0.00     0.160 HD
ENDROOT
BRANCH   1   8
HETATM    8  C2  UNL     1     -24.739  41.929  13.959  1.00  0.00     0.213 C
HETATM    9 CL3  UNL     1     -24.822  41.062  12.399  1.00  0.00    -0.100 Cl
BRANCH   8  10
HETATM   10  C1  UNL     1     -23.783  43.090  13.758  1.00  0.00     0.215 C
HETATM   11 CL1  UNL     1     -23.404  43.731  15.376  1.00  0.00    -0.105 Cl
HETATM   12 CL2  UNL     1     -24.458  44.327  12.696  1.00  0.00    -0.105 Cl
ENDBRANCH   8  10
ENDBRANCH   1   8
TORSDOF 2
ENDMDL