MODEL 4
REMARK VINA RESULT: -3.147200337      2.313      2.404
REMARK  2 active torsions:
REMARK  status: ('A' for Active; 'I' for Inactive)
REMARK    1  A    between atoms: C1_2  and  C2_4
REMARK    2  A    between atoms: C2_4  and  C3_6
ROOT
HETATM    1  C2  UNL     1     -24.200  43.264  13.464  1.00  0.00     0.181 C
HETATM    2 CL1  UNL     1     -23.275  42.496  12.171  1.00  0.00    -0.115 Cl
ENDROOT
BRANCH   1   3
HETATM    3  C1  UNL     1     -25.629  43.006  13.229  1.00  0.00     0.250 C
HETATM    4  N1  UNL     1     -26.161  43.205  11.944  1.00  0.00    -0.061 NA
HETATM    5  O1  UNL     1     -26.347  42.619  14.162  1.00  0.00    -0.275 OA
ENDBRANCH   1   3
BRANCH   1   6
HETATM    6  C3  UNL     1     -23.771  42.777  14.830  1.00  0.00     0.114 C
HETATM    7 BR1  UNL     1     -23.742  44.210  16.102  1.00  0.00    -0.094 Br
ENDBRANCH   1   6
TORSDOF 2
ENDMDL