MODEL 1
REMARK VINA RESULT: -6.893112948      0.000      0.000
REMARK  12 active torsions:
REMARK  status: ('A' for Active; 'I' for Inactive)
REMARK    1  A    between atoms: C2_2  and  N2_6
REMARK       I    between atoms: N2_6  and  C3_8
REMARK    2  A    between atoms: C3_8  and  C4_10
REMARK    3  A    between atoms: C4_10  and  O2_11
REMARK    4  A    between atoms: C6_16  and  O5_17
REMARK    5  A    between atoms: C6_16  and  C7_19
REMARK    6  A    between atoms: C7_19  and  O6_20
REMARK    7  A    between atoms: C7_19  and  N3_22
REMARK    8  A    between atoms: N3_22  and  S1_24
REMARK    9  A    between atoms: S1_24  and  C8_27
REMARK   10  A    between atoms: C10_29  and  O9_30
REMARK   11  A    between atoms: C11_32  and  O10_33
REMARK   12  A    between atoms: C12_35  and  O11_36
ROOT
HETATM    1  C4  UNL     1       2.339 -35.449  12.732  1.00  0.00     0.466 C
HETATM    2  O3  UNL     1       1.661 -34.512  13.561  1.00  0.00    -0.244 OA
HETATM    3  C5  UNL     1       1.410 -35.158  14.760  1.00  0.00     0.335 C
HETATM    4  O4  UNL     1       1.336 -34.535  15.848  1.00  0.00    -0.259 OA
HETATM    5  C6  UNL     1       1.279 -36.581  14.411  1.00  0.00     0.398 C
HETATM    6  N4  UNL     1       2.221 -36.743  13.375  1.00  0.00     0.208 N
HETATM    7  C14 UNL     1       2.029 -37.815  12.474  1.00  0.00     0.323 C
ENDROOT
BRANCH   5   8
HETATM    8  O5  UNL     1       1.755 -37.315  15.524  1.00  0.00    -0.352 OA
ATOM      9  H5  UNL     1       1.991 -38.177  15.200  1.00  0.00     0.213 HD
ENDBRANCH   5   8
BRANCH   5  10
HETATM   10  C7  UNL     1      -0.109 -37.035  14.152  1.00  0.00     0.305 C
BRANCH  10  11
HETATM   11  O6  UNL     1      -1.007 -36.043  14.556  1.00  0.00    -0.371 OA
ATOM     12  H6  UNL     1      -1.781 -36.075  14.007  1.00  0.00     0.212 HD
ENDBRANCH  10  11
BRANCH  10  13
HETATM   13  N3  UNL     1      -0.454 -38.312  14.686  1.00  0.00    -0.283 N
ATOM     14  H3  UNL     1      -0.111 -39.196  14.310  1.00  0.00     0.175 HD
BRANCH  13  15
HETATM   15  S1  UNL     1      -1.532 -38.189  16.056  1.00  0.00     0.261 S
HETATM   16  O7  UNL     1      -0.941 -37.273  17.079  1.00  0.00    -0.200 OA
HETATM   17  O8  UNL     1      -2.861 -37.674  15.658  1.00  0.00    -0.200 OA
BRANCH  15  18
HETATM   18  C8  UNL     1      -1.772 -39.761  16.815  1.00  0.00     0.085 A
HETATM   19  C9  UNL     1      -2.798 -40.030  17.682  1.00  0.00     0.064 A
HETATM   20  C10 UNL     1      -2.962 -41.278  18.267  1.00  0.00     0.103 A
HETATM   21  C11 UNL     1      -2.069 -42.300  17.978  1.00  0.00     0.132 A
HETATM   22  C12 UNL     1      -1.048 -42.042  17.121  1.00  0.00     0.103 A
HETATM   23  C13 UNL     1      -0.902 -40.794  16.550  1.00  0.00     0.064 A
BRANCH  20  24
HETATM   24  O9  UNL     1      -4.021 -41.483  19.132  1.00  0.00    -0.358 OA
ATOM     25  H9  UNL     1      -3.843 -41.699  20.040  1.00  0.00     0.217 HD
ENDBRANCH  20  24
BRANCH  21  26
HETATM   26  O10 UNL     1      -2.306 -43.508  18.604  1.00  0.00    -0.356 OA
ATOM     27  H10 UNL     1      -2.566 -43.461  19.516  1.00  0.00     0.218 HD
ENDBRANCH  21  26
BRANCH  22  28
HETATM   28  O11 UNL     1      -0.143 -43.071  16.827  1.00  0.00    -0.358 OA
ATOM     29  H11 UNL     1       0.545 -43.262  17.453  1.00  0.00     0.217 HD
ENDBRANCH  22  28
ENDBRANCH  15  18
ENDBRANCH  13  15
ENDBRANCH  10  13
ENDBRANCH   5  10
BRANCH   1  30
HETATM   30  C3  UNL     1       3.756 -35.064  12.527  1.00  0.00     0.320 C
HETATM   31  N2  UNL     1       4.205 -34.504  11.322  1.00  0.00    -0.311 N
ATOM     32  H2  UNL     1       3.504 -34.374  10.593  1.00  0.00     0.170 HD
HETATM   33  O1  UNL     1       4.558 -35.254  13.467  1.00  0.00    -0.265 OA
BRANCH  31  34
HETATM   34  C2  UNL     1       5.515 -34.100  11.005  1.00  0.00     0.073 C
HETATM   35  C1  UNL     1       5.989 -34.119   9.611  1.00  0.00     0.088 C
HETATM   36  N1  UNL     1       6.333 -33.705  11.915  1.00  0.00    -0.389 N
ATOM     37  H12 UNL     1       7.283 -33.412  11.685  1.00  0.00     0.157 HD
ATOM     38  H11 UNL     1       6.005 -33.692  12.881  1.00  0.00     0.157 HD
ENDBRANCH  31  34
ENDBRANCH   1  30
BRANCH   1  39
HETATM   39  O2  UNL     1       1.641 -35.429  11.509  1.00  0.00    -0.333 OA
ATOM     40  H2  UNL     1       0.958 -36.089  11.505  1.00  0.00     0.215 HD
ENDBRANCH   1  39
TORSDOF 12
ENDMDL