MODEL 5
REMARK VINA RESULT: -6.079093537      4.874      9.847
REMARK  15 active torsions:
REMARK  status: ('A' for Active; 'I' for Inactive)
REMARK       I    between atoms: C1_2  and  N1_3
REMARK    1  A    between atoms: C1_2  and  C5_14
REMARK    2  A    between atoms: N1_3  and  C2_5
REMARK    3  A    between atoms: C2_5  and  C3_6
REMARK    4  A    between atoms: C3_6  and  O2_7
REMARK    5  A    between atoms: C3_6  and  C4_9
REMARK    6  A    between atoms: C4_9  and  O3_10
REMARK    7  A    between atoms: C4_9  and  O4_12
REMARK    8  A    between atoms: C8_17  and  O5_18
REMARK    9  A    between atoms: C10_21  and  N2_22
REMARK   10  A    between atoms: C12_24  and  C13_25
REMARK   11  A    between atoms: C13_25  and  O6_26
REMARK   12  A    between atoms: C15_30  and  O8_31
REMARK   13  A    between atoms: C15_30  and  C16_33
REMARK   14  A    between atoms: C16_33  and  O9_34
REMARK   15  A    between atoms: C17_36  and  O10_37
ROOT
HETATM    1  C5  UNL     1      -3.745 -42.523  20.853  1.00  0.00     0.061 A
HETATM    2  C6  UNL     1      -3.677 -42.850  22.231  1.00  0.00     0.022 A
HETATM    3  C7  UNL     1      -2.492 -43.085  22.854  1.00  0.00     0.037 A
HETATM    4  C8  UNL     1      -1.290 -43.014  22.149  1.00  0.00     0.068 A
HETATM    5  C9  UNL     1      -1.364 -42.702  20.832  1.00  0.00     0.069 A
HETATM    6  C10 UNL     1      -2.588 -42.450  20.149  1.00  0.00     0.075 A
ENDROOT
BRANCH   6   7
HETATM    7  N2  UNL     1      -2.464 -42.142  18.777  1.00  0.00    -0.250 N
HETATM    8  C11 UNL     1      -2.173 -40.913  18.267  1.00  0.00     0.148 A
HETATM    9  C12 UNL     1      -2.186 -40.953  16.896  1.00  0.00     0.084 A
HETATM   10  N3  UNL     1      -2.484 -42.226  16.594  1.00  0.00    -0.285 N
HETATM   11  N4  UNL     1      -2.642 -42.896  17.737  1.00  0.00    -0.236 N
ATOM     12  H3  UNL     1      -2.574 -42.614  15.655  1.00  0.00     0.188 HD
ATOM     13  H4  UNL     1      -2.877 -43.888  17.787  1.00  0.00     0.209 HD
BRANCH   9  14
HETATM   14  C13 UNL     1      -1.986 -39.847  16.003  1.00  0.00     0.155 C
HETATM   15  C14 UNL     1      -2.935 -38.667  16.143  1.00  0.00     0.219 C
HETATM   16  O7  UNL     1      -2.369 -37.838  15.134  1.00  0.00    -0.348 OA
HETATM   17  C15 UNL     1      -0.990 -37.903  15.265  1.00  0.00     0.213 C
HETATM   18  C17 UNL     1      -0.681 -39.087  16.187  1.00  0.00     0.225 C
BRANCH  14  19
HETATM   19  O6  UNL     1      -2.094 -40.218  14.642  1.00  0.00    -0.378 OA
ATOM     20  H6  UNL     1      -2.881 -39.880  14.229  1.00  0.00     0.211 HD
ENDBRANCH  14  19
BRANCH  17  21
HETATM   21  O8  UNL     1      -0.318 -38.016  14.052  1.00  0.00    -0.362 OA
ATOM     22  H8  UNL     1       0.143 -37.226  13.797  1.00  0.00     0.213 HD
ENDBRANCH  17  21
BRANCH  17  23
HETATM   23  C16 UNL     1      -0.531 -36.589  15.865  1.00  0.00     0.235 C
BRANCH  23  24
HETATM   24  O9  UNL     1      -0.678 -36.538  17.255  1.00  0.00    -0.395 OA
ATOM     25  H9  UNL     1       0.116 -36.768  17.723  1.00  0.00     0.209 HD
ENDBRANCH  23  24
ENDBRANCH  17  23
BRANCH  18  26
HETATM   26  O10 UNL     1       0.393 -39.837  15.778  1.00  0.00    -0.386 OA
ATOM     27  H10 UNL     1       1.174 -39.302  15.692  1.00  0.00     0.210 HD
ENDBRANCH  18  26
ENDBRANCH   9  14
ENDBRANCH   6   7
BRANCH   1  28
HETATM   28  C1  UNL     1      -5.081 -42.295  20.338  1.00  0.00     0.257 C
HETATM   29  O1  UNL     1      -5.412 -42.542  19.188  1.00  0.00    -0.267 OA
HETATM   30  N1  UNL     1      -6.049 -41.744  21.242  1.00  0.00    -0.330 N
ATOM     31  H1  UNL     1      -5.691 -41.555  22.178  1.00  0.00     0.168 HD
BRANCH  30  32
HETATM   32  C2  UNL     1      -7.397 -41.420  21.066  1.00  0.00     0.128 C
BRANCH  32  33
HETATM   33  C3  UNL     1      -7.911 -40.035  21.066  1.00  0.00     0.113 C
BRANCH  33  34
HETATM   34  O2  UNL     1      -7.373 -39.190  20.084  1.00  0.00    -0.359 OA
ATOM     35  H2  UNL     1      -7.754 -38.322  20.037  1.00  0.00     0.217 HD
ENDBRANCH  33  34
BRANCH  33  36
HETATM   36  C4  UNL     1      -8.190 -39.337  22.342  1.00  0.00     0.313 C
BRANCH  36  37
HETATM   37  O3  UNL     1      -9.542 -39.628  22.737  1.00  0.00    -0.365 OA
ATOM     38  H3  UNL     1      -9.614 -39.512  23.677  1.00  0.00     0.213 HD
ENDBRANCH  36  37
BRANCH  36  39
HETATM   39  O4  UNL     1      -8.279 -37.917  22.166  1.00  0.00    -0.365 OA
ATOM     40  H4  UNL     1      -8.698 -37.493  22.906  1.00  0.00     0.213 HD
ENDBRANCH  36  39
ENDBRANCH  33  36
ENDBRANCH  32  33
ENDBRANCH  30  32
ENDBRANCH   1  28
BRANCH   4  41
HETATM   41  O5  UNL     1      -0.137 -43.269  22.851  1.00  0.00    -0.361 OA
ATOM     42  H5  UNL     1       0.112 -42.638  23.517  1.00  0.00     0.217 HD
ENDBRANCH   4  41
TORSDOF 15
ENDMDL