MODEL 3
REMARK VINA RESULT: -6.183671120      1.651      2.791
REMARK  12 active torsions:
REMARK  status: ('A' for Active; 'I' for Inactive)
REMARK    1  A    between atoms: C2_2  and  N1_3
REMARK    2  A    between atoms: C2_2  and  C12_30
REMARK    3  A    between atoms: N1_3  and  N2_5
REMARK    4  A    between atoms: C3_6  and  C4_7
REMARK    5  A    between atoms: C6_12  and  N5_13
REMARK    6  A    between atoms: C7_18  and  N7_19
REMARK    7  A    between atoms: C9_23  and  O1_24
REMARK    8  A    between atoms: C12_30  and  C13_32
REMARK    9  A    between atoms: C13_32  and  O4_33
REMARK   10  A    between atoms: C13_32  and  C14_35
REMARK   11  A    between atoms: C14_35  and  N10_36
REMARK   12  A    between atoms: C14_35  and  C15_40
ROOT
HETATM    1  N7  UNL     1       0.443 -36.818  10.792  1.00  0.00    -0.278 N
ATOM      2  H7  UNL     1       0.559 -37.467  11.570  1.00  0.00     0.179 HD
HETATM    3  C8  UNL     1      -0.519 -37.059   9.807  1.00  0.00     0.183 C
HETATM    4  N8  UNL     1      -1.326 -37.242   8.993  1.00  0.00    -0.172 NA
ENDROOT
BRANCH   1   5
HETATM    5  C7  UNL     1       1.179 -35.771  10.705  1.00  0.00     0.146 A
HETATM    6  C4  UNL     1       2.416 -35.758  11.344  1.00  0.00     0.084 A
HETATM    7  C5  UNL     1       3.090 -34.543  11.262  1.00  0.00     0.148 A
HETATM    8  N3  UNL     1       4.377 -34.422  11.872  1.00  0.00    -0.081 NA
HETATM    9  N4  UNL     1       2.567 -33.502  10.617  1.00  0.00    -0.178 N
HETATM   10  C6  UNL     1       1.376 -33.526  10.001  1.00  0.00     0.678 A
ATOM     11  H4  UNL     1       3.104 -32.635  10.589  1.00  0.00     0.185 HD
HETATM   12  N6  UNL     1       0.694 -34.676  10.057  1.00  0.00    -0.175 N
ATOM     13  H6  UNL     1      -0.216 -34.733   9.600  1.00  0.00     0.186 HD
BRANCH   6  14
HETATM   14  C3  UNL     1       2.903 -36.843  12.189  1.00  0.00     0.129 A
HETATM   15  N2  UNL     1       2.814 -37.086  13.480  1.00  0.00    -0.204 N
HETATM   16  C11 UNL     1       3.445 -38.312  13.725  1.00  0.00     0.349 A
HETATM   17  N9  UNL     1       3.911 -38.823  12.597  1.00  0.00    -0.281 N
HETATM   18  O2  UNL     1       3.546 -38.836  14.854  1.00  0.00    -0.244 OA
HETATM   19  C9  UNL     1       3.594 -37.951  11.643  1.00  0.00     0.176 A
HETATM   20  C10 UNL     1       4.635 -40.102  12.425  1.00  0.00     0.163 C
BRANCH  15  21
HETATM   21  N1  UNL     1       2.087 -36.461  14.495  1.00  0.00    -0.314 N
ATOM     22  H1  UNL     1       2.621 -36.254  15.339  1.00  0.00     0.181 HD
BRANCH  21  23
HETATM   23  C2  UNL     1       0.732 -36.070  14.542  1.00  0.00     0.168 C
HETATM   24  C1  UNL     1       0.492 -35.417  15.924  1.00  0.00     0.042 C
BRANCH  23  25
HETATM   25  C12 UNL     1      -0.135 -37.291  14.450  1.00  0.00     0.181 C
HETATM   26  O3  UNL     1      -0.211 -37.860  13.391  1.00  0.00    -0.293 OA
BRANCH  25  27
HETATM   27  C13 UNL     1      -0.891 -37.813  15.609  1.00  0.00     0.228 C
BRANCH  27  28
HETATM   28  O4  UNL     1      -2.216 -37.390  15.596  1.00  0.00    -0.385 OA
ATOM     29  H4  UNL     1      -2.754 -37.896  16.194  1.00  0.00     0.210 HD
ENDBRANCH  27  28
BRANCH  27  30
HETATM   30  C14 UNL     1      -0.722 -39.300  15.678  1.00  0.00     0.300 C
BRANCH  30  31
HETATM   31  N10 UNL     1       0.690 -39.603  15.646  1.00  0.00    -0.065 N
ATOM     32 3H10 UNL     1       0.876 -40.575  15.401  1.00  0.00     0.275 HD
ATOM     33 2H10 UNL     1       1.166 -39.167  14.855  1.00  0.00     0.275 HD
ATOM     34 1H10 UNL     1       1.098 -39.340  16.542  1.00  0.00     0.275 HD
ENDBRANCH  30  31
BRANCH  30  35
HETATM   35  C15 UNL     1      -1.355 -39.898  16.885  1.00  0.00     0.230 C
HETATM   36  O5  UNL     1      -1.844 -39.152  17.715  1.00  0.00    -0.282 OA
HETATM   37  S1  UNL     1      -1.385 -41.669  17.094  1.00  0.00    -0.009 SA
ENDBRANCH  30  35
ENDBRANCH  27  30
ENDBRANCH  25  27
ENDBRANCH  23  25
ENDBRANCH  21  23
ENDBRANCH  15  21
BRANCH  19  38
HETATM   38  O1  UNL     1       3.893 -38.086  10.290  1.00  0.00    -0.344 OA
ATOM     39  H1  UNL     1       3.610 -38.819   9.756  1.00  0.00     0.219 HD
ENDBRANCH  19  38
ENDBRANCH   6  14
BRANCH  10  40
HETATM   40  N5  UNL     1       0.885 -32.512   9.379  1.00  0.00    -0.234 N
ATOM     41  H52 UNL     1       1.435 -32.033   8.665  1.00  0.00     0.174 HD
ATOM     42  H51 UNL     1      -0.050 -32.145   9.560  1.00  0.00     0.174 HD
ENDBRANCH  10  40
ENDBRANCH   1   5
TORSDOF 12
ENDMDL