MODEL 3
REMARK VINA RESULT: -6.634281027      2.169      3.378
REMARK  13 active torsions:
REMARK  status: ('A' for Active; 'I' for Inactive)
REMARK    1  A    between atoms: C4_5  and  O2_6
REMARK    2  A    between atoms: O2_6  and  C5_7
REMARK    3  A    between atoms: C5_7  and  C6_9
REMARK    4  A    between atoms: C6_9  and  N1_10
REMARK    5  A    between atoms: N1_10  and  O4_11
REMARK    6  A    between atoms: N1_10  and  C7_13
REMARK    7  A    between atoms: C8_16  and  N3_17
REMARK    8  A    between atoms: C9_22  and  C10_23
REMARK    9  A    between atoms: C10_23  and  O5_24
REMARK   10  A    between atoms: C10_23  and  O6_26
REMARK   11  A    between atoms: C11_28  and  C12_29
REMARK   12  A    between atoms: C12_29  and  N5_30
REMARK   13  A    between atoms: C12_29  and  N6_34
ROOT
HETATM    1  C7  UNL     1       1.853 -34.940  11.546  1.00  0.00     0.155 A
HETATM    2  N2  UNL     1       1.563 -34.069  10.524  1.00  0.00    -0.174 N
ATOM      3  H2  UNL     1       0.586 -33.868  10.305  1.00  0.00     0.186 HD
HETATM    4  C8  UNL     1       2.528 -33.474   9.809  1.00  0.00     0.677 A
HETATM    5  N4  UNL     1       3.816 -33.725  10.083  1.00  0.00    -0.190 N
ATOM      6  H4  UNL     1       4.543 -33.268   9.532  1.00  0.00     0.184 HD
HETATM    7  C9  UNL     1       4.168 -34.568  11.074  1.00  0.00     0.094 A
HETATM    8  C11 UNL     1       3.160 -35.198  11.828  1.00  0.00     0.073 A
ENDROOT
BRANCH   1   9
HETATM    9  N1  UNL     1       0.771 -35.521  12.229  1.00  0.00    -0.234 N
BRANCH   9  10
HETATM   10  C6  UNL     1       0.011 -34.836  13.236  1.00  0.00     0.269 C
BRANCH  10  11
HETATM   11  C5  UNL     1      -0.101 -35.559  14.519  1.00  0.00     0.282 C
HETATM   12  O3  UNL     1       0.609 -35.178  15.479  1.00  0.00    -0.263 OA
BRANCH  11  13
HETATM   13  O2  UNL     1      -0.941 -36.614  14.697  1.00  0.00    -0.272 OA
BRANCH  13  14
HETATM   14  C4  UNL     1      -0.721 -37.634  15.684  1.00  0.00     0.417 C
HETATM   15  O1  UNL     1      -1.893 -38.167  16.073  1.00  0.00    -0.328 OA
HETATM   16  C2  UNL     1      -2.106 -39.494  16.031  1.00  0.00     0.116 C
HETATM   17  C1  UNL     1      -2.481 -39.880  14.599  1.00  0.00     0.054 C
HETATM   18  C3  UNL     1      -3.349 -39.790  16.880  1.00  0.00     0.054 C
HETATM   19  C13 UNL     1      -1.017 -40.371  16.494  1.00  0.00     0.119 C
HETATM   20  N7  UNL     1       0.228 -40.248  15.831  1.00  0.00    -0.267 N
HETATM   21  N8  UNL     1      -1.163 -41.235  17.473  1.00  0.00    -0.386 N
HETATM   22  S1  UNL     1       0.472 -38.739  15.039  1.00  0.00     0.284 S
ATOM     23  H7  UNL     1       0.925 -40.994  15.823  1.00  0.00     0.180 HD
HETATM   24  O7  UNL     1       1.857 -38.233  15.421  1.00  0.00    -0.200 OA
HETATM   25  O8  UNL     1       0.419 -38.866  13.549  1.00  0.00    -0.200 OA
ATOM     26  H82 UNL     1      -2.060 -41.323  17.950  1.00  0.00     0.157 HD
ATOM     27  H81 UNL     1      -0.409 -41.842  17.793  1.00  0.00     0.157 HD
ENDBRANCH  13  14
ENDBRANCH  11  13
ENDBRANCH  10  11
ENDBRANCH   9  10
BRANCH   9  28
HETATM   28  O4  UNL     1       0.408 -36.700  11.931  1.00  0.00    -0.285 OA
ATOM     29  H4  UNL     1       1.080 -37.295  11.620  1.00  0.00     0.245 HD
ENDBRANCH   9  28
ENDBRANCH   1   9
BRANCH   8  30
HETATM   30  C12 UNL     1       3.554 -36.110  12.904  1.00  0.00     0.417 C
BRANCH  30  31
HETATM   31  N5  UNL     1       3.101 -37.476  12.764  1.00  0.00    -0.046 N
ATOM     32  H53 UNL     1       2.083 -37.501  12.705  1.00  0.00     0.277 HD
ATOM     33  H52 UNL     1       3.346 -37.831  11.839  1.00  0.00     0.277 HD
ATOM     34  H51 UNL     1       3.424 -38.124  13.483  1.00  0.00     0.277 HD
ENDBRANCH  30  31
BRANCH  30  35
HETATM   35  N6  UNL     1       3.334 -35.614  14.223  1.00  0.00    -0.046 N
ATOM     36  H63 UNL     1       3.687 -34.660  14.304  1.00  0.00     0.277 HD
ATOM     37  H62 UNL     1       2.340 -35.449  14.376  1.00  0.00     0.277 HD
ATOM     38  H61 UNL     1       3.714 -36.196  14.970  1.00  0.00     0.277 HD
ENDBRANCH  30  35
ENDBRANCH   8  30
BRANCH   4  39
HETATM   39  N3  UNL     1       2.275 -32.655   8.845  1.00  0.00    -0.234 N
ATOM     40  H32 UNL     1       1.627 -31.890   9.037  1.00  0.00     0.174 HD
ATOM     41  H31 UNL     1       2.694 -32.746   7.920  1.00  0.00     0.174 HD
ENDBRANCH   4  39
BRANCH   7  42
HETATM   42  C10 UNL     1       5.607 -34.767  11.360  1.00  0.00     0.306 C
BRANCH  42  43
HETATM   43  O5  UNL     1       6.010 -33.651  12.157  1.00  0.00    -0.366 OA
ATOM     44  H5  UNL     1       5.962 -33.942  13.061  1.00  0.00     0.213 HD
ENDBRANCH  42  43
BRANCH  42  45
HETATM   45  O6  UNL     1       6.353 -34.818  10.213  1.00  0.00    -0.366 OA
ATOM     46  H6  UNL     1       6.775 -35.663  10.102  1.00  0.00     0.213 HD
ENDBRANCH  42  45
ENDBRANCH   7  42
TORSDOF 13
ENDMDL