MODEL 4
REMARK VINA RESULT: -6.968070001      2.598      6.064
REMARK  11 active torsions:
REMARK  status: ('A' for Active; 'I' for Inactive)
REMARK    1  A    between atoms: N1_1  and  N2_4
REMARK       I    between atoms: N2_4  and  C1_6
REMARK    2  A    between atoms: C1_6  and  C2_8
REMARK    3  A    between atoms: C2_8  and  N3_9
REMARK       I    between atoms: N3_9  and  C3_11
REMARK    4  A    between atoms: C3_11  and  C4_13
REMARK    5  A    between atoms: C4_13  and  O3_14
REMARK    6  A    between atoms: C4_13  and  N4_16
REMARK    7  A    between atoms: N4_16  and  C5_18
REMARK    8  A    between atoms: C13_28  and  O5_29
REMARK    9  A    between atoms: C15_34  and  O8_35
REMARK   10  A    between atoms: C16_38  and  C17_39
REMARK   11  A    between atoms: C17_39  and  O10_40
ROOT
HETATM    1  C5  UNL     1       3.264 -36.348  13.849  1.00  0.00     0.071 A
HETATM    2  C6  UNL     1       2.005 -35.929  14.301  1.00  0.00     0.085 A
HETATM    3  N5  UNL     1       1.804 -34.524  14.353  1.00  0.00    -0.099 NA
HETATM    4  C7  UNL     1       1.025 -36.816  14.671  1.00  0.00     0.034 A
HETATM    5  C8  UNL     1       1.281 -38.167  14.598  1.00  0.00     0.100 A
HETATM    6  C9  UNL     1       2.514 -38.628  14.158  1.00  0.00     0.066 A
HETATM    7  C10 UNL     1       3.488 -37.703  13.789  1.00  0.00     0.060 A
HETATM    8  C11 UNL     1       4.661 -38.496  13.395  1.00  0.00     0.201 A
HETATM    9  O4  UNL     1       5.744 -38.028  13.003  1.00  0.00    -0.286 OA
HETATM   10  C12 UNL     1       4.379 -39.921  13.527  1.00  0.00     0.087 A
HETATM   11  C13 UNL     1       5.230 -40.879  13.249  1.00  0.00     0.150 C
HETATM   12  C14 UNL     1       3.012 -39.989  14.013  1.00  0.00     0.202 A
HETATM   13  O6  UNL     1       2.397 -41.054  14.255  1.00  0.00    -0.286 OA
HETATM   14  O7  UNL     1       0.284 -39.050  14.974  1.00  0.00    -0.295 OA
HETATM   15  C15 UNL     1      -0.997 -38.546  15.283  1.00  0.00     0.417 C
HETATM   16  O9  UNL     1      -1.253 -37.291  14.789  1.00  0.00    -0.326 OA
HETATM   17  C16 UNL     1      -0.295 -36.358  15.145  1.00  0.00     0.188 C
ENDROOT
BRANCH   1  18
HETATM   18  N4  UNL     1       4.244 -35.424  13.492  1.00  0.00    -0.354 N
ATOM     19  H4  UNL     1       4.721 -34.946  14.257  1.00  0.00     0.162 HD
BRANCH  18  20
HETATM   20  C4  UNL     1       4.654 -35.073  12.150  1.00  0.00     0.312 C
BRANCH  20  21
HETATM   21  C3  UNL     1       3.524 -34.953  11.221  1.00  0.00     0.266 C
HETATM   22  N3  UNL     1       2.534 -33.975  11.400  1.00  0.00    -0.349 N
ATOM     23  H3  UNL     1       2.607 -33.346  12.200  1.00  0.00     0.163 HD
HETATM   24  O2  UNL     1       3.447 -35.740  10.251  1.00  0.00    -0.269 OA
BRANCH  22  25
HETATM   25  C2  UNL     1       1.419 -33.822  10.502  1.00  0.00     0.227 C
BRANCH  25  26
HETATM   26  C1  UNL     1       0.356 -34.836  10.654  1.00  0.00     0.253 C
HETATM   27  N2  UNL     1       0.355 -36.093  10.065  1.00  0.00    -0.275 N
ATOM     28  H2  UNL     1       1.130 -36.378   9.467  1.00  0.00     0.189 HD
HETATM   29  O1  UNL     1      -0.641 -34.524  11.384  1.00  0.00    -0.270 OA
BRANCH  27  30
HETATM   30  N1  UNL     1      -0.722 -36.974  10.297  1.00  0.00    -0.343 N
ATOM     31  H12 UNL     1      -1.641 -36.745   9.920  1.00  0.00     0.176 HD
ATOM     32  H11 UNL     1      -0.571 -37.827  10.836  1.00  0.00     0.176 HD
ENDBRANCH  27  30
ENDBRANCH  25  26
ENDBRANCH  22  25
ENDBRANCH  20  21
BRANCH  20  33
HETATM   33  O3  UNL     1       5.352 -33.887  12.179  1.00  0.00    -0.368 OA
ATOM     34  H3  UNL     1       5.999 -33.884  11.484  1.00  0.00     0.212 HD
ENDBRANCH  20  33
ENDBRANCH  18  20
ENDBRANCH   1  18
BRANCH  17  35
HETATM   35  C17 UNL     1      -0.346 -36.133  16.636  1.00  0.00     0.201 C
BRANCH  35  36
HETATM   36  O10 UNL     1       0.167 -34.880  16.975  1.00  0.00    -0.398 OA
ATOM     37  H10 UNL     1       1.104 -34.922  17.123  1.00  0.00     0.209 HD
ENDBRANCH  35  36
ENDBRANCH  17  35
BRANCH  11  38
HETATM   38  O5  UNL     1       4.866 -42.203  13.409  1.00  0.00    -0.372 OA
ATOM     39  H5  UNL     1       5.503 -42.895  13.278  1.00  0.00     0.216 HD
ENDBRANCH  11  38
BRANCH  15  40
HETATM   40  O8  UNL     1      -1.929 -39.419  14.702  1.00  0.00    -0.349 OA
ATOM     41  H8  UNL     1      -2.793 -39.080  14.911  1.00  0.00     0.215 HD
ENDBRANCH  15  40
TORSDOF 11
ENDMDL