MODEL 3
REMARK VINA RESULT: -6.726986297      2.961      5.256
REMARK  11 active torsions:
REMARK  status: ('A' for Active; 'I' for Inactive)
REMARK    1  A    between atoms: N1_2  and  C3_4
REMARK    2  A    between atoms: C4_7  and  N3_8
REMARK    3  A    between atoms: N3_8  and  N4_10
REMARK    4  A    between atoms: N4_10  and  C5_12
REMARK    5  A    between atoms: C6_13  and  O1_14
REMARK    6  A    between atoms: N5_17  and  O2_19
REMARK    7  A    between atoms: O2_19  and  C8_20
REMARK    8  A    between atoms: C11_28  and  O4_29
REMARK    9  A    between atoms: C12_31  and  O5_33
REMARK   10  A    between atoms: C14_35  and  N8_36
REMARK   11  A    between atoms: C15_39  and  N9_40
ROOT
HETATM    1  C5  UNL     1      -1.932 -41.520  16.578  1.00  0.00     0.170 C
HETATM    2  C6  UNL     1      -3.376 -41.559  16.116  1.00  0.00     0.195 C
HETATM    3  C7  UNL     1      -4.160 -41.985  17.329  1.00  0.00     0.072 C
HETATM    4  N5  UNL     1      -5.342 -41.642  17.592  1.00  0.00    -0.267 N
ATOM      5  H5  UNL     1      -5.791 -41.022  16.918  1.00  0.00     0.194 HD
HETATM    6  C11 UNL     1      -3.238 -42.847  18.083  1.00  0.00     0.204 C
HETATM    7  C12 UNL     1      -1.908 -42.135  17.936  1.00  0.00     0.110 C
HETATM    8  C13 UNL     1      -1.722 -41.133  19.056  1.00  0.00     0.051 C
ENDROOT
BRANCH   1   9
HETATM    9  N4  UNL     1      -1.474 -40.189  16.496  1.00  0.00    -0.324 N
ATOM     10  H4  UNL     1      -2.143 -39.423  16.560  1.00  0.00     0.180 HD
BRANCH   9  11
HETATM   11  N3  UNL     1      -0.166 -39.916  16.333  1.00  0.00    -0.287 N
ATOM     12  H3  UNL     1       0.496 -40.313  17.001  1.00  0.00     0.188 HD
BRANCH  11  13
HETATM   13  C4  UNL     1       0.346 -39.104  15.281  1.00  0.00     0.161 A
HETATM   14  N2  UNL     1       1.222 -39.541  14.374  1.00  0.00    -0.305 N
HETATM   15  C3  UNL     1       1.647 -38.713  13.405  1.00  0.00     0.229 A
ATOM     16  H2  UNL     1       1.568 -40.500  14.416  1.00  0.00     0.171 HD
HETATM   17  O8  UNL     1       1.216 -37.464  13.328  1.00  0.00    -0.260 OA
HETATM   18  C15 UNL     1       0.357 -36.975  14.188  1.00  0.00     0.182 A
HETATM   19  C14 UNL     1      -0.093 -37.803  15.188  1.00  0.00     0.198 A
BRANCH  15  20
HETATM   20  N1  UNL     1       2.578 -39.127  12.416  1.00  0.00    -0.356 N
HETATM   21  C1  UNL     1       3.065 -40.479  12.415  1.00  0.00     0.152 C
HETATM   22  C2  UNL     1       3.025 -38.190  11.418  1.00  0.00     0.152 C
ENDBRANCH  15  20
BRANCH  18  23
HETATM   23  N9  UNL     1      -0.059 -35.733  14.094  1.00  0.00    -0.378 N
ATOM     24  H92 UNL     1      -0.462 -35.253  14.899  1.00  0.00     0.158 HD
ATOM     25  H91 UNL     1       0.009 -35.218  13.217  1.00  0.00     0.158 HD
ENDBRANCH  18  23
BRANCH  19  26
HETATM   26  N8  UNL     1      -1.032 -37.247  16.111  1.00  0.00    -0.107 N
HETATM   27  O6  UNL     1      -0.759 -36.572  17.093  1.00  0.00    -0.531 OA
HETATM   28  O7  UNL     1      -2.372 -37.515  15.837  1.00  0.00    -0.531 OA
ENDBRANCH  19  26
ENDBRANCH  11  13
ENDBRANCH   9  11
ENDBRANCH   1   9
BRANCH   2  29
HETATM   29  O1  UNL     1      -3.818 -40.374  15.582  1.00  0.00    -0.387 OA
ATOM     30  H1  UNL     1      -4.755 -40.347  15.435  1.00  0.00     0.210 HD
ENDBRANCH   2  29
BRANCH   7  31
HETATM   31  O5  UNL     1      -0.918 -43.141  18.033  1.00  0.00    -0.385 OA
ATOM     32  H5  UNL     1      -0.722 -43.351  18.939  1.00  0.00     0.210 HD
ENDBRANCH   7  31
BRANCH   6  33
HETATM   33  O4  UNL     1      -3.582 -43.011  19.425  1.00  0.00    -0.387 OA
ATOM     34  H4  UNL     1      -3.537 -42.211  19.937  1.00  0.00     0.210 HD
ENDBRANCH   6  33
BRANCH   4  35
HETATM   35  O2  UNL     1      -6.080 -41.996  18.654  1.00  0.00    -0.253 OA
BRANCH  35  36
HETATM   36  C8  UNL     1      -7.099 -41.113  19.120  1.00  0.00     0.272 C
HETATM   37  C9  UNL     1      -7.654 -41.482  20.451  1.00  0.00     0.180 C
HETATM   38  N6  UNL     1      -7.267 -40.376  21.328  1.00  0.00    -0.339 N
HETATM   39  C10 UNL     1      -6.944 -39.261  20.491  1.00  0.00     0.318 C
ATOM     40  H6  UNL     1      -7.233 -40.396  22.347  1.00  0.00     0.164 HD
HETATM   41  O3  UNL     1      -6.996 -38.062  20.813  1.00  0.00    -0.247 OA
HETATM   42  N7  UNL     1      -6.555 -39.765  19.233  1.00  0.00    -0.313 N
ATOM     43  H7  UNL     1      -5.996 -39.278  18.533  1.00  0.00     0.167 HD
ENDBRANCH  35  36
ENDBRANCH   4  35
TORSDOF 11
ENDMDL