MODEL 2
REMARK VINA RESULT: -7.441142754      1.389      2.203
REMARK  9 active torsions:
REMARK  status: ('A' for Active; 'I' for Inactive)
REMARK    1  A    between atoms: N1_1  and  C1_4
REMARK    2  A    between atoms: C2_7  and  N3_8
REMARK    3  A    between atoms: C4_14  and  C5_15
REMARK    4  A    between atoms: C5_15  and  N5_16
REMARK    5  A    between atoms: C7_22  and  C8_23
REMARK    6  A    between atoms: C8_23  and  N9_24
REMARK    7  A    between atoms: C8_23  and  C9_28
REMARK    8  A    between atoms: N10_29  and  N11_31
REMARK       I    between atoms: C10_33  and  N13_35
REMARK    9  A    between atoms: N13_35  and  N14_37
ROOT
HETATM    1  N5  UNL     1      -2.908 -42.074  18.105  1.00  0.00    -0.303 N
HETATM    2  C6  UNL     1      -1.865 -41.213  18.588  1.00  0.00     0.208 C
HETATM    3  N6  UNL     1      -1.324 -41.311  19.897  1.00  0.00    -0.062 NA
HETATM    4  N7  UNL     1      -1.547 -40.370  17.633  1.00  0.00    -0.270 N
ATOM      5  H7  UNL     1      -0.833 -39.645  17.699  1.00  0.00     0.189 HD
HETATM    6  N8  UNL     1      -2.351 -40.630  16.501  1.00  0.00    -0.244 N
HETATM    7  C7  UNL     1      -3.140 -40.677  15.285  1.00  0.00     0.345 C
HETATM    8  N15 UNL     1      -3.849 -41.788  15.865  1.00  0.00    -0.010 N
ATOM      9 1H15 UNL     1      -4.247 -42.517  15.272  1.00  0.00     0.284 HD
ATOM     10 2H15 UNL     1      -4.765 -41.653  16.293  1.00  0.00     0.284 HD
HETATM   11  C11 UNL     1      -2.710 -42.054  16.669  1.00  0.00     0.415 C
ENDROOT
BRANCH   1  12
HETATM   12  C5  UNL     1      -3.921 -42.810  18.769  1.00  0.00     0.188 C
BRANCH  12  13
HETATM   13  C4  UNL     1      -4.949 -42.048  19.467  1.00  0.00     0.043 A
HETATM   14  N4  UNL     1      -5.362 -42.389  20.694  1.00  0.00    -0.351 N
HETATM   15  C3  UNL     1      -6.326 -41.643  21.307  1.00  0.00     0.122 A
ATOM     16  H4  UNL     1      -4.959 -43.198  21.167  1.00  0.00     0.166 HD
HETATM   17  C2  UNL     1      -6.758 -41.992  22.581  1.00  0.00     0.145 A
HETATM   18  C13 UNL     1      -6.905 -40.545  20.718  1.00  0.00     0.151 A
HETATM   19  N2  UNL     1      -7.699 -41.249  23.153  1.00  0.00    -0.175 N
HETATM   20  C1  UNL     1      -8.253 -40.165  22.546  1.00  0.00     0.679 A
ATOM     21  H2  UNL     1      -8.019 -41.501  24.088  1.00  0.00     0.186 HD
HETATM   22  N17 UNL     1      -7.859 -39.803  21.317  1.00  0.00    -0.174 N
ATOM     23  H17 UNL     1      -8.267 -38.993  20.850  1.00  0.00     0.186 HD
HETATM   24  N16 UNL     1      -6.472 -40.209  19.463  1.00  0.00    -0.348 N
HETATM   25  C12 UNL     1      -5.519 -40.948  18.861  1.00  0.00     0.116 A
ATOM     26  H16 UNL     1      -6.871 -39.402  18.984  1.00  0.00     0.167 HD
BRANCH  17  27
HETATM   27  N3  UNL     1      -6.218 -43.024  23.138  1.00  0.00    -0.383 N
ATOM     28  H32 UNL     1      -6.455 -43.218  24.112  1.00  0.00     0.157 HD
ATOM     29  H31 UNL     1      -5.570 -43.653  22.663  1.00  0.00     0.157 HD
ENDBRANCH  17  27
BRANCH  20  30
HETATM   30  N1  UNL     1      -9.165 -39.466  23.132  1.00  0.00    -0.234 N
ATOM     31  H12 UNL     1      -9.860 -39.950  23.702  1.00  0.00     0.174 HD
ATOM     32  H11 UNL     1      -9.196 -38.451  23.033  1.00  0.00     0.174 HD
ENDBRANCH  20  30
ENDBRANCH  12  13
ENDBRANCH   1  12
BRANCH   7  33
HETATM   33  C8  UNL     1      -2.432 -40.863  14.004  1.00  0.00     0.274 C
BRANCH  33  34
HETATM   34  N9  UNL     1      -3.131 -40.539  12.814  1.00  0.00    -0.067 N
ATOM     35  H93 UNL     1      -4.009 -40.078  13.054  1.00  0.00     0.275 HD
ATOM     36  H92 UNL     1      -2.644 -39.785  12.331  1.00  0.00     0.275 HD
ATOM     37  H91 UNL     1      -3.318 -41.295  12.155  1.00  0.00     0.275 HD
ENDBRANCH  33  34
BRANCH  33  38
HETATM   38  C9  UNL     1      -1.149 -40.108  14.028  1.00  0.00     0.116 C
HETATM   39  N10 UNL     1      -1.017 -38.952  13.483  1.00  0.00    -0.311 N
ATOM     40  H10 UNL     1      -1.834 -38.552  13.021  1.00  0.00     0.185 HD
BRANCH  39  41
HETATM   41  N11 UNL     1       0.142 -38.214  13.476  1.00  0.00    -0.273 N
HETATM   42  C10 UNL     1       0.499 -37.342  14.326  1.00  0.00     0.226 C
HETATM   43  N12 UNL     1       1.741 -36.672  14.157  1.00  0.00    -0.060 NA
HETATM   44  N13 UNL     1      -0.283 -36.990  15.455  1.00  0.00    -0.212 N
ATOM     45  H13 UNL     1      -1.051 -37.605  15.724  1.00  0.00     0.196 HD
ATOM     46  H11 UNL     1       0.786 -38.386  12.704  1.00  0.00     0.189 HD
BRANCH  44  47
HETATM   47  N14 UNL     1      -0.055 -35.844  16.213  1.00  0.00    -0.036 N
HETATM   48  O1  UNL     1      -0.364 -35.826  17.427  1.00  0.00    -0.516 OA
HETATM   49  O2  UNL     1       0.505 -34.698  15.694  1.00  0.00    -0.516 OA
ENDBRANCH  44  47
ENDBRANCH  39  41
ENDBRANCH  33  38
ENDBRANCH   7  33
TORSDOF 9
ENDMDL