MODEL 2
REMARK VINA RESULT: -6.449894586      3.058      4.971
REMARK  11 active torsions:
REMARK  status: ('A' for Active; 'I' for Inactive)
REMARK    1  A    between atoms: N1_1  and  C1_4
REMARK    2  A    between atoms: C4_13  and  N6_14
REMARK    3  A    between atoms: C5_19  and  C6_20
REMARK    4  A    between atoms: C6_20  and  C7_21
REMARK    5  A    between atoms: C6_20  and  N9_29
REMARK    6  A    between atoms: C7_21  and  C8_22
REMARK    7  A    between atoms: C8_22  and  N8_23
REMARK    8  A    between atoms: N8_23  and  S1_25
REMARK    9  A    between atoms: N9_29  and  C9_30
REMARK   10  A    between atoms: C9_30  and  O4_31
REMARK   11  A    between atoms: C9_30  and  O5_33
ROOT
HETATM    1  C1  UNL     1      -2.444 -41.297  11.259  1.00  0.00     0.705 A
HETATM    2  N2  UNL     1      -1.330 -40.741  10.750  1.00  0.00    -0.019 N
ATOM      3  H2  UNL     1      -1.037 -40.999   9.808  1.00  0.00     0.203 HD
HETATM    4  C2  UNL     1      -0.586 -39.850  11.446  1.00  0.00     0.737 A
HETATM    5  N3  UNL     1       0.546 -39.170  11.167  1.00  0.00    -0.159 N
HETATM    6  C3  UNL     1       0.905 -38.387  12.210  1.00  0.00     0.176 A
HETATM    7  N4  UNL     1      -0.081 -38.643  13.125  1.00  0.00    -0.246 N
ATOM      8  H4  UNL     1      -0.129 -38.214  14.049  1.00  0.00     0.190 HD
HETATM    9  N5  UNL     1      -0.948 -39.499  12.672  1.00  0.00     0.092 N
HETATM   10  C4  UNL     1      -2.073 -40.050  13.207  1.00  0.00     0.727 A
HETATM   11  N7  UNL     1      -2.809 -40.934  12.513  1.00  0.00    -0.020 N
ATOM     12  H7  UNL     1      -3.648 -41.335  12.933  1.00  0.00     0.203 HD
HETATM   13  C5  UNL     1       2.017 -37.479  12.466  1.00  0.00     0.151 C
HETATM   14  O6  UNL     1       3.127 -37.668  11.703  1.00  0.00    -0.342 OA
HETATM   15  C10 UNL     1       2.992 -37.807  10.363  1.00  0.00     0.218 C
HETATM   16  C11 UNL     1       2.714 -39.256  10.031  1.00  0.00     0.187 A
HETATM   17  C12 UNL     1       3.596 -40.322  10.297  1.00  0.00     0.276 A
HETATM   18  N10 UNL     1       3.447 -39.843   8.913  1.00  0.00    -0.058 N
ATOM     19 1H10 UNL     1       4.067 -39.506   8.176  1.00  0.00     0.278 HD
ATOM     20 2H10 UNL     1       3.214 -40.254   8.009  1.00  0.00     0.278 HD
HETATM   21  C13 UNL     1       1.205 -39.339   9.901  1.00  0.00     0.192 C
ENDROOT
BRANCH  13  22
HETATM   22  C6  UNL     1       1.622 -36.028  12.633  1.00  0.00     0.122 C
BRANCH  22  23
HETATM   23  C7  UNL     1       2.298 -35.302  13.781  1.00  0.00     0.096 C
BRANCH  23  24
HETATM   24  C8  UNL     1       1.359 -34.926  14.873  1.00  0.00     0.141 C
BRANCH  24  25
HETATM   25  N8  UNL     1       0.034 -35.443  14.713  1.00  0.00    -0.300 N
ATOM     26  H8  UNL     1      -0.586 -35.132  13.964  1.00  0.00     0.174 HD
BRANCH  25  27
HETATM   27  S1  UNL     1      -0.438 -36.610  15.855  1.00  0.00     0.204 S
HETATM   28  O1  UNL     1      -0.480 -36.052  17.248  1.00  0.00    -0.578 OA
HETATM   29  O2  UNL     1       0.479 -37.799  15.850  1.00  0.00    -0.578 OA
HETATM   30  O3  UNL     1      -1.969 -37.183  15.483  1.00  0.00    -0.578 OA
ENDBRANCH  25  27
ENDBRANCH  24  25
ENDBRANCH  23  24
ENDBRANCH  22  23
BRANCH  22  31
HETATM   31  N9  UNL     1       0.866 -35.485  11.945  1.00  0.00    -0.392 NA
BRANCH  31  32
HETATM   32  C9  UNL     1       0.009 -34.870  11.166  1.00  0.00     0.449 C
BRANCH  32  33
HETATM   33  O4  UNL     1      -1.073 -34.166  11.763  1.00  0.00    -0.344 OA
ATOM     34  H4  UNL     1      -1.934 -34.233  11.367  1.00  0.00     0.215 HD
ENDBRANCH  32  33
BRANCH  32  35
HETATM   35  O5  UNL     1      -0.661 -35.719  10.218  1.00  0.00    -0.344 OA
ATOM     36  H5  UNL     1      -1.352 -35.295   9.723  1.00  0.00     0.215 HD
ENDBRANCH  32  35
ENDBRANCH  31  32
ENDBRANCH  22  31
ENDBRANCH  13  22
BRANCH  10  37
HETATM   37  N6  UNL     1      -2.454 -39.736  14.384  1.00  0.00    -0.232 N
ATOM     38  H62 UNL     1      -2.333 -38.771  14.690  1.00  0.00     0.174 HD
ATOM     39  H61 UNL     1      -2.868 -40.436  15.000  1.00  0.00     0.174 HD
ENDBRANCH  10  37
BRANCH   1  40
HETATM   40  N1  UNL     1      -3.156 -42.159  10.577  1.00  0.00    -0.234 N
ATOM     41  H12 UNL     1      -3.586 -41.894   9.691  1.00  0.00     0.174 HD
ATOM     42  H11 UNL     1      -3.303 -43.113  10.906  1.00  0.00     0.174 HD
ENDBRANCH   1  40
TORSDOF 11
ENDMDL