MODEL 4
REMARK VINA RESULT: -6.703460999      1.846      2.862
REMARK  12 active torsions:
REMARK  status: ('A' for Active; 'I' for Inactive)
REMARK    1  A    between atoms: N4_8  and  C3_9
REMARK    2  A    between atoms: C4_14  and  N7_15
REMARK       I    between atoms: N7_15  and  C5_17
REMARK       I    between atoms: C5_17  and  N8_19
REMARK    3  A    between atoms: N8_19  and  N9_21
REMARK    4  A    between atoms: C6_23  and  C7_24
REMARK    5  A    between atoms: C9_26  and  O2_27
REMARK    6  A    between atoms: C10_29  and  O3_30
REMARK    7  A    between atoms: C11_32  and  O4_33
REMARK    8  A    between atoms: N10_36  and  C13_37
REMARK    9  A    between atoms: C13_37  and  C14_38
REMARK   10  A    between atoms: C14_38  and  C15_40
REMARK   11  A    between atoms: C15_40  and  O6_41
REMARK   12  A    between atoms: C15_40  and  O7_43
ROOT
HETATM    1  C3  UNL     1      -1.595 -38.193  15.392  1.00  0.00     0.738 A
HETATM    2  N5  UNL     1      -2.938 -37.951  15.393  1.00  0.00    -0.115 N
ATOM      3  H5  UNL     1      -3.380 -37.051  15.199  1.00  0.00     0.206 HD
HETATM    4  N6  UNL     1      -3.572 -39.070  15.687  1.00  0.00    -0.117 N
ATOM      5  H6  UNL     1      -4.582 -39.192  15.760  1.00  0.00     0.206 HD
HETATM    6  C4  UNL     1      -2.647 -40.012  15.869  1.00  0.00     0.718 A
HETATM    7  N10 UNL     1      -1.412 -39.483  15.690  1.00  0.00    -0.002 N
ENDROOT
BRANCH   6   8
HETATM    8  N7  UNL     1      -2.860 -41.237  16.170  1.00  0.00    -0.138 N
HETATM    9  C5  UNL     1      -3.815 -41.573  17.168  1.00  0.00     0.353 C
HETATM   10  O1  UNL     1      -4.840 -42.239  16.896  1.00  0.00    -0.245 OA
HETATM   11  N8  UNL     1      -3.580 -41.133  18.494  1.00  0.00    -0.251 N
ATOM     12  H8  UNL     1      -2.748 -40.591  18.723  1.00  0.00     0.191 HD
ATOM     13  H7  UNL     1      -2.344 -41.976  15.692  1.00  0.00     0.189 HD
BRANCH  11  14
HETATM   14  N9  UNL     1      -4.510 -41.456  19.481  1.00  0.00    -0.307 N
HETATM   15  C6  UNL     1      -5.556 -40.721  19.718  1.00  0.00     0.118 C
ATOM     16  H9  UNL     1      -4.365 -42.300  20.036  1.00  0.00     0.186 HD
BRANCH  15  17
HETATM   17  C7  UNL     1      -6.466 -41.136  20.762  1.00  0.00    -0.014 A
HETATM   18  C8  UNL     1      -7.429 -40.257  21.194  1.00  0.00     0.052 A
HETATM   19  C9  UNL     1      -8.320 -40.613  22.191  1.00  0.00     0.102 A
HETATM   20  C10 UNL     1      -8.212 -41.875  22.734  1.00  0.00     0.132 A
HETATM   21  C11 UNL     1      -7.252 -42.782  22.318  1.00  0.00     0.102 A
HETATM   22  C12 UNL     1      -6.391 -42.375  21.323  1.00  0.00     0.052 A
BRANCH  19  23
HETATM   23  O2  UNL     1      -9.313 -39.735  22.653  1.00  0.00    -0.358 OA
ATOM     24  H2  UNL     1     -10.173 -39.686  22.251  1.00  0.00     0.217 HD
ENDBRANCH  19  23
BRANCH  20  25
HETATM   25  O3  UNL     1      -9.068 -42.294  23.730  1.00  0.00    -0.356 OA
ATOM     26  H3  UNL     1      -8.764 -42.861  24.429  1.00  0.00     0.218 HD
ENDBRANCH  20  25
BRANCH  21  27
HETATM   27  O4  UNL     1      -7.117 -44.047  22.839  1.00  0.00    -0.358 OA
ATOM     28  H4  UNL     1      -6.399 -44.633  22.628  1.00  0.00     0.217 HD
ENDBRANCH  21  27
ENDBRANCH  15  17
ENDBRANCH  11  14
ENDBRANCH   6   8
BRANCH   7  29
HETATM   29  C13 UNL     1      -0.175 -40.227  15.812  1.00  0.00     0.250 C
BRANCH  29  30
HETATM   30  C14 UNL     1       0.465 -40.322  14.476  1.00  0.00     0.200 C
HETATM   31  O5  UNL     1      -0.127 -40.790  13.540  1.00  0.00    -0.291 OA
BRANCH  30  32
HETATM   32  C15 UNL     1       1.852 -39.834  14.293  1.00  0.00     0.327 C
BRANCH  32  33
HETATM   33  O6  UNL     1       1.937 -39.046  13.152  1.00  0.00    -0.365 OA
ATOM     34  H6  UNL     1       2.140 -39.584  12.395  1.00  0.00     0.213 HD
ENDBRANCH  32  33
BRANCH  32  35
HETATM   35  O7  UNL     1       2.131 -39.000  15.392  1.00  0.00    -0.365 OA
ATOM     36  H7  UNL     1       2.448 -38.179  15.034  1.00  0.00     0.213 HD
ENDBRANCH  32  35
ENDBRANCH  30  32
ENDBRANCH  29  30
ENDBRANCH   7  29
BRANCH   1  37
HETATM   37  N4  UNL     1      -0.557 -37.230  15.117  1.00  0.00    -0.054 N
HETATM   38  C1  UNL     1      -0.156 -36.323  16.003  1.00  0.00     0.174 A
HETATM   39  N1  UNL     1      -0.634 -36.115  17.341  1.00  0.00    -0.079 NA
HETATM   40  C2  UNL     1       0.838 -35.573  15.417  1.00  0.00     0.156 A
HETATM   41  N2  UNL     1       0.983 -36.080  14.186  1.00  0.00    -0.293 N
HETATM   42  N3  UNL     1       0.138 -37.071  14.026  1.00  0.00    -0.220 N
ATOM     43  H2  UNL     1       1.645 -35.748  13.484  1.00  0.00     0.187 HD
ATOM     44  H3  UNL     1       0.041 -37.631  13.179  1.00  0.00     0.209 HD
ENDBRANCH   1  37
TORSDOF 12
ENDMDL