MODEL 2
REMARK VINA RESULT: -6.312379155      2.726      7.950
REMARK  13 active torsions:
REMARK  status: ('A' for Active; 'I' for Inactive)
REMARK    1  A    between atoms: C2_2  and  O1_4
REMARK    2  A    between atoms: C2_2  and  C4_6
REMARK    3  A    between atoms: C4_6  and  O2_7
REMARK    4  A    between atoms: C4_6  and  C5_9
REMARK    5  A    between atoms: C7_13  and  O5_14
REMARK    6  A    between atoms: O5_14  and  C8_15
REMARK    7  A    between atoms: C9_18  and  N2_19
REMARK    8  A    between atoms: N2_19  and  O6_21
REMARK    9  A    between atoms: C12_26  and  O7_28
REMARK   10  A    between atoms: C14_30  and  O8_31
REMARK   11  A    between atoms: C15_33  and  O9_34
REMARK   12  A    between atoms: C16_36  and  O10_37
REMARK   13  A    between atoms: C16_36  and  C17_39
ROOT
HETATM    1  C8  UNL     1      -0.685 -39.851  15.260  1.00  0.00     0.251 C
HETATM    2  N1  UNL     1      -1.942 -39.673  14.618  1.00  0.00    -0.371 N
ATOM      3  H1  UNL     1      -2.030 -39.189  13.724  1.00  0.00     0.158 HD
HETATM    4  C9  UNL     1      -3.076 -40.216  15.305  1.00  0.00     0.221 C
HETATM    5  C10 UNL     1      -2.818 -41.502  15.994  1.00  0.00     0.173 C
HETATM    6  C11 UNL     1      -3.936 -42.014  16.751  1.00  0.00     0.071 C
HETATM    7  N3  UNL     1      -4.841 -42.458  17.361  1.00  0.00    -0.197 NA
HETATM    8  C12 UNL     1      -1.570 -41.468  16.855  1.00  0.00     0.104 C
HETATM    9  C13 UNL     1      -1.408 -42.854  17.445  1.00  0.00     0.050 C
HETATM   10  C14 UNL     1      -0.438 -41.170  15.894  1.00  0.00     0.202 C
ENDROOT
BRANCH   4  11
HETATM   11  N2  UNL     1      -3.495 -39.224  16.269  1.00  0.00    -0.280 N
ATOM     12  H2  UNL     1      -3.618 -39.443  17.257  1.00  0.00     0.189 HD
BRANCH  11  13
HETATM   13  O6  UNL     1      -3.710 -38.007  15.781  1.00  0.00    -0.292 OA
ATOM     14  H6  UNL     1      -4.620 -37.737  15.741  1.00  0.00     0.244 HD
ENDBRANCH  11  13
ENDBRANCH   4  11
BRANCH   8  15
HETATM   15  O7  UNL     1      -1.687 -40.493  17.835  1.00  0.00    -0.386 OA
ATOM     16  H7  UNL     1      -0.992 -40.585  18.476  1.00  0.00     0.210 HD
ENDBRANCH   8  15
BRANCH  10  17
HETATM   17  O8  UNL     1      -0.459 -42.148  14.902  1.00  0.00    -0.388 OA
ATOM     18  H8  UNL     1       0.054 -42.891  15.200  1.00  0.00     0.210 HD
ENDBRANCH  10  17
BRANCH   1  19
HETATM   19  O5  UNL     1       0.339 -39.652  14.307  1.00  0.00    -0.346 OA
BRANCH  19  20
HETATM   20  C7  UNL     1       0.332 -38.345  13.828  1.00  0.00     0.256 C
HETATM   21  C6  UNL     1       0.592 -38.401  12.366  1.00  0.00     0.291 C
HETATM   22  O3  UNL     1       1.139 -37.308  11.762  1.00  0.00    -0.307 OA
HETATM   23  O4  UNL     1       0.331 -39.416  11.658  1.00  0.00    -0.262 OA
HETATM   24  C5  UNL     1       1.766 -36.228  12.390  1.00  0.00     0.211 C
HETATM   25  C16 UNL     1       1.710 -36.242  13.867  1.00  0.00     0.204 C
HETATM   26  C15 UNL     1       1.477 -37.619  14.461  1.00  0.00     0.205 C
BRANCH  24  27
HETATM   27  C4  UNL     1       1.195 -34.955  11.781  1.00  0.00     0.184 C
BRANCH  27  28
HETATM   28  C2  UNL     1       1.606 -34.799  10.343  1.00  0.00     0.079 C
HETATM   29  C1  UNL     1       0.452 -35.101   9.394  1.00  0.00     0.048 C
HETATM   30  C3  UNL     1       2.148 -33.462   9.995  1.00  0.00     0.048 C
BRANCH  28  31
HETATM   31  O1  UNL     1       2.582 -35.759  10.083  1.00  0.00    -0.388 OA
ATOM     32  H1  UNL     1       3.028 -35.912  10.908  1.00  0.00     0.210 HD
ENDBRANCH  28  31
ENDBRANCH  27  28
BRANCH  27  33
HETATM   33  O2  UNL     1       1.686 -33.812  12.429  1.00  0.00    -0.390 OA
ATOM     34  H2  UNL     1       0.965 -33.499  12.962  1.00  0.00     0.210 HD
ENDBRANCH  27  33
ENDBRANCH  24  27
BRANCH  25  35
HETATM   35  O10 UNL     1       2.976 -35.844  14.365  1.00  0.00    -0.374 OA
ATOM     36  H10 UNL     1       3.159 -34.967  14.048  1.00  0.00     0.211 HD
ENDBRANCH  25  35
BRANCH  25  37
HETATM   37  C17 UNL     1       0.725 -35.329  14.468  1.00  0.00     0.214 C
HETATM   38  O11 UNL     1       1.022 -34.495  15.382  1.00  0.00    -0.646 OA
HETATM   39  O12 UNL     1      -0.631 -35.299  14.084  1.00  0.00    -0.646 OA
ENDBRANCH  25  37
BRANCH  26  40
HETATM   40  O9  UNL     1       2.605 -38.429  14.359  1.00  0.00    -0.389 OA
ATOM     41  H9  UNL     1       3.052 -38.205  13.552  1.00  0.00     0.210 HD
ENDBRANCH  26  40
ENDBRANCH  19  20
ENDBRANCH   1  19
TORSDOF 13
ENDMDL