MODEL 5
REMARK VINA RESULT: -6.496892711      1.796      5.466
REMARK  6 active torsions:
REMARK  status: ('A' for Active; 'I' for Inactive)
REMARK    1  A    between atoms: O1_1  and  C1_3
REMARK    2  A    between atoms: C1_3  and  C2_4
REMARK    3  A    between atoms: C3_6  and  O3_7
REMARK    4  A    between atoms: C4_9  and  N1_10
REMARK    5  A    between atoms: C8_14  and  O4_15
REMARK    6  A    between atoms: C9_17  and  O5_18
ROOT
HETATM    1  C2  UNL     1       8.524  98.479  13.930  1.00  0.00     0.289 C
HETATM    2  O2  UNL     1       7.169  98.626  13.548  1.00  0.00    -0.325 OA
HETATM    3  C3  UNL     1       7.362  98.784  12.158  1.00  0.00     0.319 C
HETATM    4  C4  UNL     1       8.326  97.696  11.853  1.00  0.00     0.420 C
HETATM    5  O6  UNL     1       9.071  97.585  13.043  1.00  0.00    -0.320 OA
ENDROOT
BRANCH   4   6
HETATM    6  N1  UNL     1       9.261  98.005  10.797  1.00  0.00     0.153 N
HETATM    7  C5  UNL     1       8.784  99.162  10.076  1.00  0.00     0.279 C
HETATM    8  C6  UNL     1       9.704  99.568   8.954  1.00  0.00     0.033 C
HETATM    9  C7  UNL     1      10.438  98.411   8.346  1.00  0.00     0.038 C
HETATM   10  C8  UNL     1       9.831  97.078   8.590  1.00  0.00     0.177 C
HETATM   11  C9  UNL     1       9.341  96.827   9.976  1.00  0.00     0.389 C
BRANCH  10  12
HETATM   12  O4  UNL     1      10.744  96.105   8.164  1.00  0.00    -0.391 OA
ATOM     13  H4  UNL     1      10.258  95.429   7.707  1.00  0.00     0.210 HD
ENDBRANCH  10  12
BRANCH  11  14
HETATM   14  O5  UNL     1      10.198  95.911  10.585  1.00  0.00    -0.366 OA
ATOM     15  H5  UNL     1      10.832  96.386  11.109  1.00  0.00     0.212 HD
ENDBRANCH  11  14
ENDBRANCH   4   6
BRANCH   3  16
HETATM   16  O3  UNL     1       6.119  98.637  11.564  1.00  0.00    -0.367 OA
ATOM     17  H3  UNL     1       6.161  99.088  10.728  1.00  0.00     0.212 HD
ENDBRANCH   3  16
BRANCH   1  18
HETATM   18  C1  UNL     1       8.596  98.062  15.362  1.00  0.00     0.225 C
BRANCH  18  19
HETATM   19  O1  UNL     1       9.929  98.112  15.787  1.00  0.00    -0.396 OA
ATOM     20  H1  UNL     1      10.262  97.226  15.871  1.00  0.00     0.209 HD
ENDBRANCH  18  19
ENDBRANCH   1  18
TORSDOF 6
ENDMDL