MODEL 3
REMARK VINA RESULT: -5.133337971      2.033      5.163
REMARK  7 active torsions:
REMARK  status: ('A' for Active; 'I' for Inactive)
REMARK    1  A    between atoms: C2_2  and  O1_5
REMARK    2  A    between atoms: O1_5  and  C5_6
REMARK    3  A    between atoms: C6_8  and  C7_9
REMARK    4  A    between atoms: C7_9  and  O3_10
REMARK    5  A    between atoms: C8_12  and  O4_13
REMARK    6  A    between atoms: C9_15  and  O5_16
REMARK    7  A    between atoms: C10_18  and  O6_19
ROOT
HETATM    1  C5  UNL     1       9.523  98.010  10.945  1.00  0.00     0.292 C
HETATM    2  O2  UNL     1       9.930  97.925  12.272  1.00  0.00    -0.348 OA
HETATM    3  C6  UNL     1       8.750  97.714  13.020  1.00  0.00     0.179 C
HETATM    4  C8  UNL     1       7.878  98.924  12.979  1.00  0.00     0.180 C
HETATM    5  C9  UNL     1       7.455  99.170  11.536  1.00  0.00     0.183 C
HETATM    6  C10 UNL     1       8.745  99.290  10.740  1.00  0.00     0.204 C
ENDROOT
BRANCH   1   7
HETATM    7  O1  UNL     1      10.489  97.810  10.027  1.00  0.00    -0.349 OA
BRANCH   7   8
HETATM    8  C2  UNL     1      10.498  96.675   9.296  1.00  0.00     0.053 C
HETATM    9  C1  UNL     1      11.926  96.104   9.358  1.00  0.00     0.045 C
HETATM   10  C3  UNL     1      10.194  96.834   7.821  1.00  0.00     0.045 C
HETATM   11  C4  UNL     1       9.602  95.578   9.815  1.00  0.00     0.045 C
ENDBRANCH   7   8
ENDBRANCH   1   7
BRANCH   6  12
HETATM   12  O6  UNL     1       8.545  99.483   9.394  1.00  0.00    -0.388 OA
ATOM     13  H6  UNL     1       8.877  98.730   8.920  1.00  0.00     0.210 HD
ENDBRANCH   6  12
BRANCH   3  14
HETATM   14  C7  UNL     1       9.083  97.376  14.456  1.00  0.00     0.198 C
BRANCH  14  15
HETATM   15  O3  UNL     1       9.259  98.523  15.215  1.00  0.00    -0.398 OA
ATOM     16  H3  UNL     1       8.877  99.281  14.789  1.00  0.00     0.209 HD
ENDBRANCH  14  15
ENDBRANCH   3  14
BRANCH   5  17
HETATM   17  O5  UNL     1       6.797  98.023  11.107  1.00  0.00    -0.390 OA
ATOM     18  H5  UNL     1       6.409  97.624  11.876  1.00  0.00     0.210 HD
ENDBRANCH   5  17
BRANCH   4  19
HETATM   19  O4  UNL     1       6.755  98.702  13.757  1.00  0.00    -0.390 OA
ATOM     20  H4  UNL     1       7.019  98.592  14.662  1.00  0.00     0.210 HD
ENDBRANCH   4  19
TORSDOF 7
ENDMDL