MODEL 3
REMARK VINA RESULT: -5.487663471      1.491      5.321
REMARK  5 active torsions:
REMARK  status: ('A' for Active; 'I' for Inactive)
REMARK    1  A    between atoms: O1_1  and  C1_3
REMARK    2  A    between atoms: C3_6  and  N1_7
REMARK    3  A    between atoms: N1_7  and  C4_9
REMARK    4  A    between atoms: C8_15  and  O5_16
REMARK    5  A    between atoms: C9_18  and  O6_19
ROOT
HETATM    1  C1  UNL     1       7.952  99.031  13.078  1.00  0.00     0.288 C
HETATM    2  O2  UNL     1       8.306  99.535  11.832  1.00  0.00    -0.357 OA
HETATM    3  C2  UNL     1       8.342  98.523  10.920  1.00  0.00     0.198 C
HETATM    4  C3  UNL     1       9.443  97.553  11.217  1.00  0.00     0.134 C
HETATM    5  C8  UNL     1       9.711  97.279  12.651  1.00  0.00     0.176 C
HETATM    6  C9  UNL     1       9.030  98.151  13.654  1.00  0.00     0.203 C
ENDROOT
BRANCH   4   7
HETATM    7  N1  UNL     1       9.153  96.351  10.490  1.00  0.00    -0.386 N
ATOM      8  H1  UNL     1       8.251  95.880  10.565  1.00  0.00     0.156 HD
BRANCH   7   9
HETATM    9  C4  UNL     1      10.196  95.852   9.658  1.00  0.00     0.240 C
HETATM   10  C5  UNL     1       9.882  95.782   8.199  1.00  0.00     0.221 C
HETATM   11  O3  UNL     1       9.778  97.108   7.734  1.00  0.00    -0.385 OA
HETATM   12  C6  UNL     1      11.058  97.581   7.567  1.00  0.00     0.194 C
HETATM   13  C7  UNL     1      11.938  96.973   8.636  1.00  0.00     0.196 C
HETATM   14  O4  UNL     1      11.299  96.683   9.813  1.00  0.00    -0.363 OA
ENDBRANCH   7   9
ENDBRANCH   4   7
BRANCH   5  15
HETATM   15  O5  UNL     1      11.100  97.433  12.893  1.00  0.00    -0.391 OA
ATOM     16  H5  UNL     1      11.216  97.953  13.679  1.00  0.00     0.210 HD
ENDBRANCH   5  15
BRANCH   6  17
HETATM   17  O6  UNL     1       8.428  97.329  14.606  1.00  0.00    -0.388 OA
ATOM     18  H6  UNL     1       9.085  97.132  15.263  1.00  0.00     0.210 HD
ENDBRANCH   6  17
BRANCH   1  19
HETATM   19  O1  UNL     1       6.761  98.327  12.952  1.00  0.00    -0.369 OA
ATOM     20  H1  UNL     1       6.308  98.341  13.788  1.00  0.00     0.212 HD
ENDBRANCH   1  19
TORSDOF 5
ENDMDL