MODEL 4
REMARK VINA RESULT: -6.067156330      1.454      1.748
REMARK  6 active torsions:
REMARK  status: ('A' for Active; 'I' for Inactive)
REMARK    1  A    between atoms: O1_1  and  C1_3
REMARK    2  A    between atoms: C1_3  and  C2_4
REMARK    3  A    between atoms: C6_9  and  O3_10
REMARK    4  A    between atoms: C7_12  and  O4_13
REMARK    5  A    between atoms: C8_15  and  O5_16
REMARK    6  A    between atoms: C9_19  and  O7_20
ROOT
HETATM    1  C2  UNL     1      10.470  95.121  10.577  1.00  0.00     0.204 C
HETATM    2  O2  UNL     1       9.488  95.992  10.969  1.00  0.00    -0.337 OA
HETATM    3  C3  UNL     1       9.991  97.282  10.899  1.00  0.00     0.215 C
HETATM    4  C4  UNL     1       9.352  97.980   9.750  1.00  0.00     0.042 C
HETATM    5  C5  UNL     1       8.466  98.961   9.890  1.00  0.00     0.008 C
HETATM    6  C6  UNL     1       8.024  99.460  11.234  1.00  0.00     0.172 C
HETATM    7  C7  UNL     1       8.172  98.271  12.177  1.00  0.00     0.185 C
HETATM    8  C8  UNL     1       9.669  97.960  12.214  1.00  0.00     0.216 C
HETATM    9  O6  UNL     1      11.349  97.193  10.659  1.00  0.00    -0.316 OA
HETATM   10  C9  UNL     1      11.576  95.968  10.039  1.00  0.00     0.292 C
ENDROOT
BRANCH   8  11
HETATM   11  O5  UNL     1       9.876  97.060  13.246  1.00  0.00    -0.387 OA
ATOM     12  H5  UNL     1       9.346  97.318  13.991  1.00  0.00     0.210 HD
ENDBRANCH   8  11
BRANCH   1  13
HETATM   13  C1  UNL     1       9.922  94.140   9.568  1.00  0.00     0.201 C
BRANCH  13  14
HETATM   14  O1  UNL     1       9.296  93.058  10.143  1.00  0.00    -0.398 OA
ATOM     15  H1  UNL     1       9.705  92.773  10.951  1.00  0.00     0.209 HD
ENDBRANCH  13  14
ENDBRANCH   1  13
BRANCH   7  16
HETATM   16  O4  UNL     1       7.642  98.493  13.414  1.00  0.00    -0.390 OA
ATOM     17  H4  UNL     1       7.855  97.813  14.042  1.00  0.00     0.210 HD
ENDBRANCH   7  16
BRANCH  10  18
HETATM   18  O7  UNL     1      11.473  96.028   8.666  1.00  0.00    -0.368 OA
ATOM     19  H7  UNL     1      12.265  95.677   8.278  1.00  0.00     0.212 HD
ENDBRANCH  10  18
BRANCH   6  20
HETATM   20  O3  UNL     1       6.720  99.898  11.193  1.00  0.00    -0.389 OA
ATOM     21  H3  UNL     1       6.113  99.169  11.252  1.00  0.00     0.210 HD
ENDBRANCH   6  20
TORSDOF 6
ENDMDL