MODEL 4
REMARK VINA RESULT: -5.477511083      1.436      3.097
REMARK  7 active torsions:
REMARK  status: ('A' for Active; 'I' for Inactive)
REMARK    1  A    between atoms: C1_2  and  C2_3
REMARK    2  A    between atoms: C4_6  and  C5_7
REMARK    3  A    between atoms: C6_8  and  C7_9
REMARK    4  A    between atoms: C7_9  and  O3_10
REMARK    5  A    between atoms: C8_12  and  O4_13
REMARK    6  A    between atoms: C9_15  and  O5_16
REMARK    7  A    between atoms: C10_18  and  O6_19
ROOT
HETATM    1  C2  UNL     1      10.862  97.176  10.594  1.00  0.00     0.169 A
HETATM    2  O2  UNL     1      11.690  98.102  11.392  1.00  0.00    -0.358 OA
HETATM    3  C3  UNL     1      10.547  97.276  11.909  1.00  0.00     0.177 A
HETATM    4  C4  UNL     1       9.502  98.191  12.421  1.00  0.00     0.072 C
HETATM    5  C8  UNL     1       8.593  98.688  11.304  1.00  0.00     0.159 C
HETATM    6  C9  UNL     1       9.454  99.178  10.172  1.00  0.00     0.179 C
HETATM    7  C10 UNL     1      10.103  97.949   9.553  1.00  0.00     0.193 C
ENDROOT
BRANCH   4   8
HETATM    8  C5  UNL     1       8.655  97.645  13.506  1.00  0.00    -0.019 C
HETATM    9  C6  UNL     1       8.386  98.321  14.598  1.00  0.00    -0.005 C
BRANCH   9  10
HETATM   10  C7  UNL     1       7.512  97.715  15.679  1.00  0.00     0.191 C
BRANCH  10  11
HETATM   11  O3  UNL     1       7.616  98.592  16.766  1.00  0.00    -0.397 OA
ATOM     12  H3  UNL     1       7.194  99.393  16.477  1.00  0.00     0.209 HD
ENDBRANCH  10  11
ENDBRANCH   9  10
ENDBRANCH   4   8
BRANCH   5  13
HETATM   13  O4  UNL     1       7.775  97.637  10.951  1.00  0.00    -0.392 OA
ATOM     14  H4  UNL     1       7.560  97.746  10.032  1.00  0.00     0.210 HD
ENDBRANCH   5  13
BRANCH   1  15
HETATM   15  C1  UNL     1      11.688  96.092  10.047  1.00  0.00     0.274 C
HETATM   16  O1  UNL     1      12.192  96.198   8.954  1.00  0.00    -0.303 OA
ENDBRANCH   1  15
BRANCH   6  17
HETATM   17  O5  UNL     1       8.718  99.857   9.214  1.00  0.00    -0.390 OA
ATOM     18  H5  UNL     1       7.812  99.972   9.475  1.00  0.00     0.210 HD
ENDBRANCH   6  17
BRANCH   7  19
HETATM   19  O6  UNL     1       9.107  97.152   9.040  1.00  0.00    -0.389 OA
ATOM     20  H6  UNL     1       8.648  97.630   8.359  1.00  0.00     0.210 HD
ENDBRANCH   7  19
TORSDOF 7
ENDMDL