MODEL 2
REMARK VINA RESULT: -5.857671218      1.576      3.099
REMARK  7 active torsions:
REMARK  status: ('A' for Active; 'I' for Inactive)
REMARK    1  A    between atoms: O1_1  and  C1_3
REMARK    2  A    between atoms: C1_3  and  C2_4
REMARK    3  A    between atoms: C4_8  and  C5_9
REMARK    4  A    between atoms: C5_9  and  O4_10
REMARK    5  A    between atoms: C6_12  and  O5_13
REMARK    6  A    between atoms: C8_17  and  C9_18
REMARK    7  A    between atoms: C9_18  and  O7_19
ROOT
HETATM    1  C2  UNL     1       9.722  96.763  10.827  1.00  0.00     0.179 C
HETATM    2  O2  UNL     1      10.395  97.160  11.980  1.00  0.00    -0.348 OA
HETATM    3  C3  UNL     1       9.463  97.215  12.989  1.00  0.00     0.292 C
HETATM    4  O3  UNL     1       9.842  98.099  14.011  1.00  0.00    -0.348 OA
HETATM    5  C4  UNL     1       8.670  98.261  14.755  1.00  0.00     0.179 C
HETATM    6  C6  UNL     1       7.671  98.576  13.650  1.00  0.00     0.183 C
HETATM    7  C7  UNL     1       8.074  97.519  12.611  1.00  0.00     0.208 C
HETATM    8  O6  UNL     1       7.812  98.005  11.384  1.00  0.00    -0.368 OA
HETATM    9  C8  UNL     1       8.825  97.898  10.447  1.00  0.00     0.176 C
ENDROOT
BRANCH   1  10
HETATM   10  C1  UNL     1      10.633  96.269   9.759  1.00  0.00     0.198 C
BRANCH  10  11
HETATM   11  O1  UNL     1      11.852  96.975   9.892  1.00  0.00    -0.398 OA
ATOM     12  H1  UNL     1      12.032  97.048  10.822  1.00  0.00     0.209 HD
ENDBRANCH  10  11
ENDBRANCH   1  10
BRANCH   9  13
HETATM   13  C9  UNL     1       9.558  99.224  10.472  1.00  0.00     0.198 C
BRANCH  13  14
HETATM   14  O7  UNL     1      10.247  99.502   9.311  1.00  0.00    -0.398 OA
ATOM     15  H7  UNL     1      11.132  99.155   9.296  1.00  0.00     0.209 HD
ENDBRANCH  13  14
ENDBRANCH   9  13
BRANCH   5  16
HETATM   16  C5  UNL     1       8.802  99.423  15.710  1.00  0.00     0.198 C
BRANCH  16  17
HETATM   17  O4  UNL     1       7.591 100.102  15.742  1.00  0.00    -0.398 OA
ATOM     18  H4  UNL     1       7.266 100.173  14.853  1.00  0.00     0.209 HD
ENDBRANCH  16  17
ENDBRANCH   5  16
BRANCH   6  19
HETATM   19  O5  UNL     1       6.369  98.426  14.044  1.00  0.00    -0.390 OA
ATOM     20  H5  UNL     1       5.928  99.254  14.192  1.00  0.00     0.210 HD
ENDBRANCH   6  19
TORSDOF 7
ENDMDL