MODEL 1
REMARK VINA RESULT: -6.269885576      0.000      0.000
REMARK  7 active torsions:
REMARK  status: ('A' for Active; 'I' for Inactive)
REMARK    1  A    between atoms: C2_2  and  O1_3
REMARK    2  A    between atoms: O1_3  and  C3_4
REMARK    3  A    between atoms: C4_5  and  O2_6
REMARK    4  A    between atoms: C5_8  and  O3_9
REMARK    5  A    between atoms: C6_11  and  O4_12
REMARK    6  A    between atoms: C7_14  and  O5_15
REMARK    7  A    between atoms: C8_17  and  O6_18
ROOT
HETATM    1  O6  UNL     1       8.438  98.929  11.355  1.00  0.00    -0.273 OA
HETATM    2  C9  UNL     1       7.122  98.959  11.714  1.00  0.00     0.229 C
HETATM    3  N1  UNL     1       5.993  98.984  12.027  1.00  0.00    -0.164 NA
ENDROOT
BRANCH   1   4
HETATM    4  C8  UNL     1       8.966  97.781  10.725  1.00  0.00     0.204 C
HETATM    5  C3  UNL     1       9.396  98.156   9.340  1.00  0.00     0.185 C
HETATM    6  C4  UNL     1      10.308  97.166   8.689  1.00  0.00     0.181 C
HETATM    7  C5  UNL     1      11.392  96.683   9.624  1.00  0.00     0.180 C
HETATM    8  C6  UNL     1      10.682  96.062  10.818  1.00  0.00     0.180 C
HETATM    9  C7  UNL     1      10.096  97.265  11.574  1.00  0.00     0.182 C
BRANCH   5  10
HETATM   10  O1  UNL     1       9.978  99.419   9.320  1.00  0.00    -0.381 OA
BRANCH  10  11
HETATM   11  C2  UNL     1       9.457 100.187   8.265  1.00  0.00     0.164 C
HETATM   12  C1  UNL     1       8.039 100.589   8.508  1.00  0.00     0.033 C
ENDBRANCH  10  11
ENDBRANCH   5  10
BRANCH   6  13
HETATM   13  O2  UNL     1      10.971  97.845   7.642  1.00  0.00    -0.390 OA
ATOM     14  H2  UNL     1      11.797  98.155   7.993  1.00  0.00     0.210 HD
ENDBRANCH   6  13
BRANCH   7  15
HETATM   15  O3  UNL     1      12.263  95.840   9.006  1.00  0.00    -0.390 OA
ATOM     16  H3  UNL     1      13.041  95.683   9.529  1.00  0.00     0.210 HD
ENDBRANCH   7  15
BRANCH   8  17
HETATM   17  O4  UNL     1       9.557  95.329  10.399  1.00  0.00    -0.390 OA
ATOM     18  H4  UNL     1       9.133  94.915  11.141  1.00  0.00     0.210 HD
ENDBRANCH   8  17
BRANCH   9  19
HETATM   19  O5  UNL     1       9.637  96.798  12.774  1.00  0.00    -0.390 OA
ATOM     20  H5  UNL     1       9.779  97.487  13.413  1.00  0.00     0.210 HD
ENDBRANCH   9  19
ENDBRANCH   1   4
TORSDOF 7
ENDMDL