MODEL 5
REMARK VINA RESULT: -4.770680103      2.382      4.722
REMARK  6 active torsions:
REMARK  status: ('A' for Active; 'I' for Inactive)
REMARK    1  A    between atoms: N1_2  and  C3_4
REMARK    2  A    between atoms: C5_7  and  C6_8
REMARK    3  A    between atoms: C6_8  and  O2_9
REMARK    4  A    between atoms: C8_12  and  O3_13
REMARK    5  A    between atoms: C9_15  and  O4_16
REMARK    6  A    between atoms: C10_18  and  O5_19
ROOT
HETATM    1  C3  UNL     1       2.414 102.604  13.150  1.00  0.00     0.262 C
HETATM    2  C4  UNL     1       1.489 101.997  12.149  1.00  0.00     0.187 C
HETATM    3  O1  UNL     1       2.026 102.471  10.941  1.00  0.00    -0.373 OA
HETATM    4  C5  UNL     1       3.370 102.626  11.083  1.00  0.00     0.154 C
HETATM    5  C7  UNL     1       3.740 102.251  12.525  1.00  0.00     0.084 C
HETATM    6  C8  UNL     1       3.980 100.757  12.512  1.00  0.00     0.158 C
HETATM    7  C9  UNL     1       2.938 100.063  11.683  1.00  0.00     0.178 C
HETATM    8  C10 UNL     1       1.560 100.501  12.083  1.00  0.00     0.180 C
ENDROOT
BRANCH   1   9
HETATM    9  N1  UNL     1       2.254 102.174  14.490  1.00  0.00     0.087 N
HETATM   10  C1  UNL     1       3.318 102.823  15.278  1.00  0.00     0.310 C
HETATM   11  C2  UNL     1       1.013 102.784  14.994  1.00  0.00     0.310 C
ENDBRANCH   1   9
BRANCH   8  12
HETATM   12  O5  UNL     1       1.122  99.856  13.213  1.00  0.00    -0.390 OA
ATOM     13  H5  UNL     1       1.540 100.138  14.019  1.00  0.00     0.210 HD
ENDBRANCH   8  12
BRANCH   4  14
HETATM   14  C6  UNL     1       3.730 104.085  10.894  1.00  0.00     0.196 C
BRANCH  14  15
HETATM   15  O2  UNL     1       4.735 104.444  11.784  1.00  0.00    -0.398 OA
ATOM     16  H2  UNL     1       4.711 103.878  12.546  1.00  0.00     0.209 HD
ENDBRANCH  14  15
ENDBRANCH   4  14
BRANCH   6  17
HETATM   17  O3  UNL     1       5.213 100.560  11.855  1.00  0.00    -0.392 OA
ATOM     18  H3  UNL     1       5.675  99.893  12.350  1.00  0.00     0.210 HD
ENDBRANCH   6  17
BRANCH   7  19
HETATM   19  O4  UNL     1       3.028  98.671  11.864  1.00  0.00    -0.390 OA
ATOM     20  H4  UNL     1       3.128  98.469  12.787  1.00  0.00     0.210 HD
ENDBRANCH   7  19
TORSDOF 6
ENDMDL