MODEL 2
REMARK VINA RESULT: -6.222502132      1.262      1.469
REMARK  7 active torsions:
REMARK  status: ('A' for Active; 'I' for Inactive)
REMARK    1  A    between atoms: S1_3  and  C3_4
REMARK    2  A    between atoms: C4_6  and  C5_7
REMARK    3  A    between atoms: C5_7  and  O2_8
REMARK    4  A    between atoms: C6_10  and  O3_11
REMARK    5  A    between atoms: C7_13  and  O4_14
REMARK    6  A    between atoms: C8_16  and  C9_17
REMARK    7  A    between atoms: C9_17  and  O5_18
ROOT
HETATM    1  C1  UNL     1       5.419  99.202  12.008  1.00  0.00     0.025 C
HETATM    2  C2  UNL     1       6.516  98.732  12.229  1.00  0.00    -0.040 C
HETATM    3  S1  UNL     1       8.126  98.067  12.540  1.00  0.00    -0.019 SA
ENDROOT
BRANCH   3   4
HETATM    4  C3  UNL     1       8.679  97.128  11.115  1.00  0.00     0.338 C
HETATM    5  O1  UNL     1       9.869  96.440  11.317  1.00  0.00    -0.341 OA
HETATM    6  C4  UNL     1      10.204  95.849  10.099  1.00  0.00     0.180 C
HETATM    7  C6  UNL     1      11.372  96.629   9.541  1.00  0.00     0.180 C
HETATM    8  C7  UNL     1      10.859  97.873   8.870  1.00  0.00     0.180 C
HETATM    9  C8  UNL     1       9.961  98.596   9.838  1.00  0.00     0.180 C
HETATM   10  O6  UNL     1       8.786  97.864   9.964  1.00  0.00    -0.341 OA
BRANCH   6  11
HETATM   11  C5  UNL     1      10.566  94.397  10.331  1.00  0.00     0.198 C
BRANCH  11  12
HETATM   12  O2  UNL     1       9.531  93.540   9.911  1.00  0.00    -0.398 OA
ATOM     13  H2  UNL     1       9.854  92.884   9.303  1.00  0.00     0.209 HD
ENDBRANCH  11  12
ENDBRANCH   6  11
BRANCH   7  14
HETATM   14  O3  UNL     1      12.057  95.810   8.645  1.00  0.00    -0.390 OA
ATOM     15  H3  UNL     1      12.530  95.153   9.143  1.00  0.00     0.210 HD
ENDBRANCH   7  14
BRANCH   8  16
HETATM   16  O4  UNL     1      10.103  97.432   7.765  1.00  0.00    -0.390 OA
ATOM     17  H4  UNL     1      10.629  97.620   6.996  1.00  0.00     0.210 HD
ENDBRANCH   8  16
BRANCH   9  18
HETATM   18  C9  UNL     1       9.554  99.969   9.339  1.00  0.00     0.198 C
BRANCH  18  19
HETATM   19  O5  UNL     1       8.280 100.341   9.705  1.00  0.00    -0.398 OA
ATOM     20  H5  UNL     1       7.600 100.003   9.133  1.00  0.00     0.209 HD
ENDBRANCH  18  19
ENDBRANCH   9  18
ENDBRANCH   3   4
TORSDOF 7
ENDMDL