MODEL 4
REMARK VINA RESULT: -5.630316768      2.340      3.789
REMARK  6 active torsions:
REMARK  status: ('A' for Active; 'I' for Inactive)
REMARK    1  A    between atoms: O1_1  and  C1_3
REMARK    2  A    between atoms: C1_3  and  C2_4
REMARK    3  A    between atoms: C3_6  and  N1_7
REMARK    4  A    between atoms: C7_13  and  O3_14
REMARK    5  A    between atoms: C8_16  and  O4_17
REMARK    6  A    between atoms: C9_19  and  O5_20
ROOT
HETATM    1  C2  UNL     1       8.247  99.094  11.388  1.00  0.00     0.179 C
HETATM    2  O2  UNL     1       8.071  98.922  12.697  1.00  0.00    -0.352 OA
HETATM    3  C3  UNL     1       8.746  97.987  13.386  1.00  0.00     0.275 C
HETATM    4  C7  UNL     1      10.011  97.463  12.828  1.00  0.00     0.200 C
HETATM    5  C8  UNL     1      10.349  97.964  11.450  1.00  0.00     0.182 C
HETATM    6  C9  UNL     1       9.010  97.999  10.703  1.00  0.00     0.180 C
ENDROOT
BRANCH   3   7
HETATM    7  N1  UNL     1       8.936  98.501  14.753  1.00  0.00    -0.272 N
HETATM    8  C4  UNL     1       8.065  99.213  15.493  1.00  0.00     0.114 A
HETATM    9  C5  UNL     1       8.642  99.499  16.733  1.00  0.00     0.037 A
HETATM   10  C6  UNL     1       9.880  98.930  16.689  1.00  0.00     0.108 A
HETATM   11  N2  UNL     1      10.032  98.338  15.494  1.00  0.00    -0.308 N
ATOM     12  H2  UNL     1      10.868  97.836  15.196  1.00  0.00     0.186 HD
ENDBRANCH   3   7
BRANCH   4  13
HETATM   13  O3  UNL     1       9.999  96.052  12.698  1.00  0.00    -0.388 OA
ATOM     14  H3  UNL     1       9.225  95.737  12.246  1.00  0.00     0.210 HD
ENDBRANCH   4  13
BRANCH   1  15
HETATM   15  C1  UNL     1       6.882  99.313  10.723  1.00  0.00     0.198 C
BRANCH  15  16
HETATM   16  O1  UNL     1       6.000  99.876  11.640  1.00  0.00    -0.398 OA
ATOM     17  H1  UNL     1       5.973 100.818  11.520  1.00  0.00     0.209 HD
ENDBRANCH  15  16
ENDBRANCH   1  15
BRANCH   5  18
HETATM   18  O4  UNL     1      11.284  97.196  10.814  1.00  0.00    -0.390 OA
ATOM     19  H4  UNL     1      12.015  97.700  10.476  1.00  0.00     0.210 HD
ENDBRANCH   5  18
BRANCH   6  20
HETATM   20  O5  UNL     1       8.344  96.789  10.980  1.00  0.00    -0.390 OA
ATOM     21  H5  UNL     1       9.010  96.137  11.164  1.00  0.00     0.210 HD
ENDBRANCH   6  20
TORSDOF 6
ENDMDL