MODEL 4
REMARK VINA RESULT: -5.591316739      0.109      1.831
REMARK  1 active torsions:
REMARK  status: ('A' for Active; 'I' for Inactive)
REMARK       I    between atoms: N3_4  and  C2_6
REMARK    1  A    between atoms: C2_6  and  C3_8
ROOT
HETATM    1  C3  UNL     1       8.620  -6.730  -0.900  1.00  0.00     0.042 C
HETATM    2  C4  UNL     1       7.819  -6.577   0.395  1.00  0.00     0.024 C
HETATM    3  C5  UNL     1       8.562  -5.655   1.323  1.00  0.00    -0.013 C
HETATM    4  C6  UNL     1       9.898  -6.248   1.653  1.00  0.00     0.009 C
HETATM    5  C7  UNL     1      10.729  -6.331   0.395  1.00  0.00    -0.013 C
HETATM    6  C8  UNL     1      10.893  -4.961  -0.251  1.00  0.00     0.009 C
HETATM    7  C9  UNL     1       9.527  -4.453  -0.576  1.00  0.00    -0.013 C
HETATM    8  C10 UNL     1       8.773  -4.281   0.735  1.00  0.00     0.009 C
HETATM    9  C11 UNL     1       8.737  -5.333  -1.482  1.00  0.00     0.024 C
HETATM   10  C12 UNL     1      10.025  -7.204  -0.610  1.00  0.00     0.024 C
ENDROOT
BRANCH   1  11
HETATM   11  C2  UNL     1       7.971  -7.660  -1.821  1.00  0.00     0.232 C
HETATM   12  N3  UNL     1       7.507  -7.290  -3.116  1.00  0.00    -0.303 N
HETATM   13  C1  UNL     1       6.448  -7.840  -3.582  1.00  0.00     0.203 C
ATOM     14  H3  UNL     1       8.012  -6.594  -3.666  1.00  0.00     0.171 HD
HETATM   15  N1  UNL     1       5.724  -8.807  -2.848  1.00  0.00    -0.066 NA
HETATM   16  N2  UNL     1       5.990  -7.471  -4.868  1.00  0.00    -0.066 NA
HETATM   17  O1  UNL     1       7.801  -8.857  -1.483  1.00  0.00    -0.272 OA
ENDBRANCH   1  11
TORSDOF 1
ENDMDL