MODEL 3
REMARK VINA RESULT: -5.252585850      3.359      5.292
REMARK  4 active torsions:
REMARK  status: ('A' for Active; 'I' for Inactive)
REMARK    1  A    between atoms: C2_2  and  N3_16
REMARK    2  A    between atoms: N1_3  and  C3_5
REMARK    3  A    between atoms: C3_5  and  C4_9
REMARK    4  A    between atoms: N3_16  and  N4_18
ROOT
HETATM    1  C3  UNL     1       9.435  -6.877   2.756  1.00  0.00     0.080 C
HETATM    2  N2  UNL     1      10.258  -6.885   3.749  1.00  0.00    -0.389 N
ATOM      3  H21 UNL     1      10.347  -7.684   4.376  1.00  0.00     0.157 HD
ATOM      4  H22 UNL     1      10.842  -6.065   3.917  1.00  0.00     0.157 HD
ENDROOT
BRANCH   1   5
HETATM    5  N1  UNL     1       9.312  -5.767   1.885  1.00  0.00    -0.335 N
HETATM    6  C2  UNL     1      10.212  -5.563   0.992  1.00  0.00     0.100 C
HETATM    7  C1  UNL     1      11.357  -6.485   0.887  1.00  0.00     0.091 C
ATOM      8  H1  UNL     1       8.515  -5.135   1.967  1.00  0.00     0.168 HD
BRANCH   6   9
HETATM    9  N3  UNL     1      10.124  -4.458   0.101  1.00  0.00    -0.207 N
ATOM     10  H3  UNL     1      10.731  -3.656   0.269  1.00  0.00     0.195 HD
BRANCH   9  11
HETATM   11  N4  UNL     1       9.263  -4.406  -0.980  1.00  0.00     0.002 N
HETATM   12  C11 UNL     1       9.866  -3.692  -2.084  1.00  0.00     0.301 C
HETATM   13  C12 UNL     1       8.020  -3.750  -0.563  1.00  0.00     0.301 C
HETATM   14  C13 UNL     1       8.880  -5.719  -1.462  1.00  0.00     0.301 C
ENDBRANCH   9  11
ENDBRANCH   6   9
ENDBRANCH   1   5
BRANCH   1  15
HETATM   15  C4  UNL     1       8.597  -8.053   2.516  1.00  0.00     0.058 C
HETATM   16  C5  UNL     1       7.338  -7.710   1.762  1.00  0.00     0.017 C
HETATM   17  C6  UNL     1       7.280  -8.609   0.556  1.00  0.00    -0.009 C
HETATM   18  C7  UNL     1       6.870 -10.013   1.022  1.00  0.00     0.010 C
HETATM   19  C9  UNL     1       8.672  -9.124   0.414  1.00  0.00    -0.001 A
HETATM   20  C8  UNL     1       8.313 -10.270   1.322  1.00  0.00    -0.004 A
HETATM   21  C10 UNL     1       9.235  -9.153   1.742  1.00  0.00     0.006 A
ENDBRANCH   1  15
TORSDOF 4
ENDMDL