MODEL 5
REMARK VINA RESULT: -5.329758813      2.983      4.902
REMARK  2 active torsions:
REMARK  status: ('A' for Active; 'I' for Inactive)
REMARK    1  A    between atoms: C1_4  and  C2_6
REMARK    2  A    between atoms: N3_8  and  C4_9
ROOT
HETATM    1  C4  UNL     1       8.602  -7.289  -0.458  1.00  0.00     0.162 C
HETATM    2  C5  UNL     1      10.058  -7.613  -0.289  1.00  0.00     0.046 C
HETATM    3  C6  UNL     1      10.755  -6.428   0.340  1.00  0.00    -0.011 C
HETATM    4  C7  UNL     1      10.098  -6.131   1.660  1.00  0.00     0.009 C
HETATM    5  C8  UNL     1       8.697  -5.647   1.426  1.00  0.00    -0.011 C
HETATM    6  C9  UNL     1       8.615  -4.493   0.470  1.00  0.00     0.009 C
HETATM    7  C10 UNL     1       9.215  -4.904  -0.843  1.00  0.00    -0.011 C
HETATM    8  C11 UNL     1      10.684  -5.246  -0.593  1.00  0.00     0.009 C
HETATM    9  C12 UNL     1       8.558  -6.107  -1.440  1.00  0.00     0.046 C
HETATM   10  C13 UNL     1       7.928  -6.817   0.797  1.00  0.00     0.046 C
ENDROOT
BRANCH   1  11
HETATM   11  N3  UNL     1       7.825  -8.323  -1.048  1.00  0.00     0.114 N
HETATM   12  C2  UNL     1       6.453  -8.554  -0.660  1.00  0.00     0.315 A
HETATM   13  C3  UNL     1       7.498  -9.549  -0.389  1.00  0.00     0.318 A
BRANCH  12  14
HETATM   14  C1  UNL     1       5.504  -8.699  -1.784  1.00  0.00     0.122 C
HETATM   15  N1  UNL     1       4.281  -9.008  -1.548  1.00  0.00    -0.389 N
ATOM     16  H12 UNL     1       3.627  -9.107  -2.324  1.00  0.00     0.157 HD
ATOM     17  H11 UNL     1       3.940  -9.158  -0.599  1.00  0.00     0.157 HD
HETATM   18  N2  UNL     1       5.978  -8.490  -3.105  1.00  0.00    -0.086 NA
ENDBRANCH  12  14
ENDBRANCH   1  11
TORSDOF 2
ENDMDL