MODEL 5
REMARK VINA RESULT: -5.064068070      2.071      3.259
REMARK  2 active torsions:
REMARK  status: ('A' for Active; 'I' for Inactive)
REMARK    1  A    between atoms: C3_4  and  C4_5
REMARK    2  A    between atoms: C8_9  and  N2_10
REMARK       I    between atoms: N2_10  and  C9_12
ROOT
HETATM    1  C1  UNL     1       9.602  -9.349  -0.424  1.00  0.00     0.221 C
HETATM    2  N1  UNL     1       8.969  -8.389  -0.578  1.00  0.00    -0.465 NA
HETATM    3  C2  UNL     1       8.204  -7.211  -0.754  1.00  0.00     0.178 A
HETATM    4  C3  UNL     1       8.731  -6.140  -1.591  1.00  0.00     0.042 A
HETATM    5  C4  UNL     1       8.392  -4.701  -1.541  1.00  0.00     0.003 C
HETATM    6  C5  UNL     1       9.597  -3.861  -1.124  1.00  0.00    -0.003 C
HETATM    7  C6  UNL     1      10.926  -4.520  -1.253  1.00  0.00     0.008 C
HETATM    8  C7  UNL     1      11.037  -5.563  -0.166  1.00  0.00     0.033 C
HETATM    9  C8  UNL     1       9.744  -5.541   0.605  1.00  0.00     0.050 C
HETATM   10  C10 UNL     1       9.238  -4.142   0.304  1.00  0.00     0.024 C
HETATM   11  C11 UNL     1       7.978  -4.706  -0.125  1.00  0.00     0.012 C
HETATM   12  C12 UNL     1       8.548  -6.067  -0.031  1.00  0.00     0.029 A
ENDROOT
BRANCH   9  13
HETATM   13  N2  UNL     1       9.831  -5.838   2.017  1.00  0.00    -0.335 N
HETATM   14  C9  UNL     1      10.651  -6.860   2.546  1.00  0.00     0.329 C
HETATM   15  N3  UNL     1      10.671  -7.077   3.947  1.00  0.00    -0.040 NA
HETATM   16  O1  UNL     1      11.364  -7.586   1.814  1.00  0.00    -0.251 OA
ATOM     17  H2  UNL     1       9.274  -5.281   2.665  1.00  0.00     0.164 HD
ENDBRANCH   9  13
TORSDOF 2
ENDMDL