MODEL 3
REMARK VINA RESULT: -5.485149151      2.116      3.543
REMARK  2 active torsions:
REMARK  status: ('A' for Active; 'I' for Inactive)
REMARK       I    between atoms: C1_2  and  N4_13
REMARK       I    between atoms: N2_3  and  C2_5
REMARK       I    between atoms: C2_5  and  N3_7
REMARK    1  A    between atoms: N4_13  and  C8_15
REMARK    2  A    between atoms: C8_15  and  C9_16
ROOT
HETATM    1  N1  UNL     1       8.767  -3.998   0.294  1.00  0.00    -0.063 NA
HETATM    2  C1  UNL     1       8.719  -4.718  -0.931  1.00  0.00     0.192 C
HETATM    3  N2  UNL     1       8.500  -6.004  -0.862  1.00  0.00    -0.283 N
ATOM      4  H2  UNL     1       8.460  -6.549  -1.723  1.00  0.00     0.173 HD
HETATM    5  C2  UNL     1       8.316  -6.663   0.386  1.00  0.00     0.324 C
HETATM    6  O1  UNL     1       7.138  -6.799   0.844  1.00  0.00    -0.247 OA
HETATM    7  N3  UNL     1       9.374  -7.183   1.151  1.00  0.00    -0.334 N
HETATM    8  C3  UNL     1       9.129  -7.837   2.401  1.00  0.00     0.127 C
HETATM    9  C4  UNL     1      10.075  -7.417   3.493  1.00  0.00     0.020 C
HETATM   10  C5  UNL     1      11.510  -7.398   3.045  1.00  0.00     0.003 C
HETATM   11  C6  UNL     1      11.712  -6.684   1.736  1.00  0.00     0.020 C
HETATM   12  C7  UNL     1      10.726  -7.058   0.682  1.00  0.00     0.127 C
HETATM   13  N4  UNL     1       8.897  -4.096  -2.195  1.00  0.00    -0.364 N
ATOM     14  H4  UNL     1       8.282  -4.328  -2.975  1.00  0.00     0.162 HD
ENDROOT
BRANCH  13  15
HETATM   15  C8  UNL     1       9.946  -3.142  -2.362  1.00  0.00     0.127 C
BRANCH  15  16
HETATM   16  C9  UNL     1      11.305  -3.749  -2.503  1.00  0.00     0.003 A
HETATM   17  C10 UNL     1      12.528  -2.937  -2.529  1.00  0.00     0.007 A
HETATM   18  C11 UNL     1      12.160  -3.667  -1.254  1.00  0.00     0.007 A
ENDBRANCH  15  16
ENDBRANCH  13  15
TORSDOF 2
ENDMDL