MODEL 5
REMARK VINA RESULT: -5.245604151      2.078      2.526
REMARK  2 active torsions:
REMARK  status: ('A' for Active; 'I' for Inactive)
REMARK       I    between atoms: N3_4  and  C2_6
REMARK    1  A    between atoms: C2_6  and  C3_8
REMARK    2  A    between atoms: C3_8  and  C4_9
ROOT
HETATM    1  C3  UNL     1       9.045  -6.204  -0.504  1.00  0.00     0.045 C
HETATM    2  C9  UNL     1       8.058  -5.649   0.500  1.00  0.00     0.020 C
HETATM    3  C10 UNL     1       8.409  -4.173   0.498  1.00  0.00     0.001 C
HETATM    4  C11 UNL     1       8.439  -3.893  -0.995  1.00  0.00     0.001 C
HETATM    5  C12 UNL     1       9.194  -5.097  -1.517  1.00  0.00     0.020 C
ENDROOT
BRANCH   1   6
HETATM    6  C2  UNL     1      10.311  -6.517   0.181  1.00  0.00     0.232 C
HETATM    7  N3  UNL     1      10.386  -7.275   1.384  1.00  0.00    -0.303 N
HETATM    8  C1  UNL     1      11.451  -7.901   1.706  1.00  0.00     0.203 C
ATOM      9  H3  UNL     1       9.574  -7.320   2.000  1.00  0.00     0.171 HD
HETATM   10  N1  UNL     1      12.595  -7.871   0.891  1.00  0.00    -0.066 NA
HETATM   11  N2  UNL     1      11.489  -8.643   2.906  1.00  0.00    -0.066 NA
HETATM   12  O1  UNL     1      11.383  -6.083  -0.337  1.00  0.00    -0.272 OA
ENDBRANCH   1   6
BRANCH   1  13
HETATM   13  C4  UNL     1       8.453  -7.451  -1.070  1.00  0.00     0.003 C
HETATM   14  C5  UNL     1       7.917  -7.383  -2.446  1.00  0.00     0.006 C
HETATM   15  C6  UNL     1       7.072  -8.664  -2.551  1.00  0.00     0.000 C
HETATM   16  C7  UNL     1       6.368  -8.633  -1.213  1.00  0.00     0.000 C
HETATM   17  C8  UNL     1       7.299  -7.976  -0.250  1.00  0.00     0.006 C
ENDBRANCH   1  13
TORSDOF 2
ENDMDL