MODEL 2
REMARK VINA RESULT: -4.956984623      1.587      2.297
REMARK  2 active torsions:
REMARK  status: ('A' for Active; 'I' for Inactive)
REMARK    1  A    between atoms: C1_2  and  N2_4
REMARK    2  A    between atoms: N2_4  and  C2_6
ROOT
HETATM    1  C2  UNL     1      10.953  -5.137  -0.817  1.00  0.00     0.085 C
HETATM    2  C3  UNL     1       9.498  -4.690  -0.964  1.00  0.00     0.027 C
HETATM    3  C4  UNL     1       8.907  -4.478   0.383  1.00  0.00     0.030 C
HETATM    4  C5  UNL     1       8.143  -5.620   0.935  1.00  0.00     0.237 C
HETATM    5  N3  UNL     1       8.548  -6.919   0.584  1.00  0.00    -0.067 N
HETATM    6  C6  UNL     1       8.489  -7.750   1.801  1.00  0.00     0.237 C
HETATM    7  C7  UNL     1       6.993  -7.873   2.058  1.00  0.00     0.029 C
HETATM    8  C8  UNL     1       6.468  -8.070   0.657  1.00  0.00     0.029 C
HETATM    9  C9  UNL     1       7.538  -7.592  -0.254  1.00  0.00     0.237 C
HETATM   10  C10 UNL     1       9.784  -7.119  -0.042  1.00  0.00     0.239 C
HETATM   11  C11 UNL     1      10.901  -6.200   0.283  1.00  0.00     0.053 C
ENDROOT
BRANCH   1  12
HETATM   12  N2  UNL     1      11.816  -4.044  -0.531  1.00  0.00    -0.365 N
ATOM     13  H2  UNL     1      11.765  -3.630   0.399  1.00  0.00     0.162 HD
BRANCH  12  14
HETATM   14  C1  UNL     1      12.732  -3.495  -1.439  1.00  0.00     0.181 C
HETATM   15  N1  UNL     1      12.349  -3.307  -2.792  1.00  0.00    -0.070 NA
HETATM   16  S1  UNL     1      14.234  -3.076  -0.997  1.00  0.00    -0.044 SA
ENDBRANCH  12  14
ENDBRANCH   1  12
TORSDOF 2
ENDMDL