MODEL 3
REMARK VINA RESULT: -5.525443094      1.034      1.034
REMARK  2 active torsions:
REMARK  status: ('A' for Active; 'I' for Inactive)
REMARK    1  A    between atoms: C1_2  and  C2_4
REMARK       I    between atoms: C2_4  and  N2_6
REMARK    2  A    between atoms: N2_6  and  C3_8
ROOT
HETATM    1  C3  UNL     1       8.624  -6.649  -0.106  1.00  0.00     0.089 C
HETATM    2  C4  UNL     1       8.372  -6.690   1.357  1.00  0.00     0.030 C
HETATM    3  C5  UNL     1       7.284  -7.615   1.785  1.00  0.00    -0.012 C
HETATM    4  C6  UNL     1       7.829  -8.968   2.144  1.00  0.00     0.009 C
HETATM    5  C7  UNL     1       8.146  -9.795   0.918  1.00  0.00    -0.013 C
HETATM    6  C8  UNL     1       6.833 -10.046   0.205  1.00  0.00     0.009 C
HETATM    7  C9  UNL     1       6.342  -8.696  -0.281  1.00  0.00    -0.013 C
HETATM    8  C10 UNL     1       6.143  -7.716   0.819  1.00  0.00     0.009 C
HETATM    9  C11 UNL     1       7.274  -8.240  -1.358  1.00  0.00     0.011 C
HETATM   10  C12 UNL     1       8.640  -7.999  -0.771  1.00  0.00     0.009 C
HETATM   11  C13 UNL     1       9.150  -9.101   0.078  1.00  0.00     0.011 C
ENDROOT
BRANCH   1  12
HETATM   12  N2  UNL     1       9.914  -5.992  -0.334  1.00  0.00    -0.348 N
HETATM   13  C2  UNL     1      10.010  -4.741  -0.971  1.00  0.00     0.306 C
HETATM   14  O2  UNL     1       8.979  -4.158  -1.359  1.00  0.00    -0.263 OA
ATOM     15  H2  UNL     1      10.768  -6.455  -0.022  1.00  0.00     0.163 HD
BRANCH  13  16
HETATM   16  C1  UNL     1      11.296  -4.121  -1.179  1.00  0.00     0.322 C
HETATM   17  N1  UNL     1      11.735  -3.657  -2.443  1.00  0.00    -0.053 NA
HETATM   18  O1  UNL     1      12.094  -3.970  -0.214  1.00  0.00    -0.266 OA
ENDBRANCH  13  16
ENDBRANCH   1  12
TORSDOF 2
ENDMDL