MODEL 3
REMARK VINA RESULT: -4.949048203      2.301      4.903
REMARK  4 active torsions:
REMARK  status: ('A' for Active; 'I' for Inactive)
REMARK    1  A    between atoms: C1_2  and  C2_4
REMARK    2  A    between atoms: C3_5  and  C12_16
REMARK    3  A    between atoms: C7_9  and  C8_10
REMARK    4  A    between atoms: C9_13  and  C10_14
ROOT
HETATM    1  C2  UNL     1       8.406  -8.471  -0.465  1.00  0.00     0.052 C
HETATM    2  C3  UNL     1       7.358  -8.835  -1.439  1.00  0.00     0.008 C
HETATM    3  C4  UNL     1       6.017  -8.728  -0.729  1.00  0.00     0.007 C
HETATM    4  C5  UNL     1       6.245  -8.032   0.568  1.00  0.00     0.007 C
HETATM    5  C6  UNL     1       7.671  -7.653   0.549  1.00  0.00     0.022 C
HETATM    6  C7  UNL     1       8.061  -6.398  -0.150  1.00  0.00     0.053 A
HETATM    7  C9  UNL     1       8.550  -6.218  -1.484  1.00  0.00     0.015 A
HETATM    8  C13 UNL     1       9.207  -7.260  -0.736  1.00  0.00     0.027 A
ENDROOT
BRANCH   1   9
HETATM    9  C1  UNL     1       9.210  -9.596   0.087  1.00  0.00     0.241 C
HETATM   10  N1  UNL     1      10.002  -9.324   1.239  1.00  0.00    -0.061 NA
HETATM   11  O1  UNL     1       9.235 -10.741  -0.386  1.00  0.00    -0.276 OA
ENDBRANCH   1   9
BRANCH   2  12
HETATM   12  C12 UNL     1       7.329  -8.061  -2.707  1.00  0.00    -0.004 A
HETATM   13  C10 UNL     1       6.142  -8.125  -3.530  1.00  0.00    -0.004 A
HETATM   14  C11 UNL     1       7.451  -8.701  -4.037  1.00  0.00     0.011 A
ENDBRANCH   2  12
BRANCH   6  15
HETATM   15  C8  UNL     1       8.457  -5.353   0.860  1.00  0.00     0.241 C
HETATM   16  N2  UNL     1       8.205  -3.984   0.660  1.00  0.00    -0.061 NA
HETATM   17  O2  UNL     1       9.024  -5.725   1.901  1.00  0.00    -0.276 OA
ENDBRANCH   6  15
TORSDOF 4
ENDMDL