MODEL 1
REMARK VINA RESULT: -5.416095022      0.000      0.000
REMARK  1 active torsions:
REMARK  status: ('A' for Active; 'I' for Inactive)
REMARK       I    between atoms: N3_4  and  C2_6
REMARK    1  A    between atoms: C2_6  and  C3_8
ROOT
HETATM    1  C3  UNL     1       8.754  -6.543   0.002  1.00  0.00     0.053 C
HETATM    2  C4  UNL     1       9.772  -5.554   0.491  1.00  0.00     0.004 C
HETATM    3  C5  UNL     1      10.638  -5.067  -0.649  1.00  0.00     0.006 C
HETATM    4  C6  UNL     1       9.761  -4.107  -1.455  1.00  0.00     0.005 C
HETATM    5  C7  UNL     1       8.414  -4.288  -0.806  1.00  0.00    -0.008 C
HETATM    6  C8  UNL     1       8.856  -4.329   0.671  1.00  0.00     0.011 C
HETATM    7  C9  UNL     1       7.900  -5.694  -0.952  1.00  0.00     0.013 C
HETATM    8  C10 UNL     1       8.428  -6.508  -2.069  1.00  0.00    -0.003 A
HETATM    9  C11 UNL     1       8.046  -7.974  -2.021  1.00  0.00     0.011 A
HETATM   10  C12 UNL     1       9.143  -7.433  -1.118  1.00  0.00     0.009 A
ENDROOT
BRANCH   1  11
HETATM   11  C2  UNL     1       7.981  -7.141   1.109  1.00  0.00     0.233 C
HETATM   12  N3  UNL     1       8.716  -7.826   2.117  1.00  0.00    -0.303 N
HETATM   13  C1  UNL     1       8.337  -8.924   2.647  1.00  0.00     0.203 C
ATOM     14  H3  UNL     1       9.595  -7.417   2.433  1.00  0.00     0.171 HD
HETATM   15  N1  UNL     1       7.113  -9.496   2.206  1.00  0.00    -0.066 NA
HETATM   16  N2  UNL     1       9.138  -9.525   3.640  1.00  0.00    -0.066 NA
HETATM   17  O1  UNL     1       6.734  -7.052   1.160  1.00  0.00    -0.272 OA
ENDBRANCH   1  11
TORSDOF 1
ENDMDL