MODEL 4
REMARK VINA RESULT: -4.940203189      9.029     12.083
REMARK  7 active torsions:
REMARK  status: ('A' for Active; 'I' for Inactive)
REMARK    1  A    between atoms: C2_2  and  N1_3
REMARK    2  A    between atoms: N1_3  and  C3_5
REMARK    3  A    between atoms: C3_5  and  N2_7
REMARK    4  A    between atoms: N2_7  and  N3_9
REMARK       I    between atoms: N3_9  and  C4_11
REMARK    5  A    between atoms: C4_11  and  C5_13
REMARK    6  A    between atoms: C6_14  and  C7_15
REMARK    7  A    between atoms: C7_15  and  C8_16
ROOT
HETATM    1  N3  UNL     1       4.665  -8.753  -2.245  1.00  0.00    -0.257 N
ATOM      2  H3  UNL     1       4.688  -7.842  -2.702  1.00  0.00     0.191 HD
HETATM    3  C4  UNL     1       5.794  -9.150  -1.487  1.00  0.00     0.315 C
HETATM    4  O1  UNL     1       5.765 -10.272  -0.929  1.00  0.00    -0.256 OA
ENDROOT
BRANCH   1   5
HETATM    5  N2  UNL     1       3.538  -9.530  -2.400  1.00  0.00    -0.273 N
ATOM      6  H2  UNL     1       2.801  -9.509  -1.694  1.00  0.00     0.189 HD
BRANCH   5   7
HETATM    7  C3  UNL     1       3.405 -10.357  -3.540  1.00  0.00     0.186 C
HETATM    8  S1  UNL     1       4.238 -10.019  -4.899  1.00  0.00    -0.040 SA
BRANCH   7   9
HETATM    9  N1  UNL     1       2.556 -11.486  -3.523  1.00  0.00    -0.366 N
ATOM     10  H1  UNL     1       1.561 -11.357  -3.338  1.00  0.00     0.161 HD
BRANCH   9  11
HETATM   11  C2  UNL     1       3.065 -12.829  -3.761  1.00  0.00     0.117 C
HETATM   12  C1  UNL     1       4.214 -13.094  -2.842  1.00  0.00     0.026 C
ENDBRANCH   9  11
ENDBRANCH   7   9
ENDBRANCH   5   7
ENDBRANCH   1   5
BRANCH   3  13
HETATM   13  C5  UNL     1       6.952  -8.318  -1.340  1.00  0.00    -0.004 C
HETATM   14  C6  UNL     1       7.928  -7.591  -1.228  1.00  0.00    -0.096 C
BRANCH  14  15
HETATM   15  C7  UNL     1       9.095  -6.700  -1.076  1.00  0.00     0.099 C
BRANCH  15  16
HETATM   16  C8  UNL     1       8.759  -5.436  -1.807  1.00  0.00     0.001 A
HETATM   17  C9  UNL     1       9.777  -4.334  -1.656  1.00  0.00     0.010 A
HETATM   18  C10 UNL     1       8.383  -4.184  -1.150  1.00  0.00    -0.013 A
HETATM   19  C11 UNL     1       8.216  -4.022   0.329  1.00  0.00     0.010 C
ENDBRANCH  15  16
ENDBRANCH  14  15
ENDBRANCH   3  13
TORSDOF 7
ENDMDL