MODEL 4
REMARK VINA RESULT: -5.688826173      2.528      5.941
REMARK  2 active torsions:
REMARK  status: ('A' for Active; 'I' for Inactive)
REMARK       I    between atoms: C1_4  and  N2_5
REMARK       I    between atoms: C1_4  and  N3_12
REMARK    1  A    between atoms: N2_5  and  C2_7
REMARK    2  A    between atoms: C9_15  and  C10_16
ROOT
HETATM    1  N1  UNL     1      11.878  -5.691   2.218  1.00  0.00    -0.235 N
ATOM      2  H11 UNL     1      11.462  -6.041   3.080  1.00  0.00     0.174 HD
ATOM      3  H12 UNL     1      12.758  -5.175   2.241  1.00  0.00     0.174 HD
HETATM    4  C1  UNL     1      11.261  -5.922   1.117  1.00  0.00     0.670 C
HETATM    5  N2  UNL     1      11.841  -5.433  -0.085  1.00  0.00    -0.222 N
ATOM      6  H2  UNL     1      12.587  -5.975  -0.522  1.00  0.00     0.178 HD
HETATM    7  N3  UNL     1      10.037  -6.639   1.084  1.00  0.00    -0.218 N
HETATM    8  C7  UNL     1       9.558  -7.292  -0.105  1.00  0.00     0.142 C
HETATM    9  C8  UNL     1       8.071  -7.440  -0.123  1.00  0.00     0.034 C
HETATM   10  C9  UNL     1       7.477  -7.958   1.138  1.00  0.00     0.078 C
HETATM   11  C11 UNL     1       8.542  -8.098   2.223  1.00  0.00     0.034 C
HETATM   12  C12 UNL     1       9.233  -6.727   2.283  1.00  0.00     0.142 C
ENDROOT
BRANCH   5  13
HETATM   13  C2  UNL     1      11.426  -4.220  -0.707  1.00  0.00     0.099 C
HETATM   14  C3  UNL     1      12.553  -3.476  -1.390  1.00  0.00     0.026 C
HETATM   15  C4  UNL     1      11.971  -2.878  -2.654  1.00  0.00     0.002 C
HETATM   16  C5  UNL     1      10.475  -3.144  -2.549  1.00  0.00     0.002 C
HETATM   17  C6  UNL     1      10.501  -4.515  -1.856  1.00  0.00     0.026 C
ENDBRANCH   5  13
BRANCH  10  18
HETATM   18  C10 UNL     1       6.745  -9.241   0.949  1.00  0.00     0.235 C
HETATM   19  N4  UNL     1       7.018 -10.392   1.726  1.00  0.00    -0.062 NA
HETATM   20  O1  UNL     1       5.829  -9.367   0.071  1.00  0.00    -0.277 OA
ENDBRANCH  10  18
TORSDOF 2
ENDMDL