MODEL 5
REMARK VINA RESULT: -5.139794222      3.585      5.131
REMARK  1 active torsions:
REMARK  status: ('A' for Active; 'I' for Inactive)
REMARK       I    between atoms: N1_2  and  C2_4
REMARK       I    between atoms: C2_4  and  N2_6
REMARK    1  A    between atoms: C9_13  and  N3_14
REMARK       I    between atoms: N3_14  and  C10_16
ROOT
HETATM    1  C1  UNL     1      11.580  -3.095  -2.441  1.00  0.00     0.151 C
HETATM    2  N1  UNL     1      11.302  -4.195  -1.566  1.00  0.00    -0.347 N
ATOM      3  H1  UNL     1      12.063  -4.798  -1.253  1.00  0.00     0.163 HD
HETATM    4  C2  UNL     1       9.984  -4.449  -1.133  1.00  0.00     0.318 C
HETATM    5  O1  UNL     1       9.073  -3.678  -1.544  1.00  0.00    -0.247 OA
HETATM    6  N2  UNL     1       9.664  -5.533  -0.261  1.00  0.00    -0.324 N
HETATM    7  C3  UNL     1      10.522  -6.509   0.323  1.00  0.00     0.091 C
HETATM    8  C4  UNL     1      10.106  -6.444   1.791  1.00  0.00     0.027 C
HETATM    9  C5  UNL     1       8.627  -6.142   1.684  1.00  0.00     0.028 C
HETATM   10  C6  UNL     1       8.339  -5.856   0.224  1.00  0.00     0.095 C
HETATM   11  C7  UNL     1       7.909  -7.107  -0.511  1.00  0.00     0.027 C
HETATM   12  C8  UNL     1       8.114  -6.867  -1.986  1.00  0.00     0.014 C
HETATM   13  C9  UNL     1       8.782  -8.268  -0.089  1.00  0.00     0.095 C
HETATM   14  C11 UNL     1      10.248  -7.923  -0.134  1.00  0.00     0.051 C
ENDROOT
BRANCH  13  15
HETATM   15  N3  UNL     1       8.463  -9.378  -0.949  1.00  0.00    -0.330 N
HETATM   16  C10 UNL     1       7.569 -10.376  -0.501  1.00  0.00     0.283 C
HETATM   17  O2  UNL     1       7.069 -10.274   0.644  1.00  0.00    -0.630 OA
HETATM   18  O3  UNL     1       7.201 -11.482  -1.254  1.00  0.00    -0.630 OA
ATOM     19  H3  UNL     1       8.881  -9.444  -1.877  1.00  0.00     0.165 HD
ENDBRANCH  13  15
TORSDOF 1
ENDMDL