MODEL 4
REMARK VINA RESULT: -5.953862824      4.073      6.650
REMARK  2 active torsions:
REMARK  status: ('A' for Active; 'I' for Inactive)
REMARK    1  A    between atoms: C1_2  and  N1_3
REMARK       I    between atoms: N1_3  and  C2_5
REMARK       I    between atoms: C2_5  and  N2_7
REMARK       I    between atoms: N2_7  and  C3_9
REMARK       I    between atoms: C3_9  and  N3_11
REMARK    2  A    between atoms: N3_11  and  C4_13
ROOT
HETATM    1  N1  UNL     1       4.921 -10.011  -3.018  1.00  0.00    -0.286 N
ATOM      2  H1  UNL     1       4.900  -9.015  -2.795  1.00  0.00     0.172 HD
HETATM    3  C2  UNL     1       5.470 -11.057  -2.430  1.00  0.00     0.330 C
HETATM    4  O2  UNL     1       5.411 -12.264  -2.539  1.00  0.00    -0.246 OA
HETATM    5  N2  UNL     1       6.607 -10.757  -1.161  1.00  0.00    -0.261 N
ATOM      6  H2  UNL     1       7.146 -11.403  -0.584  1.00  0.00     0.175 HD
HETATM    7  C3  UNL     1       6.563  -9.432  -1.168  1.00  0.00     0.324 C
HETATM    8  O3  UNL     1       5.742  -8.633  -1.602  1.00  0.00    -0.247 OA
HETATM    9  N3  UNL     1       7.747  -8.757  -0.528  1.00  0.00    -0.337 N
ATOM     10  H3  UNL     1       8.495  -9.313  -0.114  1.00  0.00     0.164 HD
ENDROOT
BRANCH   9  11
HETATM   11  C4  UNL     1       7.812  -7.347  -0.506  1.00  0.00     0.095 C
HETATM   12  C5  UNL     1       7.383  -6.746   0.880  1.00  0.00     0.031 C
HETATM   13  C6  UNL     1       8.459  -5.673   1.071  1.00  0.00    -0.008 C
HETATM   14  C7  UNL     1       8.339  -4.393   0.427  1.00  0.00     0.005 C
HETATM   15  C12 UNL     1       9.566  -6.602   0.770  1.00  0.00     0.001 A
HETATM   16  C8  UNL     1       8.246  -4.445  -1.036  1.00  0.00     0.001 C
HETATM   17  C9  UNL     1       9.119  -5.539  -1.540  1.00  0.00     0.012 C
HETATM   18  C10 UNL     1       9.122  -6.779  -0.708  1.00  0.00    -0.015 A
HETATM   19  C11 UNL     1      10.411  -7.119  -0.199  1.00  0.00     0.018 A
ENDBRANCH   9  11
BRANCH   1  20
HETATM   20  C1  UNL     1       4.242 -10.966  -4.324  1.00  0.00     0.356 C
HETATM   21  O1  UNL     1       3.818 -10.163  -5.140  1.00  0.00    -0.283 OA
ENDBRANCH   1  20
TORSDOF 2
ENDMDL