MODEL 3
REMARK VINA RESULT: -5.074888959      1.159      1.624
REMARK  5 active torsions:
REMARK  status: ('A' for Active; 'I' for Inactive)
REMARK    1  A    between atoms: N1_2  and  N2_3
REMARK    2  A    between atoms: N2_3  and  C2_5
REMARK    3  A    between atoms: C2_5  and  C3_9
REMARK    4  A    between atoms: C3_9  and  C4_10
REMARK    5  A    between atoms: C5_11  and  N4_12
ROOT
HETATM    1  C3  UNL     1       8.772  -5.916  -0.773  1.00  0.00     0.084 C
HETATM    2  C9  UNL     1       7.945  -6.050   0.480  1.00  0.00     0.031 C
HETATM    3  C10 UNL     1       8.132  -7.391   1.126  1.00  0.00     0.002 C
HETATM    4  C11 UNL     1       9.596  -7.574   1.479  1.00  0.00     0.000 C
HETATM    5  C12 UNL     1      10.443  -7.501   0.232  1.00  0.00     0.002 C
HETATM    6  C13 UNL     1      10.225  -6.251  -0.546  1.00  0.00     0.031 C
ENDROOT
BRANCH   1   7
HETATM    7  C2  UNL     1       8.710  -4.527  -1.268  1.00  0.00     0.107 C
HETATM    8  N3  UNL     1       8.204  -3.568  -0.565  1.00  0.00    -0.387 N
ATOM      9  H32 UNL     1       8.161  -2.608  -0.907  1.00  0.00     0.157 HD
ATOM     10  H31 UNL     1       7.842  -3.809   0.357  1.00  0.00     0.157 HD
BRANCH   7  11
HETATM   11  N2  UNL     1       9.212  -4.194  -2.544  1.00  0.00    -0.292 N
ATOM     12  H2  UNL     1       9.051  -4.805  -3.345  1.00  0.00     0.183 HD
BRANCH  11  13
HETATM   13  N1  UNL     1       9.934  -3.009  -2.685  1.00  0.00    -0.145 NA
HETATM   14  C1  UNL     1      11.327  -3.307  -2.519  1.00  0.00     0.159 C
ENDBRANCH  11  13
ENDBRANCH   7  11
ENDBRANCH   1   7
BRANCH   1  15
HETATM   15  C4  UNL     1       8.172  -6.853  -1.752  1.00  0.00    -0.058 C
HETATM   16  C5  UNL     1       7.674  -7.600  -2.558  1.00  0.00     0.116 C
BRANCH  16  17
HETATM   17  N4  UNL     1       7.089  -8.451  -3.508  1.00  0.00    -0.014 N
HETATM   18  C6  UNL     1       6.708  -7.722  -4.710  1.00  0.00     0.289 C
HETATM   19  C7  UNL     1       8.008  -9.506  -3.901  1.00  0.00     0.289 C
HETATM   20  C8  UNL     1       5.866  -8.984  -2.937  1.00  0.00     0.289 C
ENDBRANCH  16  17
ENDBRANCH   1  15
TORSDOF 5
ENDMDL