MODEL 1
REMARK VINA RESULT: -5.306052290      0.000      0.000
REMARK  3 active torsions:
REMARK  status: ('A' for Active; 'I' for Inactive)
REMARK    1  A    between atoms: C5_9  and  C6_10
REMARK    2  A    between atoms: C6_10  and  N3_11
REMARK       I    between atoms: N3_11  and  C7_13
REMARK       I    between atoms: C7_13  and  N4_15
REMARK    3  A    between atoms: N4_15  and  C8_17
ROOT
HETATM    1  C6  UNL     1      11.083  -4.469  -1.689  1.00  0.00     0.151 C
ENDROOT
BRANCH   1   2
HETATM    2  C5  UNL     1      10.078  -4.270  -0.590  1.00  0.00     0.128 C
HETATM    3  C2  UNL     1       8.667  -4.195  -1.069  1.00  0.00     0.106 C
HETATM    4  C1  UNL     1       8.302  -5.320  -2.010  1.00  0.00     0.034 C
HETATM    5  N1  UNL     1       7.927  -4.448   0.178  1.00  0.00    -0.337 N
HETATM    6  C3  UNL     1       8.732  -5.432   0.858  1.00  0.00     0.318 C
ATOM      7  H1  UNL     1       7.051  -4.028   0.488  1.00  0.00     0.164 HD
HETATM    8  O1  UNL     1       8.280  -6.191   1.751  1.00  0.00    -0.247 OA
HETATM    9  N2  UNL     1      10.049  -5.371   0.344  1.00  0.00    -0.330 N
HETATM   10  C4  UNL     1      11.172  -6.214   0.659  1.00  0.00     0.155 C
ENDBRANCH   1   2
BRANCH   1  11
HETATM   11  N3  UNL     1      11.845  -3.253  -1.830  1.00  0.00    -0.341 N
HETATM   12  C7  UNL     1      13.182  -3.121  -1.364  1.00  0.00     0.316 C
HETATM   13  O2  UNL     1      13.696  -4.127  -0.811  1.00  0.00    -0.247 OA
HETATM   14  N4  UNL     1      13.939  -1.945  -1.493  1.00  0.00    -0.335 N
ATOM     15  H4  UNL     1      13.510  -1.138  -1.944  1.00  0.00     0.165 HD
ATOM     16  H3  UNL     1      11.406  -2.452  -2.283  1.00  0.00     0.164 HD
BRANCH  14  17
HETATM   17  C8  UNL     1      15.283  -1.829  -1.019  1.00  0.00     0.023 C
HETATM   18  C9  UNL     1      16.293  -2.502  -1.934  1.00  0.00     0.037 C
HETATM   19  C10 UNL     1      15.428  -2.407   0.373  1.00  0.00     0.037 C
HETATM   20  C11 UNL     1      15.680  -0.367  -0.941  1.00  0.00     0.037 C
ENDBRANCH  14  17
ENDBRANCH   1  11
TORSDOF 3
ENDMDL