MODEL 4
REMARK VINA RESULT: -5.981450954      3.265      5.132
REMARK  2 active torsions:
REMARK  status: ('A' for Active; 'I' for Inactive)
REMARK    1  A    between atoms: C11_11  and  C12_12
REMARK       I    between atoms: C12_12  and  N1_14
REMARK    2  A    between atoms: N1_14  and  N2_16
REMARK       I    between atoms: N2_16  and  C13_18
ROOT
HETATM    1  C1  UNL     1       6.548  -7.984   2.067  1.00  0.00     0.012 C
HETATM    2  C2  UNL     1       7.385  -7.191   1.708  1.00  0.00    -0.111 C
HETATM    3  C3  UNL     1       8.381  -6.222   1.304  1.00  0.00     0.081 C
HETATM    4  C4  UNL     1       8.132  -5.762  -0.105  1.00  0.00     0.002 C
HETATM    5  C5  UNL     1       8.261  -4.255  -0.198  1.00  0.00     0.006 C
HETATM    6  C6  UNL     1       9.252  -3.796  -1.231  1.00  0.00     0.001 C
HETATM    7  C7  UNL     1      10.609  -4.423  -1.087  1.00  0.00     0.005 C
HETATM    8  C8  UNL     1      10.492  -5.891  -0.725  1.00  0.00    -0.013 C
HETATM    9  C9  UNL     1       9.118  -6.422  -1.056  1.00  0.00     0.010 C
HETATM   10  C10 UNL     1      10.811  -6.029   0.740  1.00  0.00     0.020 C
HETATM   11  C11 UNL     1       9.751  -6.805   1.479  1.00  0.00     0.096 C
ENDROOT
BRANCH  11  12
HETATM   12  C12 UNL     1      10.180  -6.957   2.876  1.00  0.00     0.241 C
HETATM   13  O1  UNL     1       9.846  -8.073   3.440  1.00  0.00    -0.271 OA
HETATM   14  N1  UNL     1      10.904  -6.018   3.635  1.00  0.00    -0.266 N
ATOM     15  H1  UNL     1      11.179  -5.127   3.221  1.00  0.00     0.190 HD
BRANCH  14  16
HETATM   16  N2  UNL     1      11.241  -6.313   4.948  1.00  0.00    -0.251 N
HETATM   17  C13 UNL     1      12.560  -6.341   5.458  1.00  0.00     0.347 C
HETATM   18  N3  UNL     1      12.849  -6.647   6.803  1.00  0.00    -0.038 NA
HETATM   19  O2  UNL     1      13.535  -6.080   4.682  1.00  0.00    -0.249 OA
ATOM     20  H2  UNL     1      10.481  -6.527   5.594  1.00  0.00     0.191 HD
ENDBRANCH  14  16
ENDBRANCH  11  12
TORSDOF 2
ENDMDL