MODEL 1
REMARK VINA RESULT: -5.485451158      0.000      0.000
REMARK  3 active torsions:
REMARK  status: ('A' for Active; 'I' for Inactive)
REMARK    1  A    between atoms: C2_2  and  C4_4
REMARK    2  A    between atoms: C7_7  and  C8_8
REMARK    3  A    between atoms: C9_11  and  C10_12
REMARK       I    between atoms: C10_12  and  N1_14
ROOT
HETATM    1  C10 UNL     1       9.714  -7.858   2.734  1.00  0.00     0.236 C
HETATM    2  O3  UNL     1       9.929  -7.048   3.659  1.00  0.00    -0.272 OA
HETATM    3  N1  UNL     1       9.736  -9.254   3.004  1.00  0.00    -0.264 N
ATOM      4  H1  UNL     1       9.559  -9.914   2.247  1.00  0.00     0.181 HD
HETATM    5  C11 UNL     1      10.000  -9.743   4.309  1.00  0.00     0.184 C
HETATM    6  N2  UNL     1      10.212 -10.159   5.368  1.00  0.00    -0.172 NA
ENDROOT
BRANCH   1   7
HETATM    7  C9  UNL     1       9.438  -7.408   1.382  1.00  0.00     0.099 C
HETATM    8  C7  UNL     1       8.150  -7.816   0.769  1.00  0.00     0.104 C
HETATM    9  C6  UNL     1       7.731  -6.657  -0.145  1.00  0.00     0.007 C
HETATM   10  C5  UNL     1       8.773  -6.486  -1.228  1.00  0.00     0.016 C
HETATM   11  C13 UNL     1       8.291  -5.458   0.539  1.00  0.00     0.005 A
HETATM   12  C4  UNL     1       9.524  -5.567  -0.302  1.00  0.00    -0.028 A
HETATM   13  C12 UNL     1       9.505  -5.906   1.190  1.00  0.00     0.014 A
BRANCH   8  14
HETATM   14  C8  UNL     1       7.073  -8.196   1.680  1.00  0.00     0.178 C
HETATM   15  O1  UNL     1       6.264  -7.365   2.162  1.00  0.00    -0.648 OA
HETATM   16  O2  UNL     1       6.913  -9.519   2.046  1.00  0.00    -0.648 OA
ENDBRANCH   8  14
BRANCH  12  17
HETATM   17  C2  UNL     1      10.225  -4.349  -0.774  1.00  0.00    -0.013 C
HETATM   18  C1  UNL     1      11.716  -4.450  -0.680  1.00  0.00     0.010 C
HETATM   19  C3  UNL     1       9.890  -4.048  -2.233  1.00  0.00     0.010 C
ENDBRANCH  12  17
ENDBRANCH   1   7
TORSDOF 3
ENDMDL