MODEL 4
REMARK VINA RESULT: -5.224594293      3.372      8.652
REMARK  2 active torsions:
REMARK  status: ('A' for Active; 'I' for Inactive)
REMARK    1  A    between atoms: C4_4  and  N1_5
REMARK       I    between atoms: N1_5  and  C5_7
REMARK       I    between atoms: C5_7  and  N2_9
REMARK       I    between atoms: N2_9  and  C6_11
REMARK       I    between atoms: C6_11  and  N3_13
REMARK    2  A    between atoms: N3_13  and  C7_15
ROOT
HETATM    1  N1  UNL     1       8.900  -6.827  -0.985  1.00  0.00    -0.338 N
ATOM      2  H1  UNL     1       9.848  -6.881  -1.359  1.00  0.00     0.164 HD
HETATM    3  C5  UNL     1       8.536  -5.947  -0.084  1.00  0.00     0.324 C
HETATM    4  O1  UNL     1       7.413  -5.868   0.411  1.00  0.00    -0.247 OA
HETATM    5  N2  UNL     1       9.479  -4.737   0.606  1.00  0.00    -0.261 N
ATOM      6  H2  UNL     1       9.253  -4.032   1.308  1.00  0.00     0.175 HD
HETATM    7  C6  UNL     1      10.634  -4.989  -0.061  1.00  0.00     0.324 C
HETATM    8  O2  UNL     1      11.001  -5.813  -0.858  1.00  0.00    -0.247 OA
HETATM    9  N3  UNL     1      11.770  -4.031   0.237  1.00  0.00    -0.336 N
ATOM     10  H3  UNL     1      11.667  -3.279   0.918  1.00  0.00     0.164 HD
ENDROOT
BRANCH   1  11
HETATM   11  C4  UNL     1       7.773  -7.767  -1.425  1.00  0.00     0.090 A
HETATM   12  C2  UNL     1       7.568  -7.815  -2.853  1.00  0.00     0.006 A
HETATM   13  C1  UNL     1       6.262  -8.205  -3.486  1.00  0.00     0.012 C
HETATM   14  C3  UNL     1       8.325  -8.951  -2.185  1.00  0.00     0.032 A
ENDBRANCH   1  11
BRANCH   9  15
HETATM   15  C7  UNL     1      12.977  -4.224  -0.471  1.00  0.00     0.116 C
HETATM   16  C8  UNL     1      14.120  -4.123   0.557  1.00  0.00     0.057 C
HETATM   17  C9  UNL     1      15.276  -3.835  -0.402  1.00  0.00     0.274 C
HETATM   18  N4  UNL     1      14.731  -2.856  -1.322  1.00  0.00     0.086 N
HETATM   19  C10 UNL     1      15.062  -1.544  -0.797  1.00  0.00     0.310 C
HETATM   20  C11 UNL     1      13.320  -3.082  -1.390  1.00  0.00     0.296 C
ENDBRANCH   9  15
TORSDOF 2
ENDMDL