MODEL 2
REMARK VINA RESULT: -5.056579058      0.890      1.294
REMARK  3 active torsions:
REMARK  status: ('A' for Active; 'I' for Inactive)
REMARK       I    between atoms: N1_2  and  C2_4
REMARK       I    between atoms: C2_4  and  N3_13
REMARK       I    between atoms: N2_5  and  C3_7
REMARK    1  A    between atoms: C3_7  and  C4_9
REMARK    2  A    between atoms: N3_13  and  C8_15
REMARK    3  A    between atoms: C8_15  and  C11_18
ROOT
HETATM    1  C1  UNL     1       9.367  -9.934  -0.470  1.00  0.00     0.165 C
HETATM    2  N1  UNL     1       8.399  -8.960  -0.023  1.00  0.00    -0.231 N
ATOM      3  H1  UNL     1       8.048  -9.026   0.932  1.00  0.00     0.177 HD
HETATM    4  C2  UNL     1       7.909  -7.907  -0.859  1.00  0.00     0.677 C
HETATM    5  N2  UNL     1       6.761  -8.018  -1.437  1.00  0.00    -0.160 N
ATOM      6  H2  UNL     1       6.445  -7.247  -2.024  1.00  0.00     0.187 HD
HETATM    7  C3  UNL     1       5.920  -9.134  -1.307  1.00  0.00     0.240 C
HETATM    8  O1  UNL     1       5.920  -9.780  -0.225  1.00  0.00    -0.272 OA
HETATM    9  N3  UNL     1       8.641  -6.712  -1.092  1.00  0.00    -0.208 N
ATOM     10  H3  UNL     1       8.960  -6.517  -2.041  1.00  0.00     0.179 HD
ENDROOT
BRANCH   9  11
HETATM   11  C8  UNL     1       8.954  -5.762  -0.052  1.00  0.00     0.128 C
HETATM   12  C9  UNL     1       8.233  -6.096   1.243  1.00  0.00     0.050 C
HETATM   13  C10 UNL     1      10.439  -5.772   0.205  1.00  0.00     0.050 C
BRANCH  11  14
HETATM   14  C11 UNL     1       8.580  -4.374  -0.421  1.00  0.00     0.202 C
HETATM   15  O2  UNL     1       8.957  -3.827  -1.479  1.00  0.00    -0.646 OA
HETATM   16  O3  UNL     1       7.775  -3.679   0.468  1.00  0.00    -0.646 OA
ENDBRANCH  11  14
ENDBRANCH   9  11
BRANCH   7  17
HETATM   17  C4  UNL     1       5.005  -9.632  -2.366  1.00  0.00     0.083 A
HETATM   18  C5  UNL     1       3.724  -8.811  -2.498  1.00  0.00     0.019 A
HETATM   19  C6  UNL     1       4.769  -8.870  -3.599  1.00  0.00    -0.005 A
HETATM   20  C7  UNL     1       4.314  -9.672  -4.800  1.00  0.00     0.011 C
ENDBRANCH   7  17
TORSDOF 3
ENDMDL