MODEL 3
REMARK VINA RESULT: -5.260769907      1.972      6.985
REMARK  14 active torsions:
REMARK  status: ('A' for Active; 'I' for Inactive)
REMARK    1  A    between atoms: N1_1  and  C1_4
REMARK    2  A    between atoms: C1_4  and  O1_5
REMARK    3  A    between atoms: C1_4  and  C13_37
REMARK    4  A    between atoms: O1_5  and  C2_6
REMARK    5  A    between atoms: C2_6  and  C3_7
REMARK    6  A    between atoms: C3_7  and  O2_8
REMARK    7  A    between atoms: C4_10  and  C5_11
REMARK    8  A    between atoms: C5_11  and  O3_12
REMARK    9  A    between atoms: C6_15  and  N2_16
REMARK   10  A    between atoms: C9_21  and  N4_22
REMARK   11  A    between atoms: C10_27  and  N6_28
REMARK   12  A    between atoms: C12_34  and  O5_35
REMARK   13  A    between atoms: C14_40  and  N9_41
REMARK   14  A    between atoms: N10_44  and  N11_45
ROOT
HETATM    1  C3  UNL     1      12.831   0.866  39.719  1.00  0.00     0.137 C
HETATM    2  C4  UNL     1      12.135   1.336  40.917  1.00  0.00     0.187 C
HETATM    3  O4  UNL     1      12.920   0.870  41.999  1.00  0.00    -0.353 OA
HETATM    4  C6  UNL     1      14.246   0.897  41.586  1.00  0.00     0.263 C
HETATM    5  C12 UNL     1      14.307   1.268  40.153  1.00  0.00     0.206 C
ENDROOT
BRANCH   1   6
HETATM    6  C2  UNL     1      12.571   1.440  38.393  1.00  0.00     0.220 C
BRANCH   6   7
HETATM    7  O1  UNL     1      13.428   1.331  37.345  1.00  0.00    -0.330 OA
BRANCH   7   8
HETATM    8  C1  UNL     1      14.187   2.173  36.634  1.00  0.00     0.183 C
BRANCH   8   9
HETATM    9  N1  UNL     1      13.567   3.052  35.929  1.00  0.00    -0.377 N
ATOM     10  H12 UNL     1      13.022   3.760  36.421  1.00  0.00     0.158 HD
ATOM     11  H11 UNL     1      13.665   2.978  34.917  1.00  0.00     0.158 HD
ENDBRANCH   8   9
BRANCH   8  12
HETATM   12  C13 UNL     1      15.671   2.172  36.594  1.00  0.00     0.188 A
HETATM   13  N8  UNL     1      16.381   1.998  35.471  1.00  0.00    -0.168 N
HETATM   14  C14 UNL     1      17.689   2.040  35.770  1.00  0.00     0.713 A
ATOM     15  H8  UNL     1      15.991   1.856  34.540  1.00  0.00     0.186 HD
HETATM   16  N10 UNL     1      17.812   2.243  37.091  1.00  0.00    -0.025 N
HETATM   17  N12 UNL     1      16.569   2.319  37.562  1.00  0.00    -0.245 N
ATOM     18  H12 UNL     1      16.336   2.470  38.543  1.00  0.00     0.191 HD
BRANCH  14  19
HETATM   19  N9  UNL     1      18.653   1.910  34.933  1.00  0.00    -0.231 N
ATOM     20  H92 UNL     1      19.380   2.601  34.745  1.00  0.00     0.174 HD
ATOM     21  H91 UNL     1      18.823   1.097  34.342  1.00  0.00     0.174 HD
ENDBRANCH  14  19
BRANCH  16  22
HETATM   22  N11 UNL     1      18.998   2.354  37.821  1.00  0.00    -0.309 N
ATOM     23 2H11 UNL     1      19.385   1.672  38.473  1.00  0.00     0.179 HD
ATOM     24 1H11 UNL     1      19.656   3.133  37.815  1.00  0.00     0.179 HD
ENDBRANCH  16  22
ENDBRANCH   8  12
ENDBRANCH   7   8
ENDBRANCH   6   7
ENDBRANCH   1   6
BRANCH   1  25
HETATM   25  O2  UNL     1      12.957  -0.531  39.667  1.00  0.00    -0.382 OA
ATOM     26  H2  UNL     1      13.818  -0.819  39.945  1.00  0.00     0.210 HD
ENDBRANCH   1  25
BRANCH   2  27
HETATM   27  C5  UNL     1      11.915   2.792  41.100  1.00  0.00     0.199 C
BRANCH  27  28
HETATM   28  O3  UNL     1      11.133   3.161  42.182  1.00  0.00    -0.398 OA
ATOM     29  H3  UNL     1      10.199   3.223  42.022  1.00  0.00     0.209 HD
ENDBRANCH  27  28
ENDBRANCH   2  27
BRANCH   5  30
HETATM   30  O5  UNL     1      14.450   2.580  39.836  1.00  0.00    -0.388 OA
ATOM     31  H5  UNL     1      15.053   2.943  40.474  1.00  0.00     0.210 HD
ENDBRANCH   5  30
BRANCH   4  32
HETATM   32  N2  UNL     1      15.090   1.645  42.475  1.00  0.00    -0.297 N
HETATM   33  C7  UNL     1      16.390   1.421  42.679  1.00  0.00     0.188 A
HETATM   34  N3  UNL     1      16.895   2.285  43.559  1.00  0.00    -0.346 N
HETATM   35  C8  UNL     1      15.885   3.096  43.936  1.00  0.00     0.123 A
ATOM     36  H3  UNL     1      17.861   2.326  43.886  1.00  0.00     0.167 HD
HETATM   37  C9  UNL     1      15.889   4.147  44.820  1.00  0.00     0.145 A
HETATM   38  C11 UNL     1      14.753   2.682  43.246  1.00  0.00     0.157 A
HETATM   39  N5  UNL     1      14.727   4.801  45.017  1.00  0.00    -0.175 N
HETATM   40  C10 UNL     1      13.624   4.410  44.357  1.00  0.00     0.679 A
ATOM     41  H5  UNL     1      14.685   5.588  45.665  1.00  0.00     0.186 HD
HETATM   42  N7  UNL     1      13.614   3.372  43.481  1.00  0.00    -0.174 N
ATOM     43  H7  UNL     1      12.751   3.114  43.002  1.00  0.00     0.186 HD
BRANCH  37  44
HETATM   44  N4  UNL     1      16.934   4.532  45.460  1.00  0.00    -0.383 N
ATOM     45  H42 UNL     1      17.498   3.836  45.949  1.00  0.00     0.157 HD
ATOM     46  H41 UNL     1      17.238   5.504  45.510  1.00  0.00     0.157 HD
ENDBRANCH  37  44
BRANCH  40  47
HETATM   47  N6  UNL     1      12.509   5.040  44.549  1.00  0.00    -0.234 N
ATOM     48  H62 UNL     1      12.500   5.776  45.255  1.00  0.00     0.174 HD
ATOM     49  H61 UNL     1      11.688   4.786  44.000  1.00  0.00     0.174 HD
ENDBRANCH  40  47
ENDBRANCH   4  32
TORSDOF 14
ENDMDL