MODEL 1
REMARK VINA RESULT: -6.892142948      0.000      0.000
REMARK  12 active torsions:
REMARK  status: ('A' for Active; 'I' for Inactive)
REMARK       I    between atoms: N1_1  and  C1_4
REMARK       I    between atoms: C1_4  and  N2_5
REMARK       I    between atoms: C1_4  and  N6_12
REMARK    1  A    between atoms: N2_5  and  N3_7
REMARK    2  A    between atoms: N3_7  and  N4_8
REMARK    3  A    between atoms: N4_8  and  N5_9
REMARK    4  A    between atoms: N6_12  and  O1_14
REMARK    5  A    between atoms: O1_14  and  N7_15
REMARK    6  A    between atoms: N7_15  and  O2_16
REMARK       I    between atoms: N7_15  and  C2_18
REMARK       I    between atoms: C2_18  and  N8_20
REMARK    7  A    between atoms: N8_20  and  C3_22
REMARK    8  A    between atoms: C3_22  and  C4_23
REMARK    9  A    between atoms: C5_25  and  N9_26
REMARK   10  A    between atoms: C8_31  and  N11_32
REMARK   11  A    between atoms: C11_41  and  O5_42
REMARK   12  A    between atoms: C12_44  and  O6_45
ROOT
HETATM    1  C4  UNL     1      13.475   0.156  40.238  1.00  0.00     0.173 C
HETATM    2  O4  UNL     1      13.563   0.236  38.872  1.00  0.00    -0.354 OA
HETATM    3  C5  UNL     1      14.268   1.376  38.539  1.00  0.00     0.262 C
HETATM    4  C11 UNL     1      15.098   1.772  39.730  1.00  0.00     0.198 C
HETATM    5  C12 UNL     1      14.794   0.666  40.714  1.00  0.00     0.181 C
ENDROOT
BRANCH   1   6
HETATM    6  C3  UNL     1      12.300   0.910  40.772  1.00  0.00     0.158 C
BRANCH   6   7
HETATM    7  N8  UNL     1      12.627   1.732  41.902  1.00  0.00    -0.342 N
HETATM    8  C2  UNL     1      11.921   2.920  42.237  1.00  0.00     0.347 C
HETATM    9  N7  UNL     1      12.241   3.721  43.339  1.00  0.00     0.050 NA
HETATM   10  O3  UNL     1      10.964   3.241  41.485  1.00  0.00    -0.249 OA
ATOM     11  H8  UNL     1      13.407   1.450  42.495  1.00  0.00     0.163 HD
BRANCH   9  12
HETATM   12  O1  UNL     1      13.456   4.289  43.282  1.00  0.00    -0.132 OA
BRANCH  12  13
HETATM   13  N6  UNL     1      14.009   4.525  44.460  1.00  0.00    -0.074 N
HETATM   14  C1  UNL     1      15.370   4.214  44.714  1.00  0.00     0.710 C
HETATM   15  N1  UNL     1      15.790   4.062  45.939  1.00  0.00    -0.232 N
HETATM   16  N2  UNL     1      16.331   4.053  43.687  1.00  0.00    -0.117 N
ATOM     17  H12 UNL     1      16.769   3.839  46.122  1.00  0.00     0.174 HD
ATOM     18  H11 UNL     1      15.098   4.179  46.679  1.00  0.00     0.174 HD
ATOM     19  H2  UNL     1      16.160   3.415  42.909  1.00  0.00     0.202 HD
ATOM     20  H6  UNL     1      13.446   4.940  45.202  1.00  0.00     0.215 HD
BRANCH  16  21
HETATM   21  N3  UNL     1      17.515   4.781  43.761  1.00  0.00     0.005 NA
BRANCH  21  22
HETATM   22  N4  UNL     1      17.293   6.129  44.069  1.00  0.00    -0.015 NA
BRANCH  22  23
HETATM   23  N5  UNL     1      18.108   6.538  45.129  1.00  0.00    -0.330 N
ATOM     24  H52 UNL     1      18.780   5.928  45.595  1.00  0.00     0.173 HD
ATOM     25  H51 UNL     1      17.934   7.515  45.364  1.00  0.00     0.173 HD
ENDBRANCH  22  23
ENDBRANCH  21  22
ENDBRANCH  16  21
ENDBRANCH  12  13
ENDBRANCH   9  12
BRANCH   9  26
HETATM   26  O2  UNL     1      12.184   3.008  44.510  1.00  0.00    -0.279 OA
ATOM     27  H2  UNL     1      12.507   3.577  45.199  1.00  0.00     0.240 HD
ENDBRANCH   9  26
ENDBRANCH   6   7
ENDBRANCH   1   6
BRANCH   5  28
HETATM   28  O6  UNL     1      15.744  -0.338  40.509  1.00  0.00    -0.390 OA
ATOM     29  H6  UNL     1      16.153  -0.185  39.666  1.00  0.00     0.210 HD
ENDBRANCH   5  28
BRANCH   3  30
HETATM   30  N9  UNL     1      15.196   1.133  37.436  1.00  0.00    -0.297 N
HETATM   31  C6  UNL     1      15.682   2.113  36.681  1.00  0.00     0.188 A
HETATM   32  N10 UNL     1      16.504   1.588  35.754  1.00  0.00    -0.346 N
HETATM   33  C7  UNL     1      16.526   0.259  35.940  1.00  0.00     0.122 A
ATOM     34  H10 UNL     1      17.017   2.105  35.040  1.00  0.00     0.167 HD
HETATM   35  C8  UNL     1      17.187  -0.741  35.287  1.00  0.00     0.131 A
HETATM   36  C10 UNL     1      15.699  -0.012  37.001  1.00  0.00     0.142 A
HETATM   37  N12 UNL     1      16.980  -2.006  35.745  1.00  0.00    -0.337 N
HETATM   38  C9  UNL     1      16.167  -2.261  36.786  1.00  0.00     0.183 A
ATOM     39  H12 UNL     1      17.455  -2.782  35.285  1.00  0.00     0.168 HD
HETATM   40  N13 UNL     1      15.516  -1.269  37.428  1.00  0.00    -0.336 N
ATOM     41  H13 UNL     1      14.902  -1.470  38.217  1.00  0.00     0.168 HD
BRANCH  35  42
HETATM   42  N11 UNL     1      17.964  -0.502  34.293  1.00  0.00    -0.383 N
ATOM     43 2H11 UNL     1      18.576   0.314  34.274  1.00  0.00     0.157 HD
ATOM     44 1H11 UNL     1      18.003  -1.118  33.481  1.00  0.00     0.157 HD
ENDBRANCH  35  42
ENDBRANCH   3  30
BRANCH   4  45
HETATM   45  O5  UNL     1      14.695   3.013  40.155  1.00  0.00    -0.388 OA
ATOM     46  H5  UNL     1      14.321   2.931  41.024  1.00  0.00     0.210 HD
ENDBRANCH   4  45
TORSDOF 12
ENDMDL