MODEL 3
REMARK VINA RESULT: -5.123908920      1.871      2.739
REMARK  12 active torsions:
REMARK  status: ('A' for Active; 'I' for Inactive)
REMARK    1  A    between atoms: N1_1  and  C1_4
REMARK    2  A    between atoms: N4_12  and  C5_13
REMARK    3  A    between atoms: C6_15  and  N5_16
REMARK    4  A    between atoms: C7_20  and  O2_21
REMARK    5  A    between atoms: C7_20  and  C8_23
REMARK       I    between atoms: C8_23  and  N6_25
REMARK    6  A    between atoms: N6_25  and  N7_27
REMARK    7  A    between atoms: N7_27  and  N8_28
REMARK    8  A    between atoms: C9_31  and  N9_32
REMARK       I    between atoms: N9_32  and  C10_34
REMARK    9  A    between atoms: C10_34  and  C11_36
REMARK   10  A    between atoms: C11_36  and  C12_37
REMARK   11  A    between atoms: C12_37  and  O5_38
REMARK   12  A    between atoms: C13_40  and  O6_41
ROOT
HETATM    1  C5  UNL     1      14.659   0.855  39.792  1.00  0.00     0.264 C
HETATM    2  O1  UNL     1      15.385   1.056  40.923  1.00  0.00    -0.328 OA
HETATM    3  C6  UNL     1      14.841   1.784  41.918  1.00  0.00     0.367 C
HETATM    4  C7  UNL     1      13.353   1.711  42.010  1.00  0.00     0.214 C
HETATM    5  C9  UNL     1      12.711   2.141  40.750  1.00  0.00     0.166 C
HETATM    6  C13 UNL     1      13.548   1.794  39.539  1.00  0.00     0.193 C
ENDROOT
BRANCH   1   7
HETATM    7  N4  UNL     1      15.595   0.849  38.666  1.00  0.00    -0.297 N
HETATM    8  C2  UNL     1      15.740  -0.198  37.830  1.00  0.00     0.156 A
HETATM    9  N2  UNL     1      15.156  -1.425  37.757  1.00  0.00    -0.174 N
HETATM   10  C3  UNL     1      16.697   0.113  36.882  1.00  0.00     0.120 A
HETATM   11  C1  UNL     1      15.471  -2.329  36.812  1.00  0.00     0.678 A
ATOM     12  H2  UNL     1      14.448  -1.671  38.449  1.00  0.00     0.186 HD
HETATM   13  N11 UNL     1      16.402  -2.009  35.902  1.00  0.00    -0.177 N
HETATM   14  C14 UNL     1      17.027  -0.821  35.901  1.00  0.00     0.162 A
ATOM     15  H11 UNL     1      16.644  -2.692  35.184  1.00  0.00     0.185 HD
HETATM   16  N10 UNL     1      18.002  -0.476  34.954  1.00  0.00    -0.080 NA
HETATM   17  N3  UNL     1      17.097   1.347  37.183  1.00  0.00    -0.346 N
HETATM   18  C4  UNL     1      16.430   1.793  38.262  1.00  0.00     0.188 A
ATOM     19  H3  UNL     1      17.803   1.876  36.670  1.00  0.00     0.167 HD
BRANCH  11  20
HETATM   20  N1  UNL     1      14.877  -3.502  36.787  1.00  0.00    -0.234 N
ATOM     21  H12 UNL     1      14.981  -4.124  35.985  1.00  0.00     0.174 HD
ATOM     22  H11 UNL     1      14.303  -3.808  37.572  1.00  0.00     0.174 HD
ENDBRANCH  11  20
ENDBRANCH   1   7
BRANCH   6  23
HETATM   23  O6  UNL     1      13.923   2.958  38.872  1.00  0.00    -0.389 OA
ATOM     24  H6  UNL     1      13.256   3.633  38.861  1.00  0.00     0.210 HD
ENDBRANCH   6  23
BRANCH   3  25
HETATM   25  N5  UNL     1      15.422   3.083  41.975  1.00  0.00    -0.049 N
ATOM     26  H53 UNL     1      15.451   3.523  41.055  1.00  0.00     0.277 HD
ATOM     27  H52 UNL     1      14.810   3.749  42.446  1.00  0.00     0.277 HD
ATOM     28  H51 UNL     1      16.346   3.050  42.406  1.00  0.00     0.277 HD
ENDBRANCH   3  25
BRANCH   5  29
HETATM   29  N9  UNL     1      11.424   1.420  40.687  1.00  0.00    -0.350 N
HETATM   30  C10 UNL     1      10.204   2.038  41.018  1.00  0.00     0.220 C
HETATM   31  O4  UNL     1      10.155   3.236  41.378  1.00  0.00    -0.274 OA
ATOM     32  H9  UNL     1      11.419   0.443  40.395  1.00  0.00     0.163 HD
BRANCH  30  33
HETATM   33  C11 UNL     1       8.920   1.250  40.939  1.00  0.00     0.128 C
BRANCH  33  34
HETATM   34  C12 UNL     1       8.653   0.599  42.262  1.00  0.00     0.173 C
BRANCH  34  35
HETATM   35  O5  UNL     1       9.726   0.903  43.134  1.00  0.00    -0.400 OA
ATOM     36  H5  UNL     1       9.517   1.703  43.600  1.00  0.00     0.209 HD
ENDBRANCH  34  35
ENDBRANCH  33  34
ENDBRANCH  30  33
ENDBRANCH   5  29
BRANCH   4  37
HETATM   37  O2  UNL     1      13.069   0.313  42.118  1.00  0.00    -0.374 OA
ATOM     38  H2  UNL     1      13.579   0.024  42.865  1.00  0.00     0.211 HD
ENDBRANCH   4  37
BRANCH   4  39
HETATM   39  C8  UNL     1      12.820   2.328  43.233  1.00  0.00     0.276 C
HETATM   40  O3  UNL     1      12.707   1.623  44.280  1.00  0.00    -0.268 OA
HETATM   41  N6  UNL     1      12.410   3.670  43.357  1.00  0.00    -0.252 N
ATOM     42  H6  UNL     1      12.479   4.268  42.534  1.00  0.00     0.187 HD
BRANCH  41  43
HETATM   43  N7  UNL     1      11.916   4.233  44.535  1.00  0.00    -0.027 NA
BRANCH  43  44
HETATM   44  N8  UNL     1      12.529   5.442  44.848  1.00  0.00    -0.329 N
ATOM     45  H82 UNL     1      13.096   5.964  44.179  1.00  0.00     0.174 HD
ATOM     46  H81 UNL     1      12.347   5.738  45.807  1.00  0.00     0.174 HD
ENDBRANCH  43  44
ENDBRANCH  41  43
ENDBRANCH   4  39
TORSDOF 12
ENDMDL