MODEL 1
REMARK VINA RESULT: -6.439482231      0.000      0.000
REMARK  12 active torsions:
REMARK  status: ('A' for Active; 'I' for Inactive)
REMARK    1  A    between atoms: C3_9  and  O2_10
REMARK    2  A    between atoms: O2_10  and  N3_11
REMARK    3  A    between atoms: N3_11  and  C4_13
REMARK    4  A    between atoms: C5_16  and  N5_17
REMARK    5  A    between atoms: C6_21  and  O3_22
REMARK    6  A    between atoms: C6_21  and  C7_24
REMARK    7  A    between atoms: C8_29  and  O6_30
REMARK    8  A    between atoms: C9_32  and  N7_33
REMARK    9  A    between atoms: N7_33  and  O7_35
REMARK   10  A    between atoms: C11_42  and  O8_43
REMARK   11  A    between atoms: C11_42  and  C12_45
REMARK   12  A    between atoms: C12_45  and  O9_46
ROOT
HETATM    1  C4  UNL     1      15.385   3.000  43.204  1.00  0.00     0.156 C
HETATM    2  N4  UNL     1      14.918   2.103  42.408  1.00  0.00    -0.341 N
ATOM      3  H4  UNL     1      15.642   1.529  41.977  1.00  0.00     0.163 HD
HETATM    4  C5  UNL     1      13.584   1.742  42.001  1.00  0.00     0.350 C
HETATM    5  C6  UNL     1      12.700   2.939  41.749  1.00  0.00     0.271 C
HETATM    6  N6  UNL     1      12.387   3.676  42.953  1.00  0.00    -0.325 N
ATOM      7  H6  UNL     1      11.400   3.794  43.178  1.00  0.00     0.165 HD
HETATM    8  C8  UNL     1      13.327   4.249  43.853  1.00  0.00     0.172 C
HETATM    9  C9  UNL     1      14.610   3.951  43.951  1.00  0.00     0.150 C
ENDROOT
BRANCH   1  10
HETATM   10  N3  UNL     1      16.790   3.071  43.369  1.00  0.00    -0.244 N
ATOM     11  H3  UNL     1      17.284   2.277  43.776  1.00  0.00     0.196 HD
BRANCH  10  12
HETATM   12  O2  UNL     1      17.491   4.165  42.999  1.00  0.00    -0.224 OA
BRANCH  12  13
HETATM   13  C3  UNL     1      18.545   4.413  43.865  1.00  0.00     0.413 C
HETATM   14  O1  UNL     1      18.269   5.387  44.807  1.00  0.00    -0.314 OA
HETATM   15  C2  UNL     1      18.053   6.623  44.251  1.00  0.00     0.255 C
HETATM   16  N2  UNL     1      18.267   7.709  45.184  1.00  0.00    -0.349 N
HETATM   17  C10 UNL     1      18.928   6.910  43.071  1.00  0.00     0.192 C
HETATM   18  C1  UNL     1      18.989   8.769  44.577  1.00  0.00     0.112 C
ATOM     19  H2  UNL     1      17.941   7.711  46.151  1.00  0.00     0.163 HD
HETATM   20  N1  UNL     1      19.229   9.920  45.067  1.00  0.00    -0.386 N
HETATM   21  C11 UNL     1      19.441   8.318  43.238  1.00  0.00     0.162 C
ATOM     22  H12 UNL     1      18.919  10.230  45.988  1.00  0.00     0.157 HD
ATOM     23  H11 UNL     1      19.748  10.682  44.631  1.00  0.00     0.157 HD
HETATM   24  N9  UNL     1      20.028   6.011  42.938  1.00  0.00    -0.324 N
HETATM   25  N8  UNL     1      19.714   4.677  43.078  1.00  0.00    -0.287 N
ATOM     26  H9  UNL     1      20.977   6.332  42.752  1.00  0.00     0.180 HD
ATOM     27  H8  UNL     1      20.271   3.935  42.655  1.00  0.00     0.185 HD
BRANCH  21  28
HETATM   28  O8  UNL     1      18.928   9.167  42.268  1.00  0.00    -0.377 OA
ATOM     29  H8  UNL     1      18.629   8.654  41.526  1.00  0.00     0.211 HD
ENDBRANCH  21  28
BRANCH  21  30
HETATM   30  C12 UNL     1      20.944   8.394  43.218  1.00  0.00     0.212 C
BRANCH  30  31
HETATM   31  O9  UNL     1      21.400   8.037  44.486  1.00  0.00    -0.397 OA
ATOM     32  H9  UNL     1      21.754   8.818  44.894  1.00  0.00     0.209 HD
ENDBRANCH  30  31
ENDBRANCH  21  30
ENDBRANCH  12  13
ENDBRANCH  10  12
ENDBRANCH   1  10
BRANCH   9  33
HETATM   33  N7  UNL     1      15.318   4.682  44.942  1.00  0.00    -0.261 N
ATOM     34  H7  UNL     1      15.571   5.663  44.817  1.00  0.00     0.194 HD
BRANCH  33  35
HETATM   35  O7  UNL     1      15.614   4.040  45.989  1.00  0.00    -0.289 OA
ATOM     36  H7  UNL     1      15.203   4.345  46.789  1.00  0.00     0.244 HD
ENDBRANCH  33  35
ENDBRANCH   9  33
BRANCH   4  37
HETATM   37  N5  UNL     1      12.982   0.812  42.938  1.00  0.00    -0.053 N
ATOM     38  H53 UNL     1      13.311  -0.141  42.783  1.00  0.00     0.277 HD
ATOM     39  H52 UNL     1      13.338   0.949  43.883  1.00  0.00     0.277 HD
ATOM     40  H51 UNL     1      11.964   0.866  42.910  1.00  0.00     0.277 HD
ENDBRANCH   4  37
BRANCH   8  41
HETATM   41  O6  UNL     1      12.859   5.225  44.724  1.00  0.00    -0.344 OA
ATOM     42  H6  UNL     1      12.713   4.967  45.627  1.00  0.00     0.219 HD
ENDBRANCH   8  41
BRANCH   5  43
HETATM   43  O3  UNL     1      13.403   3.806  40.913  1.00  0.00    -0.359 OA
ATOM     44  H3  UNL     1      13.560   3.346  40.096  1.00  0.00     0.213 HD
ENDBRANCH   5  43
BRANCH   5  45
HETATM   45  C7  UNL     1      11.489   2.472  41.068  1.00  0.00     0.235 C
HETATM   46  O4  UNL     1      11.550   1.517  40.266  1.00  0.00    -0.644 OA
HETATM   47  O5  UNL     1      10.274   3.078  41.305  1.00  0.00    -0.644 OA
ENDBRANCH   5  45
TORSDOF 12
ENDMDL