MODEL 1
REMARK VINA RESULT: -4.975682453      0.000      0.000
REMARK  12 active torsions:
REMARK  status: ('A' for Active; 'I' for Inactive)
REMARK    1  A    between atoms: C2_10  and  C3_11
REMARK    2  A    between atoms: C5_17  and  O2_18
REMARK    3  A    between atoms: O2_18  and  C6_19
REMARK    4  A    between atoms: C7_20  and  C8_21
REMARK    5  A    between atoms: C8_21  and  O3_22
REMARK    6  A    between atoms: C8_21  and  O4_24
REMARK    7  A    between atoms: C9_26  and  N6_27
REMARK    8  A    between atoms: C9_26  and  C10_31
REMARK    9  A    between atoms: C12_35  and  N7_36
REMARK   10  A    between atoms: N7_36  and  N8_38
REMARK   11  A    between atoms: C13_44  and  C14_45
REMARK   12  A    between atoms: C14_45  and  O7_46
ROOT
HETATM    1  C6  UNL     1      14.345   0.599  42.394  1.00  0.00     0.095 C
HETATM    2  C7  UNL     1      13.677   0.277  43.477  1.00  0.00     0.053 C
HETATM    3  C9  UNL     1      13.347   1.500  44.271  1.00  0.00     0.253 C
HETATM    4  C11 UNL     1      14.259   2.548  43.733  1.00  0.00     0.142 C
HETATM    5  C12 UNL     1      13.632   3.859  43.478  1.00  0.00     0.117 C
HETATM    6  N9  UNL     1      13.269   3.944  42.246  1.00  0.00    -0.290 N
ATOM      7  H9  UNL     1      12.814   4.758  41.834  1.00  0.00     0.183 HD
HETATM    8  N10 UNL     1      13.580   2.769  41.544  1.00  0.00    -0.119 NA
HETATM    9  C13 UNL     1      14.537   2.049  42.340  1.00  0.00     0.134 C
ENDROOT
BRANCH   1  10
HETATM   10  O2  UNL     1      14.831  -0.250  41.401  1.00  0.00    -0.293 OA
BRANCH  10  11
HETATM   11  C5  UNL     1      14.122  -0.863  40.426  1.00  0.00     0.178 A
HETATM   12  C3  UNL     1      13.846  -0.429  39.155  1.00  0.00     0.118 A
HETATM   13  N4  UNL     1      13.092  -1.428  38.578  1.00  0.00    -0.347 N
HETATM   14  C4  UNL     1      12.912  -2.420  39.442  1.00  0.00     0.183 A
ATOM     15  H4  UNL     1      12.725  -1.408  37.627  1.00  0.00     0.167 HD
HETATM   16  N5  UNL     1      13.542  -2.067  40.560  1.00  0.00    -0.331 N
ATOM     17  H5  UNL     1      13.580  -2.635  41.407  1.00  0.00     0.168 HD
BRANCH  12  18
HETATM   18  C2  UNL     1      14.211   0.783  38.466  1.00  0.00     0.133 A
HETATM   19  C1  UNL     1      15.082   0.979  37.446  1.00  0.00     0.152 A
HETATM   20  N1  UNL     1      15.822   0.167  36.807  1.00  0.00    -0.382 N
HETATM   21  N2  UNL     1      15.070   2.313  37.149  1.00  0.00    -0.224 N
ATOM     22  H12 UNL     1      16.477   0.315  36.039  1.00  0.00     0.157 HD
ATOM     23  H11 UNL     1      15.830  -0.828  37.029  1.00  0.00     0.157 HD
HETATM   24  O1  UNL     1      14.228   2.884  37.959  1.00  0.00    -0.155 OA
ATOM     25  H2  UNL     1      15.620   2.776  36.425  1.00  0.00     0.198 HD
HETATM   26  N3  UNL     1      13.707   1.997  38.747  1.00  0.00    -0.236 N
ATOM     27  H3  UNL     1      13.017   2.192  39.472  1.00  0.00     0.197 HD
ENDBRANCH  12  18
ENDBRANCH  10  11
ENDBRANCH   1  10
BRANCH   2  28
HETATM   28  C8  UNL     1      13.277  -1.092  43.907  1.00  0.00     0.290 C
BRANCH  28  29
HETATM   29  O3  UNL     1      12.117  -1.461  43.233  1.00  0.00    -0.367 OA
ATOM     30  H3  UNL     1      11.618  -2.061  43.776  1.00  0.00     0.213 HD
ENDBRANCH  28  29
BRANCH  28  31
HETATM   31  O4  UNL     1      14.258  -2.018  43.648  1.00  0.00    -0.367 OA
ATOM     32  H4  UNL     1      14.122  -2.823  44.134  1.00  0.00     0.213 HD
ENDBRANCH  28  31
ENDBRANCH   2  28
BRANCH   9  33
HETATM   33  C14 UNL     1      15.966   2.401  41.920  1.00  0.00     0.201 C
BRANCH  33  34
HETATM   34  O7  UNL     1      15.934   2.737  40.575  1.00  0.00    -0.398 OA
ATOM     35  H7  UNL     1      16.794   3.068  40.343  1.00  0.00     0.209 HD
ENDBRANCH  33  34
ENDBRANCH   9  33
BRANCH   3  36
HETATM   36  N6  UNL     1      13.726   1.144  45.658  1.00  0.00    -0.055 N
ATOM     37  H63 UNL     1      12.934   0.948  46.271  1.00  0.00     0.276 HD
ATOM     38  H62 UNL     1      14.166   0.228  45.749  1.00  0.00     0.276 HD
ATOM     39  H61 UNL     1      14.310   1.922  45.963  1.00  0.00     0.276 HD
ENDBRANCH   3  36
BRANCH   3  40
HETATM   40  C10 UNL     1      11.919   1.807  44.256  1.00  0.00     0.216 C
HETATM   41  O5  UNL     1      11.416   2.363  45.292  1.00  0.00    -0.646 OA
HETATM   42  O6  UNL     1      11.024   1.567  43.240  1.00  0.00    -0.646 OA
ENDBRANCH   3  40
BRANCH   5  43
HETATM   43  N7  UNL     1      13.476   4.856  44.486  1.00  0.00    -0.294 N
ATOM     44  H7  UNL     1      14.300   5.249  44.942  1.00  0.00     0.187 HD
BRANCH  43  45
HETATM   45  N8  UNL     1      12.189   5.305  44.859  1.00  0.00    -0.344 N
ATOM     46  H82 UNL     1      11.393   5.057  44.270  1.00  0.00     0.176 HD
ATOM     47  H81 UNL     1      12.058   5.865  45.702  1.00  0.00     0.176 HD
ENDBRANCH  43  45
ENDBRANCH   5  43
TORSDOF 12
ENDMDL