MODEL 4
REMARK VINA RESULT: -5.102859392      2.447      3.935
REMARK  16 active torsions:
REMARK  status: ('A' for Active; 'I' for Inactive)
REMARK    1  A    between atoms: N2_4  and  O1_6
REMARK    2  A    between atoms: O1_6  and  C1_7
REMARK    3  A    between atoms: C1_7  and  O2_8
REMARK    4  A    between atoms: C2_10  and  O3_11
REMARK    5  A    between atoms: C3_13  and  N3_14
REMARK    6  A    between atoms: C4_15  and  N4_16
REMARK    7  A    between atoms: C5_22  and  N7_23
REMARK    8  A    between atoms: C6_28  and  N9_29
REMARK    9  A    between atoms: C8_36  and  C9_37
REMARK   10  A    between atoms: C9_37  and  C10_38
REMARK   11  A    between atoms: C9_37  and  C11_41
REMARK   12  A    between atoms: C10_38  and  O5_39
REMARK   13  A    between atoms: C11_41  and  N11_42
REMARK   14  A    between atoms: C11_41  and  C12_46
REMARK   15  A    between atoms: C12_46  and  O6_47
REMARK   16  A    between atoms: C12_46  and  O7_49
ROOT
HETATM    1  C1  UNL     1      12.765   3.145  42.422  1.00  0.00     0.246 C
HETATM    2  C2  UNL     1      13.129   3.213  40.892  1.00  0.00     0.235 C
HETATM    3  C3  UNL     1      14.518   2.634  40.967  1.00  0.00     0.299 C
HETATM    4  O4  UNL     1      14.659   1.988  42.154  1.00  0.00    -0.351 OA
HETATM    5  C8  UNL     1      13.364   1.847  42.680  1.00  0.00     0.200 C
ENDROOT
BRANCH   3   6
HETATM    6  N3  UNL     1      14.819   1.770  39.851  1.00  0.00     0.020 N
HETATM    7  C4  UNL     1      14.650   1.975  38.555  1.00  0.00     0.711 A
HETATM    8  N5  UNL     1      15.091   0.852  37.881  1.00  0.00    -0.095 N
HETATM    9  N6  UNL     1      15.508   0.009  38.790  1.00  0.00     0.106 N
ATOM     10  H5  UNL     1      15.090   0.708  36.871  1.00  0.00     0.207 HD
HETATM   11  C5  UNL     1      16.027  -1.233  38.622  1.00  0.00     0.727 A
HETATM   12  C7  UNL     1      15.359   0.531  40.001  1.00  0.00     0.752 A
HETATM   13  N8  UNL     1      16.383  -1.911  39.712  1.00  0.00    -0.020 N
HETATM   14  C6  UNL     1      16.238  -1.393  40.944  1.00  0.00     0.705 A
ATOM     15  H8  UNL     1      16.776  -2.847  39.609  1.00  0.00     0.203 HD
HETATM   16  N10 UNL     1      15.722  -0.159  41.125  1.00  0.00    -0.019 N
ATOM     17  H10 UNL     1      15.608   0.241  42.057  1.00  0.00     0.203 HD
BRANCH   7  18
HETATM   18  N4  UNL     1      14.166   2.992  37.926  1.00  0.00    -0.233 N
ATOM     19  H42 UNL     1      13.317   3.460  38.243  1.00  0.00     0.174 HD
ATOM     20  H41 UNL     1      14.502   3.474  37.092  1.00  0.00     0.174 HD
ENDBRANCH   7  18
BRANCH  11  21
HETATM   21  N7  UNL     1      16.153  -1.698  37.422  1.00  0.00    -0.232 N
ATOM     22  H72 UNL     1      16.862  -2.382  37.157  1.00  0.00     0.174 HD
ATOM     23  H71 UNL     1      15.515  -1.370  36.698  1.00  0.00     0.174 HD
ENDBRANCH  11  21
BRANCH  14  24
HETATM   24  N9  UNL     1      16.592  -2.077  41.969  1.00  0.00    -0.234 N
ATOM     25  H92 UNL     1      16.099  -2.945  42.180  1.00  0.00     0.174 HD
ATOM     26  H91 UNL     1      17.358  -1.751  42.558  1.00  0.00     0.174 HD
ENDBRANCH  14  24
ENDBRANCH   3   6
BRANCH   2  27
HETATM   27  O3  UNL     1      12.225   2.458  40.191  1.00  0.00    -0.385 OA
ATOM     28  H3  UNL     1      12.690   1.753  39.755  1.00  0.00     0.210 HD
ENDBRANCH   2  27
BRANCH   1  29
HETATM   29  O1  UNL     1      13.408   4.286  42.919  1.00  0.00    -0.220 OA
BRANCH  29  30
HETATM   30  N2  UNL     1      13.352   4.729  44.195  1.00  0.00    -0.211 N
HETATM   31  N1  UNL     1      12.296   5.138  44.770  1.00  0.00    -0.326 N
ATOM     32  H12 UNL     1      11.440   5.124  44.216  1.00  0.00     0.178 HD
ATOM     33  H11 UNL     1      12.254   5.472  45.732  1.00  0.00     0.178 HD
ATOM     34  H2  UNL     1      14.218   4.735  44.733  1.00  0.00     0.215 HD
ENDBRANCH  29  30
ENDBRANCH   1  29
BRANCH   1  35
HETATM   35  O2  UNL     1      11.379   3.256  42.510  1.00  0.00    -0.360 OA
ATOM     36  H2  UNL     1      11.016   2.639  43.134  1.00  0.00     0.213 HD
ENDBRANCH   1  35
BRANCH   5  37
HETATM   37  C9  UNL     1      13.359   1.160  43.976  1.00  0.00     0.079 C
BRANCH  37  38
HETATM   38  C10 UNL     1      12.078   1.205  44.689  1.00  0.00     0.173 C
BRANCH  38  39
HETATM   39  O5  UNL     1      11.651   2.331  45.300  1.00  0.00    -0.400 OA
ATOM     40  H5  UNL     1      11.594   2.391  46.247  1.00  0.00     0.209 HD
ENDBRANCH  38  39
ENDBRANCH  37  38
BRANCH  37  41
HETATM   41  C11 UNL     1      14.594   1.330  44.799  1.00  0.00     0.246 C
BRANCH  41  42
HETATM   42  N11 UNL     1      14.455   1.685  46.158  1.00  0.00    -0.070 N
ATOM     43 3H11 UNL     1      14.947   2.563  46.322  1.00  0.00     0.274 HD
ATOM     44 2H11 UNL     1      13.489   1.966  46.330  1.00  0.00     0.274 HD
ATOM     45 1H11 UNL     1      14.735   1.010  46.870  1.00  0.00     0.274 HD
ENDBRANCH  41  42
BRANCH  41  46
HETATM   46  C12 UNL     1      15.584   0.193  44.704  1.00  0.00     0.284 C
BRANCH  46  47
HETATM   47  O6  UNL     1      16.684   0.479  43.900  1.00  0.00    -0.369 OA
ATOM     48  H6  UNL     1      16.835  -0.166  43.219  1.00  0.00     0.212 HD
ENDBRANCH  46  47
BRANCH  46  49
HETATM   49  O7  UNL     1      14.994  -0.969  44.220  1.00  0.00    -0.369 OA
ATOM     50  H7  UNL     1      15.607  -1.694  44.197  1.00  0.00     0.212 HD
ENDBRANCH  46  49
ENDBRANCH  41  46
ENDBRANCH  37  41
ENDBRANCH   5  37
TORSDOF 16
ENDMDL