MODEL 2
REMARK VINA RESULT: -6.155328244      0.832      1.764
REMARK  15 active torsions:
REMARK  status: ('A' for Active; 'I' for Inactive)
REMARK    1  A    between atoms: N1_1  and  C1_4
REMARK    2  A    between atoms: N3_8  and  C3_9
REMARK    3  A    between atoms: C3_9  and  C4_10
REMARK    4  A    between atoms: C5_12  and  N4_13
REMARK    5  A    between atoms: C6_16  and  O2_17
REMARK    6  A    between atoms: C7_19  and  N6_20
REMARK    7  A    between atoms: N6_20  and  O3_21
REMARK    8  A    between atoms: N6_20  and  O4_23
REMARK    9  A    between atoms: O4_23  and  N7_24
REMARK   10  A    between atoms: N7_24  and  N8_25
REMARK   11  A    between atoms: C8_28  and  O5_29
REMARK   12  A    between atoms: C8_28  and  C9_31
REMARK   13  A    between atoms: C9_31  and  O6_32
REMARK   14  A    between atoms: C10_34  and  O7_35
REMARK   15  A    between atoms: C11_39  and  N11_40
ROOT
HETATM    1  C4  UNL     1      14.547   1.203  39.074  1.00  0.00     0.176 C
HETATM    2  O1  UNL     1      14.227   0.613  40.323  1.00  0.00    -0.352 OA
HETATM    3  C5  UNL     1      14.224   1.795  41.088  1.00  0.00     0.285 C
HETATM    4  C8  UNL     1      13.194   2.600  40.411  1.00  0.00     0.152 C
HETATM    5  C10 UNL     1      13.414   2.207  38.939  1.00  0.00     0.190 C
ENDROOT
BRANCH   1   6
HETATM    6  C3  UNL     1      14.599   0.192  37.982  1.00  0.00     0.200 C
BRANCH   6   7
HETATM    7  N3  UNL     1      15.679   0.509  37.073  1.00  0.00    -0.101 N
HETATM    8  C2  UNL     1      16.556  -0.098  36.262  1.00  0.00     0.747 A
HETATM    9  N2  UNL     1      17.069  -1.209  35.724  1.00  0.00    -0.019 N
HETATM   10  N10 UNL     1      17.094   1.081  35.892  1.00  0.00     0.107 N
HETATM   11  C1  UNL     1      18.086  -1.171  34.845  1.00  0.00     0.705 A
ATOM     12  H2  UNL     1      16.678  -2.113  35.988  1.00  0.00     0.203 HD
HETATM   13  N12 UNL     1      18.599   0.024  34.500  1.00  0.00    -0.020 N
HETATM   14  C11 UNL     1      18.107   1.177  35.021  1.00  0.00     0.725 A
ATOM     15  H12 UNL     1      19.370   0.065  33.834  1.00  0.00     0.203 HD
HETATM   16  N9  UNL     1      16.229   1.676  36.693  1.00  0.00     0.033 NA
BRANCH  11  17
HETATM   17  N1  UNL     1      18.592  -2.234  34.319  1.00  0.00    -0.234 N
ATOM     18  H12 UNL     1      19.583  -2.237  34.081  1.00  0.00     0.174 HD
ATOM     19  H11 UNL     1      18.041  -3.071  34.131  1.00  0.00     0.174 HD
ENDBRANCH  11  17
BRANCH  14  20
HETATM   20  N11 UNL     1      18.572   2.334  34.715  1.00  0.00    -0.232 N
ATOM     21 2H11 UNL     1      18.383   2.786  33.820  1.00  0.00     0.174 HD
ATOM     22 1H11 UNL     1      19.157   2.835  35.383  1.00  0.00     0.174 HD
ENDBRANCH  14  20
ENDBRANCH   6   7
ENDBRANCH   1   6
BRANCH   5  23
HETATM   23  O7  UNL     1      12.304   1.563  38.430  1.00  0.00    -0.390 OA
ATOM     24  H7  UNL     1      12.126   1.897  37.559  1.00  0.00     0.210 HD
ENDBRANCH   5  23
BRANCH   3  25
HETATM   25  N4  UNL     1      14.098   1.585  42.490  1.00  0.00    -0.238 N
HETATM   26  N5  UNL     1      13.862   0.609  43.315  1.00  0.00    -0.271 N
HETATM   27  C6  UNL     1      13.947   1.403  44.385  1.00  0.00     0.201 A
ATOM     28  H5  UNL     1      13.681  -0.386  43.192  1.00  0.00     0.189 HD
HETATM   29  C7  UNL     1      14.196   2.432  43.528  1.00  0.00     0.210 A
BRANCH  27  30
HETATM   30  O2  UNL     1      13.845   1.308  45.760  1.00  0.00    -0.343 OA
ATOM     31  H2  UNL     1      13.204   1.474  46.441  1.00  0.00     0.219 HD
ENDBRANCH  27  30
BRANCH  29  32
HETATM   32  N6  UNL     1      14.456   3.850  43.681  1.00  0.00     0.012 NA
BRANCH  32  33
HETATM   33  O3  UNL     1      15.530   4.163  42.889  1.00  0.00    -0.281 OA
ATOM     34  H3  UNL     1      15.346   4.996  42.470  1.00  0.00     0.240 HD
ENDBRANCH  32  33
BRANCH  32  35
HETATM   35  O4  UNL     1      13.384   4.502  43.240  1.00  0.00    -0.136 OA
BRANCH  35  36
HETATM   36  N7  UNL     1      12.331   4.319  44.069  1.00  0.00     0.036 NA
BRANCH  36  37
HETATM   37  N8  UNL     1      12.312   5.428  44.941  1.00  0.00    -0.321 N
ATOM     38  H82 UNL     1      13.047   5.685  45.600  1.00  0.00     0.174 HD
ATOM     39  H81 UNL     1      11.428   5.909  44.778  1.00  0.00     0.174 HD
ENDBRANCH  36  37
ENDBRANCH  35  36
ENDBRANCH  32  35
ENDBRANCH  29  32
ENDBRANCH   3  25
BRANCH   4  40
HETATM   40  O5  UNL     1      13.414   3.961  40.601  1.00  0.00    -0.380 OA
ATOM     41  H5  UNL     1      14.238   4.233  40.215  1.00  0.00     0.211 HD
ENDBRANCH   4  40
BRANCH   4  42
HETATM   42  C9  UNL     1      11.773   2.312  40.726  1.00  0.00     0.209 C
BRANCH  42  43
HETATM   43  O6  UNL     1      11.210   3.237  41.615  1.00  0.00    -0.398 OA
ATOM     44  H6  UNL     1      11.820   3.914  41.883  1.00  0.00     0.209 HD
ENDBRANCH  42  43
ENDBRANCH   4  42
TORSDOF 15
ENDMDL