MODEL 4
REMARK VINA RESULT: -5.227922026      4.059      7.376
REMARK  15 active torsions:
REMARK  status: ('A' for Active; 'I' for Inactive)
REMARK    1  A    between atoms: N1_1  and  C1_5
REMARK    2  A    between atoms: C1_5  and  O1_6
REMARK    3  A    between atoms: C1_5  and  N2_8
REMARK    4  A    between atoms: N2_8  and  C2_10
REMARK    5  A    between atoms: C4_12  and  C5_13
REMARK    6  A    between atoms: C5_13  and  O2_14
REMARK    7  A    between atoms: C5_13  and  O3_16
REMARK    8  A    between atoms: N3_18  and  N4_19
REMARK    9  A    between atoms: C6_20  and  O4_21
REMARK   10  A    between atoms: C9_25  and  O5_26
REMARK   11  A    between atoms: C12_34  and  O8_35
REMARK   12  A    between atoms: C12_34  and  C13_37
REMARK   13  A    between atoms: C13_37  and  O9_38
REMARK   14  A    between atoms: C13_37  and  C14_40
REMARK   15  A    between atoms: C14_40  and  O10_41
ROOT
HETATM    1  N4  UNL     1      10.736   1.085  40.365  1.00  0.00    -0.188 N
HETATM    2  C6  UNL     1      11.236   2.106  41.121  1.00  0.00     0.178 A
HETATM    3  C7  UNL     1      12.542   2.104  41.559  1.00  0.00     0.071 A
HETATM    4  C8  UNL     1      13.317   1.024  41.198  1.00  0.00     0.088 A
HETATM    5  C9  UNL     1      12.808  -0.013  40.429  1.00  0.00     0.164 A
HETATM    6  C10 UNL     1      11.498   0.037  40.017  1.00  0.00     0.304 A
HETATM    7  O6  UNL     1      10.989  -0.875  39.321  1.00  0.00    -0.263 OA
HETATM    8  N5  UNL     1      14.625   1.201  41.740  1.00  0.00    -0.321 N
ATOM      9  H5  UNL     1      15.411   0.559  41.635  1.00  0.00     0.169 HD
HETATM   10  C11 UNL     1      14.637   2.427  42.451  1.00  0.00     0.264 A
HETATM   11  O7  UNL     1      15.622   2.900  43.057  1.00  0.00    -0.269 OA
HETATM   12  C12 UNL     1      13.300   3.053  42.360  1.00  0.00     0.200 A
ENDROOT
BRANCH   1  13
HETATM   13  N3  UNL     1       9.395   1.170  39.963  1.00  0.00    -0.253 N
HETATM   14  C4  UNL     1       8.362   0.752  40.705  1.00  0.00     0.090 A
HETATM   15  C3  UNL     1       7.176   0.964  40.047  1.00  0.00     0.063 A
HETATM   16  C2  UNL     1       7.484   1.541  38.840  1.00  0.00     0.051 A
HETATM   17  C15 UNL     1       8.871   1.653  38.825  1.00  0.00     0.146 A
BRANCH  14  18
HETATM   18  C5  UNL     1       8.466   0.141  42.049  1.00  0.00     0.307 C
BRANCH  18  19
HETATM   19  O2  UNL     1       8.640   1.123  43.050  1.00  0.00    -0.366 OA
ATOM     20  H2  UNL     1       8.689   0.733  43.914  1.00  0.00     0.213 HD
ENDBRANCH  18  19
BRANCH  18  21
HETATM   21  O3  UNL     1       7.291  -0.552  42.332  1.00  0.00    -0.366 OA
ATOM     22  H3  UNL     1       7.298  -1.382  41.871  1.00  0.00     0.213 HD
ENDBRANCH  18  21
ENDBRANCH  14  18
BRANCH  16  23
HETATM   23  N2  UNL     1       6.587   1.956  37.790  1.00  0.00    -0.341 N
ATOM     24  H2  UNL     1       5.963   1.278  37.351  1.00  0.00     0.164 HD
BRANCH  23  25
HETATM   25  C1  UNL     1       6.577   3.336  37.363  1.00  0.00     0.424 C
BRANCH  25  26
HETATM   26  N1  UNL     1       5.257   3.906  37.539  1.00  0.00    -0.035 N
ATOM     27  H13 UNL     1       4.705   3.866  36.681  1.00  0.00     0.279 HD
ATOM     28  H12 UNL     1       4.662   3.322  38.126  1.00  0.00     0.279 HD
ATOM     29  H11 UNL     1       5.335   4.857  37.899  1.00  0.00     0.279 HD
ENDBRANCH  25  26
BRANCH  25  30
HETATM   30  O1  UNL     1       6.926   3.351  36.010  1.00  0.00    -0.355 OA
ATOM     31  H1  UNL     1       7.599   2.701  35.841  1.00  0.00     0.213 HD
ENDBRANCH  25  30
ENDBRANCH  23  25
ENDBRANCH  16  23
ENDBRANCH   1  13
BRANCH   2  32
HETATM   32  O4  UNL     1      10.425   3.164  41.457  1.00  0.00    -0.344 OA
ATOM     33  H4  UNL     1      10.807   4.022  41.594  1.00  0.00     0.219 HD
ENDBRANCH   2  32
BRANCH   5  34
HETATM   34  O5  UNL     1      13.643  -1.095  40.087  1.00  0.00    -0.354 OA
ATOM     35  H5  UNL     1      13.955  -1.678  40.769  1.00  0.00     0.218 HD
ENDBRANCH   5  34
BRANCH  12  36
HETATM   36  O8  UNL     1      13.481   4.287  41.723  1.00  0.00    -0.373 OA
ATOM     37  H8  UNL     1      14.321   4.688  41.919  1.00  0.00     0.211 HD
ENDBRANCH  12  36
BRANCH  12  38
HETATM   38  C13 UNL     1      12.744   3.284  43.740  1.00  0.00     0.190 C
BRANCH  38  39
HETATM   39  O9  UNL     1      13.656   4.077  44.437  1.00  0.00    -0.390 OA
ATOM     40  H9  UNL     1      13.232   4.905  44.626  1.00  0.00     0.210 HD
ENDBRANCH  38  39
BRANCH  38  41
HETATM   41  C14 UNL     1      12.570   1.982  44.503  1.00  0.00     0.199 C
BRANCH  41  42
HETATM   42  O10 UNL     1      11.235   1.691  44.749  1.00  0.00    -0.398 OA
ATOM     43  H10 UNL     1      11.001   0.812  44.475  1.00  0.00     0.209 HD
ENDBRANCH  41  42
ENDBRANCH  38  41
ENDBRANCH  12  38
TORSDOF 15
ENDMDL