MODEL 4
REMARK VINA RESULT: -4.867980477      6.505      9.246
REMARK  14 active torsions:
REMARK  status: ('A' for Active; 'I' for Inactive)
REMARK    1  A    between atoms: C3_10  and  O2_11
REMARK    2  A    between atoms: C4_13  and  O3_14
REMARK    3  A    between atoms: C5_16  and  C6_17
REMARK    4  A    between atoms: C6_17  and  O4_18
REMARK    5  A    between atoms: C6_17  and  C9_25
REMARK    6  A    between atoms: O4_18  and  C7_19
REMARK    7  A    between atoms: C7_19  and  O5_20
REMARK    8  A    between atoms: C7_19  and  C8_22
REMARK    9  A    between atoms: C8_22  and  O6_23
REMARK   10  A    between atoms: C9_25  and  O7_26
REMARK   11  A    between atoms: C9_25  and  C10_28
REMARK   12  A    between atoms: C10_28  and  O8_29
REMARK   13  A    between atoms: C10_28  and  O9_31
REMARK   14  A    between atoms: C11_33  and  O10_34
ROOT
HETATM    1  O1  UNL     1       8.707   0.715  46.411  1.00  0.00    -0.267 OA
HETATM    2  C1  UNL     1       7.477   0.491  46.357  1.00  0.00     0.285 C
HETATM    3  N1  UNL     1       6.843   0.225  47.641  1.00  0.00    -0.252 N
ATOM      4  H1  UNL     1       7.477   0.086  48.428  1.00  0.00     0.187 HD
HETATM    5  N2  UNL     1       5.488   0.134  47.938  1.00  0.00    -0.008 NA
HETATM    6  N3  UNL     1       4.792   0.994  47.079  1.00  0.00     0.005 NA
HETATM    7  N4  UNL     1       4.381   0.331  45.879  1.00  0.00    -0.005 NA
HETATM    8  N5  UNL     1       5.425   0.538  45.004  1.00  0.00    -0.234 N
HETATM    9  C2  UNL     1       5.212   0.805  43.595  1.00  0.00     0.124 A
HETATM   10  C3  UNL     1       4.192   0.430  42.744  1.00  0.00     0.131 A
HETATM   11  C4  UNL     1       4.219   0.858  41.422  1.00  0.00     0.113 A
HETATM   12  C5  UNL     1       5.260   1.658  40.960  1.00  0.00     0.045 A
HETATM   13  C11 UNL     1       6.262   2.022  41.829  1.00  0.00     0.113 A
HETATM   14  C12 UNL     1       6.258   1.590  43.177  1.00  0.00     0.137 A
HETATM   15  O11 UNL     1       7.086   1.752  44.284  1.00  0.00    -0.310 OA
HETATM   16  C13 UNL     1       6.895   0.522  45.066  1.00  0.00     0.343 C
ENDROOT
BRANCH  12  17
HETATM   17  C6  UNL     1       5.242   1.899  39.435  1.00  0.00     0.197 C
BRANCH  17  18
HETATM   18  O4  UNL     1       6.367   1.699  38.897  1.00  0.00    -0.346 OA
BRANCH  18  19
HETATM   19  C7  UNL     1       7.451   1.473  38.335  1.00  0.00     0.281 C
BRANCH  19  20
HETATM   20  O5  UNL     1       8.282   2.442  37.764  1.00  0.00    -0.369 OA
ATOM     21  H5  UNL     1       9.206   2.329  37.575  1.00  0.00     0.212 HD
ENDBRANCH  19  20
BRANCH  19  22
HETATM   22  C8  UNL     1       7.192   0.500  37.038  1.00  0.00     0.224 C
BRANCH  22  23
HETATM   23  O6  UNL     1       6.758   1.373  36.072  1.00  0.00    -0.396 OA
ATOM     24  H6  UNL     1       6.678   0.823  35.302  1.00  0.00     0.209 HD
ENDBRANCH  22  23
ENDBRANCH  19  22
ENDBRANCH  18  19
ENDBRANCH  17  18
BRANCH  17  25
HETATM   25  C9  UNL     1       4.764   3.286  39.172  1.00  0.00     0.206 C
BRANCH  25  26
HETATM   26  O7  UNL     1       5.537   4.294  39.723  1.00  0.00    -0.388 OA
ATOM     27  H7  UNL     1       6.477   4.160  39.674  1.00  0.00     0.210 HD
ENDBRANCH  25  26
BRANCH  25  28
HETATM   28  C10 UNL     1       4.533   3.595  37.715  1.00  0.00     0.285 C
BRANCH  28  29
HETATM   29  O8  UNL     1       5.679   3.994  37.031  1.00  0.00    -0.369 OA
ATOM     30  H8  UNL     1       5.582   4.810  36.555  1.00  0.00     0.212 HD
ENDBRANCH  28  29
BRANCH  28  31
HETATM   31  O9  UNL     1       4.173   2.348  37.124  1.00  0.00    -0.369 OA
ATOM     32  H9  UNL     1       3.226   2.313  37.179  1.00  0.00     0.212 HD
ENDBRANCH  28  31
ENDBRANCH  25  28
ENDBRANCH  17  25
ENDBRANCH  12  17
BRANCH  11  33
HETATM   33  O3  UNL     1       3.212   0.498  40.542  1.00  0.00    -0.357 OA
ATOM     34  H3  UNL     1       3.281   0.700  39.616  1.00  0.00     0.217 HD
ENDBRANCH  11  33
BRANCH  13  35
HETATM   35  O10 UNL     1       7.262   2.791  41.473  1.00  0.00    -0.357 OA
ATOM     36  H10 UNL     1       7.685   3.392  42.075  1.00  0.00     0.217 HD
ENDBRANCH  13  35
BRANCH  10  37
HETATM   37  O2  UNL     1       3.136  -0.342  43.131  1.00  0.00    -0.356 OA
ATOM     38  H2  UNL     1       3.222  -1.247  43.409  1.00  0.00     0.218 HD
ENDBRANCH  10  37
TORSDOF 14
ENDMDL