MODEL 5
REMARK VINA RESULT: -4.604397247      3.678      6.205
REMARK  16 active torsions:
REMARK  status: ('A' for Active; 'I' for Inactive)
REMARK    1  A    between atoms: C2_2  and  N1_3
REMARK    2  A    between atoms: C2_2  and  C3_7
REMARK    3  A    between atoms: C3_7  and  O1_8
REMARK    4  A    between atoms: C3_7  and  C4_10
REMARK    5  A    between atoms: C5_12  and  O3_13
REMARK    6  A    between atoms: C5_12  and  C6_15
REMARK    7  A    between atoms: C6_15  and  O4_16
REMARK    8  A    between atoms: C6_15  and  C7_18
REMARK    9  A    between atoms: C7_18  and  O5_19
REMARK   10  A    between atoms: C7_18  and  O6_21
REMARK   11  A    between atoms: C8_23  and  O7_24
REMARK   12  A    between atoms: C9_26  and  N2_27
REMARK   13  A    between atoms: C11_31  and  N4_32
REMARK   14  A    between atoms: C12_37  and  N6_38
REMARK   15  A    between atoms: N8_44  and  N9_45
REMARK   16  A    between atoms: N9_45  and  N10_47
ROOT
HETATM    1  C4  UNL     1      13.967   1.354  41.547  1.00  0.00     0.183 C
HETATM    2  O2  UNL     1      13.577   2.068  42.722  1.00  0.00    -0.340 OA
HETATM    3  C5  UNL     1      14.307   3.233  42.786  1.00  0.00     0.222 C
HETATM    4  C8  UNL     1      15.593   2.853  42.103  1.00  0.00     0.210 C
HETATM    5  C9  UNL     1      14.957   2.245  40.874  1.00  0.00     0.179 C
ENDROOT
BRANCH   5   6
HETATM    6  N2  UNL     1      15.787   1.794  39.852  1.00  0.00    -0.226 N
HETATM    7  C10 UNL     1      15.499   2.012  38.529  1.00  0.00     0.173 A
HETATM    8  N3  UNL     1      14.472   2.621  37.882  1.00  0.00    -0.173 N
HETATM    9  C13 UNL     1      16.574   1.432  37.751  1.00  0.00     0.141 A
HETATM   10  C11 UNL     1      14.486   2.665  36.541  1.00  0.00     0.679 A
ATOM     11  H3  UNL     1      13.702   3.037  38.406  1.00  0.00     0.186 HD
HETATM   12  N5  UNL     1      15.471   2.134  35.795  1.00  0.00    -0.175 N
HETATM   13  C12 UNL     1      16.532   1.510  36.368  1.00  0.00     0.147 A
ATOM     14  H5  UNL     1      15.421   2.201  34.778  1.00  0.00     0.186 HD
HETATM   15  N7  UNL     1      17.410   0.918  38.645  1.00  0.00    -0.256 N
HETATM   16  N8  UNL     1      16.930   1.139  39.882  1.00  0.00    -0.112 N
ATOM     17  H7  UNL     1      18.281   0.432  38.428  1.00  0.00     0.191 HD
BRANCH  10  18
HETATM   18  N4  UNL     1      13.499   3.247  35.922  1.00  0.00    -0.234 N
ATOM     19  H42 UNL     1      12.725   2.665  35.603  1.00  0.00     0.174 HD
ATOM     20  H41 UNL     1      13.534   4.257  35.780  1.00  0.00     0.174 HD
ENDBRANCH  10  18
BRANCH  13  21
HETATM   21  N6  UNL     1      17.497   0.994  35.718  1.00  0.00    -0.383 N
ATOM     22  H62 UNL     1      17.700   0.007  35.874  1.00  0.00     0.157 HD
ATOM     23  H61 UNL     1      18.082   1.506  35.056  1.00  0.00     0.157 HD
ENDBRANCH  13  21
BRANCH  16  24
HETATM   24  N9  UNL     1      17.694   0.680  40.976  1.00  0.00    -0.212 N
ATOM     25  H9  UNL     1      18.483   1.252  41.278  1.00  0.00     0.211 HD
BRANCH  24  26
HETATM   26  N10 UNL     1      17.444  -0.497  41.672  1.00  0.00    -0.328 N
ATOM     27 2H10 UNL     1      17.468  -1.363  41.131  1.00  0.00     0.178 HD
ATOM     28 1H10 UNL     1      17.243  -0.547  42.670  1.00  0.00     0.178 HD
ENDBRANCH  24  26
ENDBRANCH  16  24
ENDBRANCH   5   6
BRANCH   1  29
HETATM   29  C3  UNL     1      12.636   1.235  40.790  1.00  0.00     0.179 C
BRANCH  29  30
HETATM   30  C2  UNL     1      11.442   1.414  41.681  1.00  0.00     0.210 C
HETATM   31  C1  UNL     1      10.306   0.491  41.299  1.00  0.00     0.042 C
BRANCH  30  32
HETATM   32  N1  UNL     1      10.908   2.755  41.634  1.00  0.00    -0.073 N
ATOM     33  H13 UNL     1      10.164   2.870  40.946  1.00  0.00     0.274 HD
ATOM     34  H12 UNL     1      10.358   3.001  42.456  1.00  0.00     0.274 HD
ATOM     35  H11 UNL     1      11.704   3.374  41.478  1.00  0.00     0.274 HD
ENDBRANCH  30  32
ENDBRANCH  29  30
BRANCH  29  36
HETATM   36  O1  UNL     1      12.548   2.334  39.884  1.00  0.00    -0.391 OA
ATOM     37  H1  UNL     1      11.615   2.502  39.825  1.00  0.00     0.210 HD
ENDBRANCH  29  36
ENDBRANCH   1  29
BRANCH   4  38
HETATM   38  O7  UNL     1      16.225   1.952  42.932  1.00  0.00    -0.388 OA
ATOM     39  H7  UNL     1      16.300   1.141  42.442  1.00  0.00     0.210 HD
ENDBRANCH   4  38
BRANCH   3  40
HETATM   40  O3  UNL     1      13.713   4.226  41.970  1.00  0.00    -0.361 OA
ATOM     41  H3  UNL     1      14.373   4.643  41.429  1.00  0.00     0.213 HD
ENDBRANCH   3  40
BRANCH   3  42
HETATM   42  C6  UNL     1      14.427   3.818  44.142  1.00  0.00     0.237 C
BRANCH  42  43
HETATM   43  O4  UNL     1      15.431   4.821  44.069  1.00  0.00    -0.385 OA
ATOM     44  H4  UNL     1      15.922   4.778  44.880  1.00  0.00     0.210 HD
ENDBRANCH  42  43
BRANCH  42  45
HETATM   45  C7  UNL     1      13.234   4.507  44.705  1.00  0.00     0.287 C
BRANCH  45  46
HETATM   46  O5  UNL     1      12.045   3.936  44.191  1.00  0.00    -0.369 OA
ATOM     47  H5  UNL     1      11.284   4.317  44.615  1.00  0.00     0.212 HD
ENDBRANCH  45  46
BRANCH  45  48
HETATM   48  O6  UNL     1      13.235   5.812  44.139  1.00  0.00    -0.369 OA
ATOM     49  H6  UNL     1      13.430   5.695  43.216  1.00  0.00     0.212 HD
ENDBRANCH  45  48
ENDBRANCH  42  45
ENDBRANCH   3  42
TORSDOF 16
ENDMDL