MODEL 5
REMARK VINA RESULT: -5.931814496      3.936      5.667
REMARK  0 active torsions:
REMARK  status: ('A' for Active; 'I' for Inactive)
ROOT
HETATM    1  F1  UNL     1      69.872  39.493   2.676  1.00  0.00    -0.211 F
HETATM    2  C1  UNL     1      70.015  38.765   1.516  1.00  0.00     0.098 C
HETATM    3  C2  UNL     1      71.249  38.558   1.092  1.00  0.00     0.081 C
HETATM    4  C3  UNL     1      71.679  37.815  -0.115  1.00  0.00     0.218 C
HETATM    5  C4  UNL     1      73.148  37.851  -0.345  1.00  0.00     0.078 C
HETATM    6  C5  UNL     1      73.393  36.497  -0.986  1.00  0.00     0.032 C
HETATM    7  C6  UNL     1      72.268  35.680  -0.445  1.00  0.00     0.172 C
HETATM    8  O1  UNL     1      71.289  36.504   0.027  1.00  0.00    -0.350 OA
HETATM    9  O2  UNL     1      70.963  38.372  -1.200  1.00  0.00    -0.195 OA
HETATM   10  O3  UNL     1      69.809  37.791  -1.223  1.00  0.00    -0.226 OA
HETATM   11  C7  UNL     1      68.790  38.479  -0.613  1.00  0.00     0.102 C
HETATM   12  C8  UNL     1      67.485  37.930  -1.172  1.00  0.00     0.041 C
HETATM   13  C9  UNL     1      66.305  38.559  -0.498  1.00  0.00     0.003 C
HETATM   14  C10 UNL     1      66.332  40.053  -0.551  1.00  0.00     0.000 C
HETATM   15  C11 UNL     1      67.662  40.667  -0.324  1.00  0.00     0.003 C
HETATM   16  C12 UNL     1      68.814  39.952  -0.928  1.00  0.00     0.041 C
HETATM   17  C13 UNL     1      68.747  38.305   0.883  1.00  0.00     0.111 C
ENDROOT
TORSDOF 0
ENDMDL