MODEL 4
REMARK VINA RESULT: -4.668377129      2.250      3.272
REMARK  0 active torsions:
REMARK  status: ('A' for Active; 'I' for Inactive)
ROOT
HETATM    1  C1  UNL     1      71.415  36.452  -0.862  1.00  0.00     0.043 C
HETATM    2  C2  UNL     1      71.499  37.925  -0.895  1.00  0.00     0.158 C
HETATM    3  O1  UNL     1      72.697  38.413  -0.400  1.00  0.00    -0.274 OA
HETATM    4  N1  UNL     1      72.808  38.601   0.952  1.00  0.00    -0.258 N
ATOM      5  H1  UNL     1      73.736  38.658   1.370  1.00  0.00     0.195 HD
HETATM    6  C3  UNL     1      71.790  38.708   1.696  1.00  0.00     0.110 C
HETATM    7 CL1  UNL     1      72.105  38.950   3.427  1.00  0.00    -0.067 Cl
HETATM    8  C4  UNL     1      70.357  38.644   1.213  1.00  0.00     0.019 C
HETATM    9  C5  UNL     1      69.764  37.423   1.892  1.00  0.00     0.023 C
HETATM   10  C6  UNL     1      69.740  39.855   1.867  1.00  0.00     0.023 C
HETATM   11  C7  UNL     1      70.280  38.622  -0.262  1.00  0.00     0.010 C
HETATM   12  C8  UNL     1      69.133  37.900  -0.871  1.00  0.00     0.015 C
HETATM   13  C9  UNL     1      67.775  38.339  -0.498  1.00  0.00     0.011 C
HETATM   14  C10 UNL     1      67.394  39.590  -1.297  1.00  0.00     0.074 C
HETATM   15  S1  UNL     1      68.763  40.723  -1.266  1.00  0.00    -0.168 SA
HETATM   16  C11 UNL     1      70.326  40.032  -0.790  1.00  0.00     0.087 C
ENDROOT
TORSDOF 0
ENDMDL