MODEL 1
REMARK VINA RESULT: -6.322459747      0.000      0.000
REMARK  0 active torsions:
REMARK  status: ('A' for Active; 'I' for Inactive)
ROOT
HETATM    1  C1  UNL     1      67.264  40.506  -2.110  1.00  0.00     0.028 C
HETATM    2  C2  UNL     1      67.060  39.997  -0.686  1.00  0.00     0.040 C
HETATM    3  C3  UNL     1      65.531  39.864  -0.540  1.00  0.00     0.028 C
HETATM    4  C4  UNL     1      67.461  41.010   0.310  1.00  0.00    -0.011 C
HETATM    5  C5  UNL     1      68.594  40.902   0.947  1.00  0.00     0.001 C
HETATM    6  C6  UNL     1      69.513  39.777   0.703  1.00  0.00     0.052 C
HETATM    7  C7  UNL     1      70.565  40.239  -0.262  1.00  0.00     0.035 C
HETATM    8  C8  UNL     1      71.922  39.656  -0.022  1.00  0.00     0.006 C
HETATM    9  C9  UNL     1      71.896  38.331   0.687  1.00  0.00     0.040 C
HETATM   10  C10 UNL     1      71.176  38.406   1.999  1.00  0.00     0.140 C
HETATM   11  C11 UNL     1      72.183  38.721   3.043  1.00  0.00     0.084 C
HETATM   12  N1  UNL     1      72.971  38.969   3.853  1.00  0.00    -0.195 NA
HETATM   13  C12 UNL     1      70.613  37.061   2.274  1.00  0.00     0.084 C
HETATM   14  N2  UNL     1      70.164  36.020   2.499  1.00  0.00    -0.195 NA
HETATM   15  C13 UNL     1      70.079  39.398   2.054  1.00  0.00     0.075 C
HETATM   16  N3  UNL     1      68.821  38.668   0.136  1.00  0.00    -0.357 N
ATOM     17  H3  UNL     1      69.254  37.751   0.249  1.00  0.00     0.162 HD
HETATM   18  C14 UNL     1      67.720  38.703  -0.496  1.00  0.00     0.173 C
HETATM   19  F1  UNL     1      67.173  37.568  -0.984  1.00  0.00    -0.190 F
ENDROOT
TORSDOF 0
ENDMDL