MODEL 3
REMARK VINA RESULT: -5.738722091      2.347      2.842
REMARK  0 active torsions:
REMARK  status: ('A' for Active; 'I' for Inactive)
ROOT
HETATM    1  N1  UNL     1      74.325  42.015  -1.035  1.00  0.00    -0.189 NA
HETATM    2  C1  UNL     1      73.380  41.352  -0.983  1.00  0.00     0.125 C
HETATM    3  C2  UNL     1      72.207  40.499  -0.923  1.00  0.00     0.156 A
HETATM    4  N2  UNL     1      70.979  40.787  -0.621  1.00  0.00    -0.344 N
ATOM      5  H2  UNL     1      70.738  41.748  -0.379  1.00  0.00     0.167 HD
HETATM    6  C3  UNL     1      70.048  39.881  -0.620  1.00  0.00     0.036 A
HETATM    7  C4  UNL     1      70.414  38.601  -0.953  1.00  0.00     0.011 A
HETATM    8  S1  UNL     1      72.084  38.802  -1.244  1.00  0.00    -0.064 SA
HETATM    9  C5  UNL     1      69.235  37.676  -0.903  1.00  0.00     0.086 C
HETATM   10  C6  UNL     1      68.377  38.448   0.101  1.00  0.00     0.189 C
HETATM   11  F1  UNL     1      67.131  37.936   0.044  1.00  0.00    -0.248 F
HETATM   12  C7  UNL     1      68.565  39.838  -0.343  1.00  0.00     0.038 C
HETATM   13  C8  UNL     1      68.177  40.877   0.700  1.00  0.00     0.023 C
HETATM   14  C9  UNL     1      67.270  41.809  -0.059  1.00  0.00    -0.013 C
HETATM   15  C10 UNL     1      68.038  42.543  -1.154  1.00  0.00     0.005 C
HETATM   16  C11 UNL     1      68.299  41.474  -2.210  1.00  0.00     0.006 C
HETATM   17  C12 UNL     1      67.783  40.207  -1.578  1.00  0.00     0.003 C
HETATM   18  C13 UNL     1      66.517  40.796  -0.941  1.00  0.00     0.010 C
ENDROOT
TORSDOF 0
ENDMDL