MODEL 5
REMARK VINA RESULT: -5.933121313      1.381      1.643
REMARK  0 active torsions:
REMARK  status: ('A' for Active; 'I' for Inactive)
ROOT
HETATM    1  C1  UNL     1      69.494  40.175   1.399  1.00  0.00     0.015 C
HETATM    2  C2  UNL     1      69.719  39.701   0.007  1.00  0.00    -0.039 C
HETATM    3  C3  UNL     1      69.515  38.215  -0.039  1.00  0.00     0.015 C
HETATM    4  C4  UNL     1      68.691  37.739  -1.189  1.00  0.00     0.056 C
HETATM    5  C5  UNL     1      67.462  38.519  -1.261  1.00  0.00     0.019 C
HETATM    6  N1  UNL     1      66.260  38.057  -1.334  1.00  0.00    -0.243 N
ATOM      7  H1  UNL     1      66.059  37.058  -1.348  1.00  0.00     0.196 HD
HETATM    8  O1  UNL     1      65.270  39.011  -1.391  1.00  0.00    -0.113 OA
HETATM    9  O2  UNL     1      65.282  40.177  -0.781  1.00  0.00    -0.216 OA
HETATM   10  C6  UNL     1      66.561  40.516  -0.275  1.00  0.00     0.223 C
HETATM   11  C7  UNL     1      67.556  40.002  -1.251  1.00  0.00     0.065 C
HETATM   12  C8  UNL     1      68.962  40.444  -1.052  1.00  0.00     0.007 C
HETATM   13  C9  UNL     1      69.134  41.911  -0.865  1.00  0.00     0.026 C
HETATM   14  C10 UNL     1      70.604  42.228  -1.176  1.00  0.00     0.082 C
HETATM   15 CL1  UNL     1      70.861  43.953  -0.789  1.00  0.00    -0.125 Cl
HETATM   16  C11 UNL     1      71.511  41.423  -0.311  1.00  0.00     0.021 C
HETATM   17  C12 UNL     1      71.207  39.943  -0.307  1.00  0.00     0.011 C
ENDROOT
TORSDOF 0
ENDMDL