MODEL 1
REMARK VINA RESULT: -4.303688857      0.000      0.000
REMARK  0 active torsions:
REMARK  status: ('A' for Active; 'I' for Inactive)
ROOT
HETATM    1  C1  UNL     1      67.476  38.078  -1.219  1.00  0.00     0.065 C
HETATM    2  C2  UNL     1      68.523  38.499  -0.261  1.00  0.00     0.004 C
HETATM    3  N1  UNL     1      69.371  37.589   0.017  1.00  0.00    -0.386 N
ATOM      4  H1  UNL     1      69.187  36.713  -0.472  1.00  0.00     0.160 HD
HETATM    5  C3  UNL     1      70.513  37.522   0.855  1.00  0.00     0.032 C
HETATM    6  C4  UNL     1      70.953  36.049   0.879  1.00  0.00     0.039 C
HETATM    7  C5  UNL     1      70.223  37.900   2.278  1.00  0.00     0.039 C
HETATM    8  C6  UNL     1      71.710  38.256   0.284  1.00  0.00     0.116 C
HETATM    9  S1  UNL     1      71.639  40.026   0.510  1.00  0.00    -0.094 SA
HETATM   10  S2  UNL     1      69.896  40.769  -0.500  1.00  0.00    -0.075 SA
HETATM   11  C7  UNL     1      68.491  39.860   0.257  1.00  0.00     0.174 C
HETATM   12 BR1  UNL     1      66.829  40.771  -0.113  1.00  0.00    -0.072 Br
ENDROOT
TORSDOF 0
ENDMDL