MODEL 2
REMARK VINA RESULT: -6.067108034      2.689      4.026
REMARK  0 active torsions:
REMARK  status: ('A' for Active; 'I' for Inactive)
ROOT
HETATM    1  C1  UNL     1      72.454  36.022   4.591  1.00  0.00     0.067 C
HETATM    2  C2  UNL     1      71.510  36.430   3.521  1.00  0.00     0.027 C
HETATM    3  N1  UNL     1      70.237  36.235   3.565  1.00  0.00    -0.273 N
ATOM      4  H1  UNL     1      69.750  35.781   4.337  1.00  0.00     0.193 HD
HETATM    5  O1  UNL     1      69.618  36.722   2.426  1.00  0.00    -0.267 OA
HETATM    6  C3  UNL     1      70.507  37.657   1.869  1.00  0.00     0.120 A
HETATM    7  C4  UNL     1      70.244  39.085   2.362  1.00  0.00     0.058 A
HETATM    8  C5  UNL     1      70.154  38.683   0.939  1.00  0.00     0.019 A
HETATM    9  C6  UNL     1      68.731  38.590   0.364  1.00  0.00     0.015 C
HETATM   10  C7  UNL     1      68.125  39.934   0.164  1.00  0.00     0.001 C
HETATM   11  C8  UNL     1      69.199  40.987   0.140  1.00  0.00     0.002 C
HETATM   12  C9  UNL     1      70.328  40.480  -0.729  1.00  0.00     0.026 C
HETATM   13  C10 UNL     1      71.011  39.264  -0.115  1.00  0.00     0.044 C
HETATM   14  C11 UNL     1      72.382  39.662   0.296  1.00  0.00     0.033 C
HETATM   15 CL1  UNL     1      71.176  38.078  -1.458  1.00  0.00    -0.119 Cl
HETATM   16  C12 UNL     1      71.824  37.119   2.230  1.00  0.00     0.177 C
HETATM   17  C13 UNL     1      72.281  36.067   1.316  1.00  0.00     0.073 C
HETATM   18  N2  UNL     1      72.655  35.228   0.607  1.00  0.00    -0.196 NA
ENDROOT
TORSDOF 0
ENDMDL