MODEL 3
REMARK VINA RESULT: -4.872858836      4.296      5.887
REMARK  0 active torsions:
REMARK  status: ('A' for Active; 'I' for Inactive)
ROOT
HETATM    1  C1  UNL     1      69.281  39.310  -1.362  1.00  0.00     0.016 C
HETATM    2  C2  UNL     1      68.067  38.814  -0.562  1.00  0.00    -0.031 C
HETATM    3  C3  UNL     1      68.597  38.370   0.796  1.00  0.00     0.016 C
HETATM    4  C4  UNL     1      67.444  37.700  -1.317  1.00  0.00     0.012 C
HETATM    5  C5  UNL     1      65.974  37.603  -1.253  1.00  0.00     0.032 C
HETATM    6  C6  UNL     1      65.305  38.290  -0.124  1.00  0.00     0.097 C
HETATM    7  C7  UNL     1      65.831  39.657   0.189  1.00  0.00     0.052 C
HETATM    8  C8  UNL     1      67.137  39.979  -0.438  1.00  0.00     0.092 C
HETATM    9 CL1  UNL     1      67.946  41.273   0.501  1.00  0.00    -0.124 Cl
HETATM   10  S1  UNL     1      65.343  37.282   1.410  1.00  0.00    -0.146 SA
HETATM   11  C9  UNL     1      63.625  36.690   1.632  1.00  0.00     0.102 C
HETATM   12  C10 UNL     1      63.200  36.159   0.256  1.00  0.00     0.189 C
HETATM   13  O1  UNL     1      63.155  37.254  -0.666  1.00  0.00    -0.319 OA
HETATM   14  C11 UNL     1      63.858  38.430  -0.463  1.00  0.00     0.278 C
HETATM   15  O2  UNL     1      63.301  39.574  -0.561  1.00  0.00    -0.263 OA
ENDROOT
TORSDOF 0
ENDMDL