MODEL 5
REMARK VINA RESULT: -4.838046580      3.755      5.458
REMARK  0 active torsions:
REMARK  status: ('A' for Active; 'I' for Inactive)
ROOT
HETATM    1 CL1  UNL     1      71.371  39.959  -1.716  1.00  0.00    -0.116 Cl
HETATM    2  C1  UNL     1      70.794  38.968  -0.367  1.00  0.00     0.161 C
HETATM    3  C2  UNL     1      71.479  39.362   0.881  1.00  0.00     0.106 C
HETATM    4  C3  UNL     1      70.785  39.226   1.986  1.00  0.00     0.137 C
HETATM    5  O1  UNL     1      71.305  39.551   3.216  1.00  0.00    -0.340 OA
HETATM    6  C4  UNL     1      72.535  40.206   3.447  1.00  0.00     0.203 C
HETATM    7  C5  UNL     1      73.083  40.751   2.142  1.00  0.00     0.202 C
HETATM    8  O2  UNL     1      72.792  39.872   1.078  1.00  0.00    -0.348 OA
HETATM    9  S1  UNL     1      69.156  38.573   1.494  1.00  0.00    -0.091 SA
HETATM   10  C6  UNL     1      69.320  39.186  -0.244  1.00  0.00     0.037 C
HETATM   11  C7  UNL     1      68.483  38.296  -1.088  1.00  0.00     0.023 C
HETATM   12  C8  UNL     1      67.057  38.368  -0.534  1.00  0.00     0.002 C
HETATM   13  C9  UNL     1      66.575  39.792  -0.462  1.00  0.00     0.000 C
HETATM   14  C10 UNL     1      67.499  40.701   0.292  1.00  0.00     0.002 C
HETATM   15  C11 UNL     1      68.882  40.601  -0.365  1.00  0.00     0.023 C
ENDROOT
TORSDOF 0
ENDMDL