MODEL 1
REMARK VINA RESULT: -4.535435183      0.000      0.000
REMARK  3 active torsions:
REMARK  status: ('A' for Active; 'I' for Inactive)
REMARK    1  A    between atoms: C2_2  and  C5_5
REMARK    2  A    between atoms: N1_8  and  C8_9
REMARK    3  A    between atoms: C8_9  and  S2_11
ROOT
HETATM    1  C5  UNL     1      68.190  38.408  -1.067  1.00  0.00     0.161 C
HETATM    2  C6  UNL     1      67.742  39.816  -1.280  1.00  0.00     0.057 C
HETATM    3  C7  UNL     1      66.481  39.908  -0.455  1.00  0.00     0.160 C
HETATM    4  N1  UNL     1      66.149  38.533  -0.238  1.00  0.00    -0.239 N
HETATM    5  O1  UNL     1      67.250  37.748  -0.316  1.00  0.00    -0.270 OA
ENDROOT
BRANCH   1   6
HETATM    6  C2  UNL     1      69.545  38.423  -0.349  1.00  0.00    -0.023 C
HETATM    7  C1  UNL     1      70.435  37.449  -1.070  1.00  0.00     0.017 C
HETATM    8  C3  UNL     1      69.360  38.079   1.104  1.00  0.00     0.017 C
HETATM    9  C4  UNL     1      70.128  39.817  -0.454  1.00  0.00     0.017 C
ENDBRANCH   1   6
BRANCH   4  10
HETATM   10  C8  UNL     1      64.850  38.036   0.023  1.00  0.00     0.175 C
HETATM   11  S1  UNL     1      63.512  38.793  -0.514  1.00  0.00    -0.050 SA
BRANCH  10  12
HETATM   12  S2  UNL     1      64.698  36.540   0.966  1.00  0.00     0.013 SA
HETATM   13 CL1  UNL     1      62.670  36.187   1.359  1.00  0.00    -0.036 Cl
ENDBRANCH  10  12
ENDBRANCH   4  10
TORSDOF 3
ENDMDL