MODEL 4
REMARK VINA RESULT: -6.837766439      4.283      7.143
REMARK  6 active torsions:
REMARK  status: ('A' for Active; 'I' for Inactive)
REMARK    1  A    between atoms: O1_2  and  N1_3
REMARK    2  A    between atoms: C2_5  and  O2_6
REMARK    3  A    between atoms: C2_5  and  C3_8
REMARK    4  A    between atoms: C3_8  and  C4_9
REMARK    5  A    between atoms: C10_16  and  N2_17
REMARK    6  A    between atoms: N2_17  and  C11_19
ROOT
HETATM    1  C11 UNL     1     -14.512  10.762   0.557  1.00  0.00     0.092 A
HETATM    2  S1  UNL     1     -15.306   9.819   1.795  1.00  0.00    -0.083 SA
HETATM    3  C12 UNL     1     -15.087  10.850   3.120  1.00  0.00     0.053 A
HETATM    4  C13 UNL     1     -14.407  11.901   2.580  1.00  0.00     0.033 A
HETATM    5  C14 UNL     1     -14.113  11.855   1.264  1.00  0.00     0.078 A
HETATM    6  C15 UNL     1     -13.399  12.987   0.624  1.00  0.00     0.102 C
HETATM    7  N3  UNL     1     -12.838  13.905   0.141  1.00  0.00    -0.191 NA
ENDROOT
BRANCH   1   8
HETATM    8  N2  UNL     1     -14.400  10.391  -0.821  1.00  0.00    -0.357 N
ATOM      9  H2  UNL     1     -14.534   9.398  -1.016  1.00  0.00     0.162 HD
BRANCH   8  10
HETATM   10  C10 UNL     1     -14.131  11.195  -1.949  1.00  0.00     0.221 C
HETATM   11  O3  UNL     1     -15.211  12.129  -2.107  1.00  0.00    -0.361 OA
HETATM   12  C9  UNL     1     -15.220  12.574  -3.396  1.00  0.00     0.132 C
HETATM   13  C8  UNL     1     -15.696  13.956  -3.645  1.00  0.00     0.033 C
HETATM   14  C18 UNL     1     -15.929  11.556  -4.320  1.00  0.00    -0.013 C
HETATM   15  C7  UNL     1     -15.540  14.282  -5.109  1.00  0.00     0.007 C
HETATM   16  C5  UNL     1     -16.122  13.190  -6.023  1.00  0.00    -0.013 C
HETATM   17  C4  UNL     1     -15.446  11.921  -5.705  1.00  0.00     0.007 C
HETATM   18  C6  UNL     1     -16.071  13.725  -7.401  1.00  0.00     0.010 C
HETATM   19  C17 UNL     1     -15.510  10.240  -3.784  1.00  0.00     0.016 C
HETATM   20  C19 UNL     1     -17.433  11.660  -4.183  1.00  0.00     0.018 C
HETATM   21  C16 UNL     1     -14.119  10.289  -3.190  1.00  0.00     0.054 C
BRANCH  17  22
HETATM   22  C3  UNL     1     -15.577  10.765  -6.594  1.00  0.00     0.091 C
BRANCH  22  23
HETATM   23  C2  UNL     1     -14.595  10.595  -7.668  1.00  0.00     0.135 C
HETATM   24  N1  UNL     1     -13.541  11.322  -7.671  1.00  0.00    -0.249 N
ATOM     25  H1  UNL     1     -13.425  11.998  -6.915  1.00  0.00     0.196 HD
BRANCH  24  26
HETATM   26  O1  UNL     1     -12.556  11.250  -8.627  1.00  0.00    -0.284 OA
HETATM   27  C1  UNL     1     -12.018  12.350  -9.295  1.00  0.00     0.237 C
ENDBRANCH  24  26
BRANCH  23  28
HETATM   28  O2  UNL     1     -14.747   9.684  -8.689  1.00  0.00    -0.348 OA
ATOM     29  H2  UNL     1     -14.718  10.012  -9.580  1.00  0.00     0.219 HD
ENDBRANCH  23  28
ENDBRANCH  22  23
ENDBRANCH  17  22
ENDBRANCH   8  10
ENDBRANCH   1   8
TORSDOF 6
ENDMDL