MODEL 4
REMARK VINA RESULT: -6.552659907      2.203      7.243
REMARK  7 active torsions:
REMARK  status: ('A' for Active; 'I' for Inactive)
REMARK    1  A    between atoms: C2_2  and  C3_3
REMARK    2  A    between atoms: C4_4  and  O1_5
REMARK    3  A    between atoms: C6_7  and  O2_8
REMARK    4  A    between atoms: C8_10  and  O3_11
REMARK    5  A    between atoms: C17_21  and  C18_22
REMARK    6  A    between atoms: C21_25  and  O4_26
REMARK    7  A    between atoms: C22_28  and  O5_29
ROOT
HETATM    1  C3  UNL     1     -15.617  12.454  -3.864  1.00  0.00     0.014 A
HETATM    2  C4  UNL     1     -15.895  12.392  -2.485  1.00  0.00     0.115 A
HETATM    3  C6  UNL     1     -16.252  11.183  -1.988  1.00  0.00     0.137 A
HETATM    4  C8  UNL     1     -16.343  10.052  -2.796  1.00  0.00     0.116 A
HETATM    5  C10 UNL     1     -16.076  10.107  -4.136  1.00  0.00     0.026 A
HETATM    6  C11 UNL     1     -15.703  11.344  -4.673  1.00  0.00     0.033 A
HETATM    7  C12 UNL     1     -15.452  11.199  -6.130  1.00  0.00     0.131 A
HETATM    8  N1  UNL     1     -15.061  12.062  -6.851  1.00  0.00    -0.427 NA
HETATM    9  C13 UNL     1     -14.627  13.029  -7.640  1.00  0.00     0.229 C
HETATM   10  C14 UNL     1     -15.716   9.748  -6.407  1.00  0.00     0.053 A
HETATM   11  C15 UNL     1     -16.071   9.147  -5.236  1.00  0.00    -0.005 A
HETATM   12  C16 UNL     1     -16.350   7.808  -5.196  1.00  0.00     0.028 A
HETATM   13  C17 UNL     1     -16.283   7.003  -6.346  1.00  0.00     0.002 A
HETATM   14  C21 UNL     1     -15.926   7.650  -7.496  1.00  0.00     0.110 A
HETATM   15  C22 UNL     1     -15.636   9.026  -7.558  1.00  0.00     0.114 A
ENDROOT
BRANCH   1  16
HETATM   16  C2  UNL     1     -15.210  13.745  -4.432  1.00  0.00     0.005 C
HETATM   17  C1  UNL     1     -16.215  14.560  -4.758  1.00  0.00     0.012 C
ENDBRANCH   1  16
BRANCH  15  18
HETATM   18  O5  UNL     1     -15.289   9.579  -8.761  1.00  0.00    -0.357 OA
ATOM     19  H5  UNL     1     -14.726   9.140  -9.388  1.00  0.00     0.217 HD
ENDBRANCH  15  18
BRANCH   2  20
HETATM   20  O1  UNL     1     -15.781  13.551  -1.765  1.00  0.00    -0.352 OA
HETATM   21  C5  UNL     1     -14.686  13.869  -0.943  1.00  0.00     0.210 C
ENDBRANCH   2  20
BRANCH   4  22
HETATM   22  O3  UNL     1     -16.714   8.886  -2.179  1.00  0.00    -0.352 OA
HETATM   23  C9  UNL     1     -18.078   8.446  -2.169  1.00  0.00     0.210 C
ENDBRANCH   4  22
BRANCH  14  24
HETATM   24  O4  UNL     1     -15.836   6.954  -8.680  1.00  0.00    -0.357 OA
ATOM     25  H4  UNL     1     -15.781   7.422  -9.504  1.00  0.00     0.217 HD
ENDBRANCH  14  24
BRANCH   3  26
HETATM   26  O2  UNL     1     -16.542  11.033  -0.641  1.00  0.00    -0.351 OA
HETATM   27  C7  UNL     1     -17.785  11.504  -0.160  1.00  0.00     0.210 C
ENDBRANCH   3  26
BRANCH  13  28
HETATM   28  C18 UNL     1     -16.475   5.559  -6.206  1.00  0.00    -0.074 C
HETATM   29  C19 UNL     1     -15.315   4.677  -6.400  1.00  0.00     0.044 C
HETATM   30  C20 UNL     1     -17.458   5.080  -5.196  1.00  0.00     0.044 C
ENDBRANCH  13  28
TORSDOF 7
ENDMDL