MODEL 1
REMARK VINA RESULT: -7.570739123      0.000      0.000
REMARK  7 active torsions:
REMARK  status: ('A' for Active; 'I' for Inactive)
REMARK    1  A    between atoms: C4_4  and  C5_5
REMARK    2  A    between atoms: C9_9  and  O1_10
REMARK    3  A    between atoms: C11_12  and  O2_13
REMARK    4  A    between atoms: O2_13  and  C12_14
REMARK    5  A    between atoms: C18_21  and  O4_22
REMARK    6  A    between atoms: N1_24  and  C19_25
REMARK    7  A    between atoms: C22_28  and  O5_29
ROOT
HETATM    1  C1  UNL     1     -14.357  10.411  -6.451  1.00  0.00     0.025 C
HETATM    2  C2  UNL     1     -15.195   9.446  -6.196  1.00  0.00    -0.019 A
HETATM    3  C3  UNL     1     -15.934   8.948  -5.051  1.00  0.00    -0.007 A
HETATM    4  C4  UNL     1     -16.165   9.163  -3.784  1.00  0.00     0.050 C
HETATM    5  C16 UNL     1     -16.437   7.913  -5.996  1.00  0.00     0.042 A
HETATM    6  C17 UNL     1     -15.739   8.386  -7.067  1.00  0.00     0.041 A
HETATM    7  C18 UNL     1     -16.034   7.569  -8.136  1.00  0.00     0.157 A
HETATM    8  N1  UNL     1     -16.885   6.636  -7.714  1.00  0.00    -0.303 N
HETATM    9  C22 UNL     1     -17.144   6.820  -6.430  1.00  0.00     0.157 A
ENDROOT
BRANCH   4  10
HETATM   10  C5  UNL     1     -15.590  10.235  -3.007  1.00  0.00     0.077 A
HETATM   11  C6  UNL     1     -14.724  10.230  -1.924  1.00  0.00     0.051 A
HETATM   12  C7  UNL     1     -14.520  11.549  -1.592  1.00  0.00     0.003 A
HETATM   13  C8  UNL     1     -13.755  12.191  -0.601  1.00  0.00     0.054 A
HETATM   14  C15 UNL     1     -15.255  12.320  -2.463  1.00  0.00     0.089 A
HETATM   15  C9  UNL     1     -13.709  13.551  -0.464  1.00  0.00     0.102 A
HETATM   16  C11 UNL     1     -14.479  14.309  -1.374  1.00  0.00     0.104 A
HETATM   17  C14 UNL     1     -15.240  13.719  -2.358  1.00  0.00     0.077 A
HETATM   18  O3  UNL     1     -15.859  11.521  -3.266  1.00  0.00    -0.310 OA
BRANCH  15  19
HETATM   19  O1  UNL     1     -12.974  14.194   0.485  1.00  0.00    -0.353 OA
HETATM   20  C10 UNL     1     -13.318  14.444   1.798  1.00  0.00     0.210 C
ENDBRANCH  15  19
BRANCH  16  21
HETATM   21  O2  UNL     1     -14.428  15.651  -1.218  1.00  0.00    -0.349 OA
BRANCH  21  22
HETATM   22  C12 UNL     1     -15.500  16.479  -0.979  1.00  0.00     0.171 C
HETATM   23  C13 UNL     1     -15.606  17.021   0.404  1.00  0.00     0.034 C
ENDBRANCH  21  22
ENDBRANCH  16  21
ENDBRANCH   4  10
BRANCH   9  24
HETATM   24  O5  UNL     1     -17.998   6.045  -5.607  1.00  0.00    -0.345 OA
ATOM     25  H5  UNL     1     -17.918   5.984  -4.662  1.00  0.00     0.219 HD
ENDBRANCH   9  24
BRANCH   7  26
HETATM   26  O4  UNL     1     -15.493   7.756  -9.408  1.00  0.00    -0.345 OA
ATOM     27  H4  UNL     1     -15.493   8.596  -9.852  1.00  0.00     0.219 HD
ENDBRANCH   7  26
BRANCH   8  28
HETATM   28  C19 UNL     1     -17.431   5.585  -8.539  1.00  0.00     0.086 C
HETATM   29  C20 UNL     1     -18.918   5.668  -8.713  1.00  0.00     0.032 C
HETATM   30  C21 UNL     1     -17.099   4.212  -7.997  1.00  0.00     0.032 C
ENDBRANCH   8  28
TORSDOF 7
ENDMDL