MODEL 3
REMARK VINA RESULT: -6.619401793      1.550      1.884
REMARK  6 active torsions:
REMARK  status: ('A' for Active; 'I' for Inactive)
REMARK    1  A    between atoms: O1_2  and  C2_3
REMARK    2  A    between atoms: C2_3  and  C3_5
REMARK    3  A    between atoms: C9_14  and  N2_15
REMARK    4  A    between atoms: N2_15  and  C10_17
REMARK    5  A    between atoms: C11_19  and  C12_20
REMARK    6  A    between atoms: C14_23  and  C15_24
ROOT
HETATM    1  C3  UNL     1     -15.963  12.448  -5.237  1.00  0.00     0.089 A
HETATM    2  C4  UNL     1     -16.143  13.759  -5.643  1.00  0.00     0.027 A
HETATM    3  C5  UNL     1     -17.000  14.688  -4.884  1.00  0.00     0.069 C
HETATM    4  N1  UNL     1     -15.541  14.242  -6.749  1.00  0.00    -0.326 N
ATOM      5  H1  UNL     1     -15.691  15.212  -7.027  1.00  0.00     0.169 HD
HETATM    6  C6  UNL     1     -14.750  13.455  -7.483  1.00  0.00     0.253 A
HETATM    7  O3  UNL     1     -14.205  13.945  -8.512  1.00  0.00    -0.268 OA
HETATM    8  C7  UNL     1     -14.521  12.152  -7.150  1.00  0.00     0.034 A
HETATM    9  C8  UNL     1     -13.628  11.262  -7.973  1.00  0.00     0.056 C
HETATM   10  C9  UNL     1     -15.142  11.635  -5.998  1.00  0.00     0.062 A
ENDROOT
BRANCH  10  11
HETATM   11  N2  UNL     1     -14.941  10.317  -5.666  1.00  0.00    -0.349 N
ATOM     12  H2  UNL     1     -14.049  10.171  -5.193  1.00  0.00     0.166 HD
BRANCH  11  13
HETATM   13  C10 UNL     1     -15.677   9.099  -5.823  1.00  0.00     0.082 A
HETATM   14  S1  UNL     1     -15.890   8.394  -7.401  1.00  0.00    -0.068 SA
HETATM   15  C11 UNL     1     -16.813   7.040  -6.992  1.00  0.00     0.059 A
HETATM   16  C14 UNL     1     -16.955   7.146  -5.591  1.00  0.00    -0.025 A
HETATM   17  C18 UNL     1     -16.346   8.229  -5.034  1.00  0.00    -0.020 A
HETATM   18  C19 UNL     1     -16.339   8.453  -3.522  1.00  0.00     0.052 C
BRANCH  15  19
HETATM   19  C12 UNL     1     -17.304   6.041  -7.913  1.00  0.00     0.163 C
HETATM   20  C13 UNL     1     -18.625   6.287  -8.554  1.00  0.00     0.097 C
HETATM   21  O4  UNL     1     -16.723   5.010  -8.210  1.00  0.00    -0.292 OA
ENDBRANCH  15  19
BRANCH  16  22
HETATM   22  C15 UNL     1     -17.718   6.072  -4.899  1.00  0.00     0.012 C
HETATM   23  C16 UNL     1     -18.538   6.368  -3.706  1.00  0.00     0.015 C
HETATM   24  C17 UNL     1     -16.813   4.913  -4.518  1.00  0.00     0.015 C
ENDBRANCH  16  22
ENDBRANCH  11  13
ENDBRANCH  10  11
BRANCH   1  25
HETATM   25  C2  UNL     1     -16.662  11.972  -4.054  1.00  0.00     0.297 C
HETATM   26  O2  UNL     1     -16.206  11.934  -2.909  1.00  0.00    -0.259 OA
BRANCH  25  27
HETATM   27  O1  UNL     1     -17.983  11.502  -4.179  1.00  0.00    -0.322 OA
HETATM   28  C1  UNL     1     -19.050  12.000  -3.434  1.00  0.00     0.213 C
ENDBRANCH  25  27
ENDBRANCH   1  25
TORSDOF 6
ENDMDL