MODEL 4
REMARK VINA RESULT: -6.793092638      4.101      9.147
REMARK  7 active torsions:
REMARK  status: ('A' for Active; 'I' for Inactive)
REMARK    1  A    between atoms: O1_2  and  C2_3
REMARK    2  A    between atoms: C3_4  and  C4_5
REMARK    3  A    between atoms: C4_5  and  C5_6
REMARK    4  A    between atoms: C9_10  and  O2_11
REMARK    5  A    between atoms: C12_15  and  C13_16
REMARK    6  A    between atoms: C14_18  and  C15_19
REMARK    7  A    between atoms: C20_25  and  O5_26
ROOT
HETATM    1  C2  UNL     1     -15.716  10.903  -4.654  1.00  0.00     0.093 A
HETATM    2  C3  UNL     1     -15.295  10.177  -5.763  1.00  0.00     0.016 A
HETATM    3  C9  UNL     1     -14.990  10.896  -6.925  1.00  0.00     0.111 A
HETATM    4  C10 UNL     1     -15.101  12.267  -6.966  1.00  0.00     0.139 A
HETATM    5  C11 UNL     1     -15.518  12.959  -5.868  1.00  0.00     0.123 A
HETATM    6  C12 UNL     1     -15.842  12.266  -4.660  1.00  0.00     0.071 A
HETATM    7  O6  UNL     1     -15.558  14.321  -6.125  1.00  0.00    -0.322 OA
HETATM    8  C21 UNL     1     -14.796  14.510  -7.327  1.00  0.00     0.352 C
HETATM    9  O7  UNL     1     -14.872  13.220  -7.953  1.00  0.00    -0.320 OA
ENDROOT
BRANCH   6  10
HETATM   10  C13 UNL     1     -16.411  13.065  -3.589  1.00  0.00     0.128 A
HETATM   11  O3  UNL     1     -15.497  13.752  -2.885  1.00  0.00    -0.311 OA
HETATM   12  C14 UNL     1     -15.766  14.535  -1.888  1.00  0.00     0.061 A
HETATM   13  C18 UNL     1     -17.090  14.663  -1.534  1.00  0.00     0.091 A
HETATM   14  C19 UNL     1     -18.081  13.997  -2.204  1.00  0.00     0.210 A
HETATM   15  O4  UNL     1     -19.306  14.101  -1.895  1.00  0.00    -0.285 OA
HETATM   16  C20 UNL     1     -17.726  13.162  -3.279  1.00  0.00     0.151 A
BRANCH  12  17
HETATM   17  C15 UNL     1     -14.688  15.278  -1.142  1.00  0.00     0.035 C
HETATM   18  C16 UNL     1     -15.241  16.382  -0.296  1.00  0.00     0.016 C
HETATM   19  C17 UNL     1     -13.966  14.249  -0.263  1.00  0.00     0.016 C
ENDBRANCH  12  17
BRANCH  16  20
HETATM   20  O5  UNL     1     -18.766  12.504  -3.956  1.00  0.00    -0.355 OA
ATOM     21  H5  UNL     1     -19.425  12.930  -4.491  1.00  0.00     0.218 HD
ENDBRANCH  16  20
ENDBRANCH   6  10
BRANCH   1  22
HETATM   22  O1  UNL     1     -16.000  10.180  -3.511  1.00  0.00    -0.354 OA
HETATM   23  C1  UNL     1     -15.038  10.125  -2.476  1.00  0.00     0.210 C
ENDBRANCH   1  22
BRANCH   2  24
HETATM   24  C4  UNL     1     -15.151   8.716  -5.708  1.00  0.00     0.072 C
BRANCH  24  25
HETATM   25  C5  UNL     1     -16.057   7.907  -6.502  1.00  0.00    -0.020 C
HETATM   26  C6  UNL     1     -16.958   7.134  -5.862  1.00  0.00    -0.091 C
HETATM   27  C7  UNL     1     -17.081   7.056  -4.395  1.00  0.00     0.042 C
HETATM   28  C8  UNL     1     -17.896   6.304  -6.677  1.00  0.00     0.042 C
ENDBRANCH  24  25
ENDBRANCH   2  24
BRANCH   3  29
HETATM   29  O2  UNL     1     -14.570  10.262  -8.066  1.00  0.00    -0.357 OA
ATOM     30  H2  UNL     1     -13.683   9.929  -8.148  1.00  0.00     0.217 HD
ENDBRANCH   3  29
TORSDOF 7
ENDMDL