MODEL 5
REMARK VINA RESULT: -5.945131268      3.213      5.572
REMARK  8 active torsions:
REMARK  status: ('A' for Active; 'I' for Inactive)
REMARK    1  A    between atoms: C8_9  and  O2_10
REMARK    2  A    between atoms: C12_15  and  O3_16
REMARK    3  A    between atoms: O3_16  and  C13_17
REMARK    4  A    between atoms: C13_17  and  C14_19
REMARK    5  A    between atoms: C14_19  and  C16_21
REMARK    6  A    between atoms: C16_21  and  C17_22
REMARK    7  A    between atoms: C20_25  and  O5_26
REMARK    8  A    between atoms: O5_26  and  O6_27
ROOT
HETATM    1  C1  UNL     1     -19.471  14.168  -2.156  1.00  0.00     0.043 C
HETATM    2  C2  UNL     1     -18.191  14.982  -2.256  1.00  0.00    -0.085 C
HETATM    3  C3  UNL     1     -17.971  15.779  -1.230  1.00  0.00    -0.020 C
HETATM    4  C4  UNL     1     -16.828  16.691  -1.023  1.00  0.00     0.057 C
HETATM    5  C5  UNL     1     -16.387  16.763   0.396  1.00  0.00     0.009 C
HETATM    6  C6  UNL     1     -15.190  16.353   0.848  1.00  0.00     0.042 C
HETATM    7  C7  UNL     1     -15.024  16.555   2.351  1.00  0.00     0.076 C
HETATM    8  O1  UNL     1     -14.201  15.816   0.107  1.00  0.00    -0.322 OA
HETATM    9  C8  UNL     1     -13.994  14.575  -0.490  1.00  0.00     0.287 C
HETATM   10  C9  UNL     1     -15.051  13.571  -0.278  1.00  0.00     0.038 C
HETATM   11  C10 UNL     1     -15.820  12.924  -1.105  1.00  0.00    -0.051 C
HETATM   12  C11 UNL     1     -16.805  11.951  -0.446  1.00  0.00     0.046 C
HETATM   13  C12 UNL     1     -15.912  12.937  -2.561  1.00  0.00     0.192 C
HETATM   14  C20 UNL     1     -16.012  14.217  -3.302  1.00  0.00     0.197 C
HETATM   15  C21 UNL     1     -17.393  14.801  -3.453  1.00  0.00     0.071 C
ENDROOT
BRANCH  13  16
HETATM   16  O3  UNL     1     -14.776  12.195  -3.078  1.00  0.00    -0.308 OA
BRANCH  16  17
HETATM   17  C13 UNL     1     -14.790  10.825  -3.226  1.00  0.00     0.263 C
HETATM   18  O4  UNL     1     -14.153  10.141  -2.401  1.00  0.00    -0.265 OA
BRANCH  17  19
HETATM   19  C14 UNL     1     -15.541  10.206  -4.322  1.00  0.00     0.082 C
HETATM   20  C15 UNL     1     -16.726   9.487  -3.703  1.00  0.00     0.020 C
BRANCH  19  21
HETATM   21  C16 UNL     1     -14.818   9.444  -5.330  1.00  0.00     0.018 C
BRANCH  21  22
HETATM   22  C17 UNL     1     -14.904   9.787  -6.760  1.00  0.00    -0.022 C
HETATM   23  C18 UNL     1     -15.587   8.812  -7.655  1.00  0.00     0.009 C
HETATM   24  C19 UNL     1     -15.382  11.217  -7.007  1.00  0.00     0.009 C
ENDBRANCH  21  22
ENDBRANCH  19  21
ENDBRANCH  17  19
ENDBRANCH  16  17
ENDBRANCH  13  16
BRANCH  14  25
HETATM   25  O5  UNL     1     -15.713  13.829  -4.658  1.00  0.00    -0.235 OA
BRANCH  25  26
HETATM   26  O6  UNL     1     -14.651  14.469  -5.073  1.00  0.00    -0.250 OA
ATOM     27  H6  UNL     1     -14.032  13.851  -5.444  1.00  0.00     0.253 HD
ENDBRANCH  25  26
ENDBRANCH  14  25
BRANCH   9  28
HETATM   28  O2  UNL     1     -12.813  14.080   0.173  1.00  0.00    -0.367 OA
ATOM     29  H2  UNL     1     -12.552  13.342  -0.365  1.00  0.00     0.213 HD
ENDBRANCH   9  28
TORSDOF 8
ENDMDL