MODEL 2
REMARK VINA RESULT: -6.564229118      4.750      6.227
REMARK  5 active torsions:
REMARK  status: ('A' for Active; 'I' for Inactive)
REMARK    1  A    between atoms: O1_2  and  C2_3
REMARK    2  A    between atoms: C4_5  and  C5_6
REMARK    3  A    between atoms: C7_9  and  C8_10
REMARK    4  A    between atoms: C15_23  and  O2_24
REMARK    5  A    between atoms: C17_26  and  O3_27
ROOT
HETATM    1  C5  UNL     1     -16.666   8.405  -3.752  1.00  0.00    -0.018 A
HETATM    2  C6  UNL     1     -17.181   7.887  -2.579  1.00  0.00     0.062 A
HETATM    3  S1  UNL     1     -16.686   9.032  -1.410  1.00  0.00    -0.103 SA
HETATM    4  C7  UNL     1     -15.859  10.119  -2.407  1.00  0.00     0.011 A
HETATM    5  C13 UNL     1     -15.983   9.569  -3.654  1.00  0.00     0.029 A
ENDROOT
BRANCH   1   6
HETATM    6  C4  UNL     1     -16.748   7.591  -5.003  1.00  0.00    -0.020 A
HETATM    7  C3  UNL     1     -16.100   7.876  -6.160  1.00  0.00     0.052 A
HETATM    8  C2  UNL     1     -16.120   7.005  -7.231  1.00  0.00     0.105 A
HETATM    9  C17 UNL     1     -16.804   5.792  -7.175  1.00  0.00     0.135 A
HETATM   10  C15 UNL     1     -17.478   5.484  -5.974  1.00  0.00     0.105 A
HETATM   11  C14 UNL     1     -17.438   6.374  -4.934  1.00  0.00     0.052 A
BRANCH   8  12
HETATM   12  O1  UNL     1     -15.469   7.267  -8.404  1.00  0.00    -0.353 OA
HETATM   13  C1  UNL     1     -15.916   8.234  -9.316  1.00  0.00     0.210 C
ENDBRANCH   8  12
BRANCH   9  14
HETATM   14  O3  UNL     1     -16.881   4.884  -8.174  1.00  0.00    -0.351 OA
HETATM   15  C18 UNL     1     -17.806   4.714  -9.182  1.00  0.00     0.210 C
ENDBRANCH   9  14
BRANCH  10  16
HETATM   16  O2  UNL     1     -18.153   4.264  -5.922  1.00  0.00    -0.353 OA
HETATM   17  C16 UNL     1     -17.535   3.302  -5.055  1.00  0.00     0.210 C
ENDBRANCH  10  16
ENDBRANCH   1   6
BRANCH   4  18
HETATM   18  C8  UNL     1     -15.054  11.358  -2.043  1.00  0.00     0.063 C
HETATM   19  C9  UNL     1     -13.650  10.840  -1.706  1.00  0.00     0.044 C
HETATM   20  C10 UNL     1     -15.742  11.922  -0.817  1.00  0.00     0.047 C
HETATM   21  C11 UNL     1     -15.022  13.087  -0.249  1.00  0.00     0.085 C
HETATM   22  S2  UNL     1     -14.981  14.397  -1.484  1.00  0.00    -0.095 SA
HETATM   23  C12 UNL     1     -14.996  13.634  -3.092  1.00  0.00     0.134 C
HETATM   24  N1  UNL     1     -15.023  14.316  -4.176  1.00  0.00    -0.380 N
HETATM   25  N2  UNL     1     -14.972  12.198  -3.160  1.00  0.00    -0.357 N
ATOM     26  H12 UNL     1     -15.040  15.335  -4.127  1.00  0.00     0.158 HD
ATOM     27  H11 UNL     1     -15.032  13.879  -5.097  1.00  0.00     0.158 HD
ATOM     28  H2  UNL     1     -14.890  11.764  -4.079  1.00  0.00     0.162 HD
ENDBRANCH   4  18
TORSDOF 5
ENDMDL