MODEL 1
REMARK VINA RESULT: -7.561198446      0.000      0.000
REMARK  6 active torsions:
REMARK  status: ('A' for Active; 'I' for Inactive)
REMARK    1  A    between atoms: O1_1  and  C1_3
REMARK    2  A    between atoms: C5_7  and  N1_8
REMARK    3  A    between atoms: C7_12  and  C8_13
REMARK    4  A    between atoms: C11_18  and  N4_19
REMARK    5  A    between atoms: N4_19  and  C12_21
REMARK    6  A    between atoms: C16_25  and  C17_26
ROOT
HETATM    1  N1  UNL     1     -16.017   7.766  -6.921  1.00  0.00    -0.286 N
HETATM    2  N2  UNL     1     -15.975   7.800  -8.273  1.00  0.00    -0.308 N
ATOM      3  H2  UNL     1     -16.155   7.011  -8.895  1.00  0.00     0.186 HD
HETATM    4  C6  UNL     1     -15.659   9.033  -8.655  1.00  0.00     0.122 A
HETATM    5  C7  UNL     1     -15.488   9.847  -7.536  1.00  0.00     0.022 A
HETATM    6  C16 UNL     1     -15.728   8.987  -6.483  1.00  0.00     0.074 A
ENDROOT
BRANCH   5   7
HETATM    7  C8  UNL     1     -15.141  11.248  -7.488  1.00  0.00    -0.005 A
HETATM    8  C9  UNL     1     -15.996  12.158  -6.913  1.00  0.00     0.100 A
HETATM    9  N3  UNL     1     -15.738  13.468  -6.837  1.00  0.00    -0.372 N
HETATM   10  C10 UNL     1     -14.616  13.970  -7.327  1.00  0.00     0.116 A
ATOM     11  H3  UNL     1     -16.416  14.089  -6.395  1.00  0.00     0.164 HD
HETATM   12  C11 UNL     1     -13.707  13.112  -7.923  1.00  0.00     0.044 A
HETATM   13  C15 UNL     1     -13.964  11.742  -8.008  1.00  0.00     0.044 A
BRANCH  12  14
HETATM   14  N4  UNL     1     -12.523  13.698  -8.441  1.00  0.00    -0.384 N
ATOM     15  H4  UNL     1     -12.233  14.637  -8.166  1.00  0.00     0.160 HD
BRANCH  14  16
HETATM   16  C12 UNL     1     -11.741  12.917  -9.371  1.00  0.00     0.082 A
HETATM   17  C13 UNL     1     -12.012  12.849 -10.804  1.00  0.00     0.027 A
HETATM   18  C14 UNL     1     -10.855  13.642 -10.323  1.00  0.00     0.027 A
ENDBRANCH  14  16
ENDBRANCH  12  14
ENDBRANCH   5   7
BRANCH   6  19
HETATM   19  C17 UNL     1     -15.648   9.446  -5.068  1.00  0.00     0.000 A
HETATM   20  C18 UNL     1     -14.481   9.734  -4.433  1.00  0.00     0.021 A
HETATM   21  C19 UNL     1     -14.556  10.138  -3.132  1.00  0.00     0.050 A
HETATM   22  S1  UNL     1     -16.230  10.109  -2.812  1.00  0.00    -0.113 SA
HETATM   23  C20 UNL     1     -16.792   9.590  -4.330  1.00  0.00     0.063 A
ENDBRANCH   6  19
BRANCH   1  24
HETATM   24  C5  UNL     1     -16.321   6.588  -6.196  1.00  0.00     0.111 C
HETATM   25  C4  UNL     1     -17.724   6.390  -5.755  1.00  0.00     0.027 C
HETATM   26  C3  UNL     1     -17.689   5.363  -4.616  1.00  0.00     0.004 C
HETATM   27  C2  UNL     1     -16.399   4.638  -4.498  1.00  0.00     0.032 C
HETATM   28  C1  UNL     1     -15.724   4.262  -5.768  1.00  0.00     0.120 C
HETATM   29  C21 UNL     1     -15.875   5.292  -6.869  1.00  0.00     0.059 C
BRANCH  28  30
HETATM   30  O1  UNL     1     -16.082   3.034  -6.277  1.00  0.00    -0.396 OA
ATOM     31  H1  UNL     1     -17.012   2.922  -6.440  1.00  0.00     0.210 HD
ENDBRANCH  28  30
ENDBRANCH   1  24
TORSDOF 6
ENDMDL