MODEL 3
REMARK VINA RESULT: -7.109400962      6.156      8.996
REMARK  7 active torsions:
REMARK  status: ('A' for Active; 'I' for Inactive)
REMARK    1  A    between atoms: C2_2  and  C3_3
REMARK    2  A    between atoms: C3_3  and  C4_4
REMARK    3  A    between atoms: C4_4  and  C5_5
REMARK    4  A    between atoms: C5_5  and  C6_6
REMARK    5  A    between atoms: C6_6  and  C7_7
REMARK    6  A    between atoms: C7_7  and  O1_8
REMARK    7  A    between atoms: N1_12  and  O2_14
ROOT
HETATM    1  C7  UNL     1     -15.540   8.883  -5.768  1.00  0.00     0.065 C
HETATM    2  C8  UNL     1     -15.652   9.836  -6.963  1.00  0.00     0.092 C
HETATM    3  C9  UNL     1     -15.653   8.964  -8.210  1.00  0.00     0.019 C
HETATM    4  N1  UNL     1     -14.994   9.273  -9.222  1.00  0.00    -0.277 N
ATOM      5  H1  UNL     1     -14.467  10.143  -9.142  1.00  0.00     0.193 HD
HETATM    6  C10 UNL     1     -16.471   7.754  -8.075  1.00  0.00     0.063 C
HETATM    7  C11 UNL     1     -16.876   7.053  -9.315  1.00  0.00     0.018 C
HETATM    8  C12 UNL     1     -18.286   6.454  -9.128  1.00  0.00     0.045 C
HETATM    9  C13 UNL     1     -18.138   5.189  -8.380  1.00  0.00     0.012 A
HETATM   10  C14 UNL     1     -17.331   4.941  -7.275  1.00  0.00     0.078 A
HETATM   11  C15 UNL     1     -17.378   3.668  -6.744  1.00  0.00     0.040 A
HETATM   12  C16 UNL     1     -18.187   2.691  -7.285  1.00  0.00     0.042 A
HETATM   13  C17 UNL     1     -18.987   2.936  -8.380  1.00  0.00     0.105 A
HETATM   14  C18 UNL     1     -18.954   4.200  -8.925  1.00  0.00     0.114 A
HETATM   15  O3  UNL     1     -19.839   4.172  -9.998  1.00  0.00    -0.322 OA
HETATM   16  C19 UNL     1     -20.053   2.819 -10.359  1.00  0.00     0.352 C
HETATM   17  O4  UNL     1     -19.883   2.157  -9.121  1.00  0.00    -0.323 OA
HETATM   18  O5  UNL     1     -16.463   5.817  -6.616  1.00  0.00    -0.344 OA
HETATM   19  C20 UNL     1     -15.662   6.816  -7.196  1.00  0.00     0.141 C
HETATM   20  C21 UNL     1     -14.908   7.576  -6.130  1.00  0.00     0.071 C
ENDROOT
BRANCH   1  21
HETATM   21  C6  UNL     1     -14.792   9.540  -4.633  1.00  0.00     0.038 C
BRANCH  21  22
HETATM   22  C5  UNL     1     -15.506  10.662  -3.975  1.00  0.00     0.003 C
BRANCH  22  23
HETATM   23  C4  UNL     1     -14.720  11.102  -2.765  1.00  0.00     0.000 C
BRANCH  23  24
HETATM   24  C3  UNL     1     -13.474  10.313  -2.551  1.00  0.00    -0.000 C
BRANCH  24  25
HETATM   25  C2  UNL     1     -12.801  10.647  -1.233  1.00  0.00    -0.005 C
HETATM   26  C1  UNL     1     -13.501  11.781  -0.526  1.00  0.00     0.005 C
ENDBRANCH  24  25
ENDBRANCH  23  24
ENDBRANCH  22  23
ENDBRANCH  21  22
ENDBRANCH   1  21
BRANCH   1  27
HETATM   27  O1  UNL     1     -16.821   8.599  -5.246  1.00  0.00    -0.389 OA
ATOM     28  H1  UNL     1     -16.667   7.989  -4.534  1.00  0.00     0.210 HD
ENDBRANCH   1  27
BRANCH   4  29
HETATM   29  O2  UNL     1     -14.867   8.640 -10.403  1.00  0.00    -0.290 OA
ATOM     30  H2  UNL     1     -14.319   7.904 -10.650  1.00  0.00     0.244 HD
ENDBRANCH   4  29
TORSDOF 7
ENDMDL