MODEL 5
REMARK VINA RESULT: -7.261965742      2.756      3.973
REMARK  6 active torsions:
REMARK  status: ('A' for Active; 'I' for Inactive)
REMARK    1  A    between atoms: C4_6  and  C5_7
REMARK    2  A    between atoms: C11_15  and  C12_16
REMARK    3  A    between atoms: C13_19  and  C14_20
REMARK    4  A    between atoms: C14_20  and  N4_21
REMARK    5  A    between atoms: N4_21  and  C15_24
REMARK    6  A    between atoms: C19_28  and  O1_29
ROOT
HETATM    1  C12 UNL     1     -16.154   6.377  -7.119  1.00  0.00     0.103 A
HETATM    2  N3  UNL     1     -15.614   7.568  -7.095  1.00  0.00    -0.350 N
ATOM      3  H3  UNL     1     -14.981   7.822  -6.336  1.00  0.00     0.166 HD
HETATM    4  C13 UNL     1     -15.878   8.434  -8.036  1.00  0.00     0.042 A
HETATM    5  C21 UNL     1     -16.737   8.028  -9.027  1.00  0.00     0.078 A
HETATM    6  S1  UNL     1     -17.104   6.433  -8.538  1.00  0.00    -0.080 SA
ENDROOT
BRANCH   1   7
HETATM    7  C11 UNL     1     -16.021   5.232  -6.194  1.00  0.00     0.089 A
HETATM    8  C2  UNL     1     -16.689   5.284  -5.007  1.00  0.00     0.035 A
HETATM    9  C1  UNL     1     -17.532   6.433  -4.617  1.00  0.00     0.070 C
HETATM   10  N1  UNL     1     -16.536   4.204  -4.180  1.00  0.00    -0.366 N
HETATM   11  C3  UNL     1     -15.765   3.165  -4.546  1.00  0.00     0.113 A
ATOM     12  H1  UNL     1     -17.011   4.188  -3.278  1.00  0.00     0.165 HD
HETATM   13  C4  UNL     1     -15.096   3.127  -5.751  1.00  0.00     0.029 A
HETATM   14  N2  UNL     1     -15.236   4.178  -6.571  1.00  0.00    -0.354 N
ATOM     15  H2  UNL     1     -14.758   4.192  -7.472  1.00  0.00     0.166 HD
BRANCH  13  16
HETATM   16  C5  UNL     1     -14.258   1.959  -6.104  1.00  0.00     0.037 C
HETATM   17  C6  UNL     1     -14.595   1.372  -7.446  1.00  0.00     0.011 C
HETATM   18  C7  UNL     1     -13.631   0.233  -7.706  1.00  0.00     0.001 C
HETATM   19  C8  UNL     1     -12.619   0.060  -6.603  1.00  0.00     0.000 C
HETATM   20  C9  UNL     1     -13.251  -0.082  -5.246  1.00  0.00     0.001 C
HETATM   21  C10 UNL     1     -14.428   0.872  -5.073  1.00  0.00     0.011 C
ENDBRANCH  13  16
ENDBRANCH   1   7
BRANCH   4  22
HETATM   22  C14 UNL     1     -15.296   9.848  -8.093  1.00  0.00     0.289 C
BRANCH  22  23
HETATM   23  N4  UNL     1     -15.383  10.472  -6.809  1.00  0.00    -0.066 N
ATOM     24  H42 UNL     1     -16.070  10.024  -6.202  1.00  0.00     0.278 HD
ATOM     25  H41 UNL     1     -14.558  10.302  -6.235  1.00  0.00     0.278 HD
BRANCH  23  26
HETATM   26  C15 UNL     1     -15.647  11.880  -6.999  1.00  0.00     0.188 C
HETATM   27  C16 UNL     1     -14.383  12.576  -7.485  1.00  0.00     0.033 C
HETATM   28  C17 UNL     1     -14.713  14.000  -7.848  1.00  0.00     0.004 C
HETATM   29  C18 UNL     1     -15.890  14.548  -7.100  1.00  0.00     0.032 C
HETATM   30  C19 UNL     1     -15.913  13.997  -5.689  1.00  0.00     0.120 C
HETATM   31  C20 UNL     1     -16.082  12.500  -5.706  1.00  0.00     0.064 C
BRANCH  30  32
HETATM   32  O1  UNL     1     -14.698  14.361  -5.080  1.00  0.00    -0.396 OA
ATOM     33  H1  UNL     1     -14.383  15.140  -5.522  1.00  0.00     0.210 HD
ENDBRANCH  30  32
ENDBRANCH  23  26
ENDBRANCH  22  23
ENDBRANCH   4  22
TORSDOF 6
ENDMDL