MODEL 3
REMARK VINA RESULT: -7.770513197      3.629      5.315
REMARK  6 active torsions:
REMARK  status: ('A' for Active; 'I' for Inactive)
REMARK    1  A    between atoms: C2_2  and  O1_3
REMARK    2  A    between atoms: O1_3  and  C3_4
REMARK    3  A    between atoms: C3_4  and  C4_6
REMARK    4  A    between atoms: C5_8  and  N1_9
REMARK       I    between atoms: N1_9  and  C6_11
REMARK    5  A    between atoms: C6_11  and  C7_13
REMARK    6  A    between atoms: C7_13  and  C8_14
ROOT
HETATM    1  C4  UNL     1     -12.353  13.187  -9.132  1.00  0.00     0.089 A
HETATM    2  S1  UNL     1     -12.576  11.664  -8.453  1.00  0.00    -0.064 SA
HETATM    3  C5  UNL     1     -13.690  12.079  -7.149  1.00  0.00     0.099 A
HETATM    4  C15 UNL     1     -13.817  13.411  -7.335  1.00  0.00     0.086 A
HETATM    5  C16 UNL     1     -14.675  14.250  -6.465  1.00  0.00     0.103 C
HETATM    6  N3  UNL     1     -15.340  14.943  -5.802  1.00  0.00    -0.191 NA
HETATM    7  C17 UNL     1     -13.131  13.993  -8.357  1.00  0.00    -0.015 A
HETATM    8  C18 UNL     1     -13.167  15.487  -8.700  1.00  0.00     0.051 C
ENDROOT
BRANCH   3   9
HETATM    9  N1  UNL     1     -14.195  11.105  -6.256  1.00  0.00    -0.320 N
HETATM   10  C6  UNL     1     -14.804   9.884  -6.347  1.00  0.00     0.222 C
HETATM   11  O3  UNL     1     -15.088   9.267  -7.371  1.00  0.00    -0.273 OA
ATOM     12  H1  UNL     1     -14.072  11.389  -5.285  1.00  0.00     0.169 HD
BRANCH  10  13
HETATM   13  C7  UNL     1     -15.165   9.221  -4.998  1.00  0.00     0.108 C
BRANCH  13  14
HETATM   14  C8  UNL     1     -15.329  10.293  -3.951  1.00  0.00    -0.003 C
HETATM   15  C9  UNL     1     -16.691  10.190  -3.286  1.00  0.00     0.007 C
HETATM   16  C10 UNL     1     -17.218  11.499  -2.833  1.00  0.00     0.034 C
HETATM   17  C11 UNL     1     -16.272  12.405  -2.131  1.00  0.00     0.196 C
HETATM   18  C12 UNL     1     -16.351  12.269  -0.613  1.00  0.00     0.109 C
HETATM   19  N2  UNL     1     -14.927  12.376  -2.515  1.00  0.00    -0.057 N
HETATM   20  S2  UNL     1     -14.971  11.080  -0.356  1.00  0.00    -0.134 SA
HETATM   21  C13 UNL     1     -14.224  11.275  -2.024  1.00  0.00     0.247 C
HETATM   22  C14 UNL     1     -14.344  10.010  -2.826  1.00  0.00     0.049 C
ATOM     23  H22 UNL     1     -14.842  12.433  -3.530  1.00  0.00     0.279 HD
ATOM     24  H21 UNL     1     -14.460  13.244  -2.255  1.00  0.00     0.279 HD
ENDBRANCH  13  14
ENDBRANCH  10  13
ENDBRANCH   3   9
BRANCH   1  25
HETATM   25  C3  UNL     1     -11.512  13.564 -10.296  1.00  0.00     0.300 C
HETATM   26  O2  UNL     1     -11.367  14.735 -10.658  1.00  0.00    -0.259 OA
BRANCH  25  27
HETATM   27  O1  UNL     1     -10.881  12.549 -10.978  1.00  0.00    -0.317 OA
BRANCH  27  28
HETATM   28  C2  UNL     1     -11.633  11.829 -11.960  1.00  0.00     0.174 C
HETATM   29  C1  UNL     1     -11.268  10.358 -11.740  1.00  0.00     0.034 C
ENDBRANCH  27  28
ENDBRANCH  25  27
ENDBRANCH   1  25
TORSDOF 6
ENDMDL