MODEL 3
REMARK VINA RESULT: -8.171013296      1.034      1.391
REMARK  6 active torsions:
REMARK  status: ('A' for Active; 'I' for Inactive)
REMARK    1  A    between atoms: C5_8  and  C6_9
REMARK    2  A    between atoms: C11_16  and  N4_17
REMARK    3  A    between atoms: N4_17  and  C12_19
REMARK    4  A    between atoms: C12_19  and  C13_20
REMARK    5  A    between atoms: C17_25  and  N5_26
REMARK    6  A    between atoms: C20_29  and  O2_30
ROOT
HETATM    1  N1  UNL     1     -16.659  15.431  -3.988  1.00  0.00    -0.191 NA
HETATM    2  C1  UNL     1     -16.040  14.722  -4.662  1.00  0.00     0.102 C
HETATM    3  C2  UNL     1     -15.264  13.861  -5.516  1.00  0.00     0.075 A
HETATM    4  C3  UNL     1     -14.540  14.391  -6.562  1.00  0.00     0.057 A
HETATM    5  C4  UNL     1     -13.796  13.573  -7.383  1.00  0.00     0.063 A
HETATM    6  N2  UNL     1     -13.073  14.043  -8.415  1.00  0.00    -0.356 N
ATOM      7  H2  UNL     1     -13.066  15.045  -8.609  1.00  0.00     0.166 HD
HETATM    8  C5  UNL     1     -12.359  13.213  -9.194  1.00  0.00     0.029 A
HETATM    9  C9  UNL     1     -12.341  11.852  -8.965  1.00  0.00     0.114 A
HETATM   10  N3  UNL     1     -13.064  11.385  -7.933  1.00  0.00    -0.360 N
ATOM     11  H3  UNL     1     -13.069  10.383  -7.740  1.00  0.00     0.165 HD
HETATM   12  C10 UNL     1     -13.789  12.218  -7.140  1.00  0.00     0.088 A
HETATM   13  C11 UNL     1     -14.528  11.676  -6.074  1.00  0.00     0.086 A
HETATM   14  C17 UNL     1     -15.262  12.483  -5.264  1.00  0.00     0.080 A
ENDROOT
BRANCH  14  15
HETATM   15  N5  UNL     1     -16.035  11.967  -4.203  1.00  0.00    -0.378 N
HETATM   16  C18 UNL     1     -17.356  11.499  -4.452  1.00  0.00     0.125 C
HETATM   17  C19 UNL     1     -17.708  10.211  -3.763  1.00  0.00     0.051 C
HETATM   18  C20 UNL     1     -17.088  10.028  -2.429  1.00  0.00     0.121 C
HETATM   19  C21 UNL     1     -16.393  11.244  -1.884  1.00  0.00     0.051 C
HETATM   20  C22 UNL     1     -15.490  11.914  -2.862  1.00  0.00     0.125 C
BRANCH  18  21
HETATM   21  O2  UNL     1     -16.219   8.913  -2.399  1.00  0.00    -0.395 OA
ATOM     22  H2  UNL     1     -15.546   9.005  -1.734  1.00  0.00     0.210 HD
ENDBRANCH  18  21
ENDBRANCH  14  15
BRANCH  13  23
HETATM   23  N4  UNL     1     -14.521  10.276  -5.868  1.00  0.00    -0.384 N
ATOM     24  H4  UNL     1     -13.986   9.919  -5.076  1.00  0.00     0.159 HD
BRANCH  23  25
HETATM   25  C12 UNL     1     -15.213   9.316  -6.690  1.00  0.00     0.151 C
BRANCH  25  26
HETATM   26  C13 UNL     1     -15.170   7.927  -6.098  1.00  0.00     0.139 C
HETATM   27  C14 UNL     1     -16.495   7.541  -5.479  1.00  0.00     0.035 C
HETATM   28  C15 UNL     1     -16.339   6.019  -5.408  1.00  0.00     0.029 C
HETATM   29  C16 UNL     1     -15.304   5.766  -6.455  1.00  0.00     0.168 C
HETATM   30  O1  UNL     1     -15.047   6.956  -7.097  1.00  0.00    -0.384 OA
ENDBRANCH  25  26
ENDBRANCH  23  25
ENDBRANCH  13  23
BRANCH   8  31
HETATM   31  C6  UNL     1     -11.587  13.809 -10.314  1.00  0.00     0.037 A
HETATM   32  C7  UNL     1     -11.681  13.252 -11.670  1.00  0.00     0.011 A
HETATM   33  C8  UNL     1     -10.461  12.922 -10.919  1.00  0.00     0.011 A
ENDBRANCH   8  31
TORSDOF 6
ENDMDL