MODEL 5
REMARK VINA RESULT: -7.195284894      3.124      5.400
REMARK  7 active torsions:
REMARK  status: ('A' for Active; 'I' for Inactive)
REMARK    1  A    between atoms: O1_2  and  C2_3
REMARK    2  A    between atoms: C2_3  and  C3_5
REMARK    3  A    between atoms: C6_10  and  C7_11
REMARK    4  A    between atoms: C8_14  and  C9_15
REMARK    5  A    between atoms: C13_20  and  O5_21
REMARK    6  A    between atoms: O5_21  and  C14_22
REMARK    7  A    between atoms: C21_29  and  O6_30
ROOT
HETATM    1  C9  UNL     1     -15.569  11.679  -4.855  1.00  0.00     0.081 C
HETATM    2  C10 UNL     1     -15.023  10.920  -3.656  1.00  0.00     0.074 C
HETATM    3  N2  UNL     1     -14.628  10.389  -2.672  1.00  0.00    -0.196 NA
HETATM    4  C11 UNL     1     -16.967  11.959  -4.364  1.00  0.00     0.032 C
HETATM    5  C12 UNL     1     -17.137  12.985  -3.310  1.00  0.00     0.034 C
HETATM    6  C13 UNL     1     -16.194  14.162  -3.366  1.00  0.00     0.122 C
HETATM    7  C19 UNL     1     -14.791  13.586  -3.521  1.00  0.00     0.034 C
HETATM    8  C20 UNL     1     -14.676  12.860  -4.856  1.00  0.00     0.032 C
ENDROOT
BRANCH   1   9
HETATM    9  C8  UNL     1     -15.489  10.826  -6.024  1.00  0.00     0.032 A
HETATM   10  C6  UNL     1     -15.274  11.348  -7.287  1.00  0.00     0.120 A
HETATM   11  N1  UNL     1     -15.272  10.483  -8.358  1.00  0.00    -0.353 N
HETATM   12  C4  UNL     1     -15.455   9.173  -8.321  1.00  0.00     0.025 A
ATOM     13  H1  UNL     1     -15.113  10.895  -9.277  1.00  0.00     0.166 HD
HETATM   14  C3  UNL     1     -15.671   8.606  -7.073  1.00  0.00     0.095 A
HETATM   15  C5  UNL     1     -15.420   8.388  -9.597  1.00  0.00     0.069 C
HETATM   16  C21 UNL     1     -15.685   9.425  -5.946  1.00  0.00     0.094 A
BRANCH  10  17
HETATM   17  C7  UNL     1     -15.010  12.700  -7.623  1.00  0.00     0.227 C
HETATM   18  O3  UNL     1     -13.762  12.955  -7.924  1.00  0.00    -0.643 OA
HETATM   19  O4  UNL     1     -15.760  13.794  -7.696  1.00  0.00    -0.643 OA
ENDBRANCH  10  17
BRANCH  14  20
HETATM   20  C2  UNL     1     -15.876   7.180  -6.976  1.00  0.00     0.297 C
HETATM   21  O2  UNL     1     -14.981   6.317  -7.008  1.00  0.00    -0.259 OA
BRANCH  20  22
HETATM   22  O1  UNL     1     -17.165   6.645  -6.829  1.00  0.00    -0.322 OA
HETATM   23  C1  UNL     1     -17.914   6.137  -7.900  1.00  0.00     0.213 C
ENDBRANCH  20  22
ENDBRANCH  14  20
BRANCH  16  24
HETATM   24  O6  UNL     1     -15.893   8.825  -4.761  1.00  0.00    -0.359 OA
ATOM     25  H6  UNL     1     -16.558   9.204  -4.199  1.00  0.00     0.217 HD
ENDBRANCH  16  24
ENDBRANCH   1   9
BRANCH   6  26
HETATM   26  O5  UNL     1     -16.340  14.884  -2.214  1.00  0.00    -0.381 OA
BRANCH  26  27
HETATM   27  C14 UNL     1     -15.299  14.756  -1.313  1.00  0.00     0.122 C
HETATM   28  C15 UNL     1     -15.623  13.958  -0.101  1.00  0.00     0.032 C
HETATM   29  C16 UNL     1     -14.717  14.527   0.972  1.00  0.00     0.002 C
HETATM   30  C17 UNL     1     -14.675  16.005   0.641  1.00  0.00     0.002 C
HETATM   31  C18 UNL     1     -14.714  16.067  -0.890  1.00  0.00     0.032 C
ENDBRANCH  26  27
ENDBRANCH   6  26
TORSDOF 7
ENDMDL