MODEL 1
REMARK VINA RESULT: -7.561338658      0.000      0.000
REMARK  6 active torsions:
REMARK  status: ('A' for Active; 'I' for Inactive)
REMARK    1  A    between atoms: O1_2  and  C2_3
REMARK    2  A    between atoms: C7_8  and  O2_9
REMARK    3  A    between atoms: C10_13  and  C11_14
REMARK    4  A    between atoms: C16_21  and  O3_22
REMARK    5  A    between atoms: C18_24  and  O4_25
REMARK    6  A    between atoms: C20_27  and  O5_28
ROOT
HETATM    1  C11 UNL     1     -15.459  11.816  -4.779  1.00  0.00     0.143 C
HETATM    2  N1  UNL     1     -15.688  10.655  -5.587  1.00  0.00    -0.410 N
ATOM      3  H1  UNL     1     -15.327  10.596  -6.540  1.00  0.00     0.154 HD
HETATM    4  C12 UNL     1     -16.436   9.587  -5.018  1.00  0.00     0.119 C
HETATM    5  C13 UNL     1     -15.569   9.050  -3.869  1.00  0.00     0.058 C
HETATM    6  C14 UNL     1     -15.321  10.198  -2.925  1.00  0.00    -0.043 A
HETATM    7  C15 UNL     1     -15.159   9.885  -1.605  1.00  0.00     0.047 A
HETATM    8  C16 UNL     1     -14.971  10.863  -0.650  1.00  0.00     0.104 A
HETATM    9  C18 UNL     1     -14.948  12.178  -1.051  1.00  0.00     0.135 A
HETATM   10  C20 UNL     1     -15.112  12.486  -2.388  1.00  0.00     0.113 A
HETATM   11  C22 UNL     1     -15.303  11.500  -3.375  1.00  0.00     0.009 A
ENDROOT
BRANCH   1  12
HETATM   12  C10 UNL     1     -14.247  12.504  -5.417  1.00  0.00     0.156 C
HETATM   13  C9  UNL     1     -14.418  13.976  -5.499  1.00  0.00     0.039 C
HETATM   14  C8  UNL     1     -14.789  14.445  -6.860  1.00  0.00     0.044 C
HETATM   15  C5  UNL     1     -13.781  13.946  -7.832  1.00  0.00    -0.022 A
HETATM   16  C4  UNL     1     -13.352  12.618  -7.721  1.00  0.00     0.078 A
HETATM   17  C6  UNL     1     -13.223  14.682  -8.847  1.00  0.00     0.049 A
HETATM   18  C3  UNL     1     -12.423  12.072  -8.577  1.00  0.00     0.077 A
HETATM   19  O6  UNL     1     -13.959  11.929  -6.673  1.00  0.00    -0.343 OA
HETATM   20  C2  UNL     1     -11.869  12.819  -9.592  1.00  0.00     0.103 A
HETATM   21  C7  UNL     1     -12.280  14.127  -9.715  1.00  0.00     0.099 A
BRANCH  20  22
HETATM   22  O1  UNL     1     -10.921  12.284 -10.475  1.00  0.00    -0.353 OA
HETATM   23  C1  UNL     1     -11.250  11.373 -11.481  1.00  0.00     0.210 C
ENDBRANCH  20  22
BRANCH  21  24
HETATM   24  O2  UNL     1     -11.740  14.912 -10.731  1.00  0.00    -0.358 OA
ATOM     25  H2  UNL     1     -12.322  15.445 -11.260  1.00  0.00     0.217 HD
ENDBRANCH  21  24
ENDBRANCH   1  12
BRANCH  10  26
HETATM   26  O5  UNL     1     -15.086  13.815  -2.737  1.00  0.00    -0.352 OA
HETATM   27  C21 UNL     1     -16.151  14.714  -2.604  1.00  0.00     0.210 C
ENDBRANCH  10  26
BRANCH   9  28
HETATM   28  O4  UNL     1     -14.762  13.204  -0.131  1.00  0.00    -0.351 OA
HETATM   29  C19 UNL     1     -13.499  13.760   0.163  1.00  0.00     0.210 C
ENDBRANCH   9  28
BRANCH   8  30
HETATM   30  O3  UNL     1     -14.802  10.590   0.700  1.00  0.00    -0.353 OA
HETATM   31  C17 UNL     1     -13.585  10.134   1.249  1.00  0.00     0.210 C
ENDBRANCH   8  30
TORSDOF 6
ENDMDL