MODEL 5
REMARK VINA RESULT: -7.657489949      2.535      7.248
REMARK  5 active torsions:
REMARK  status: ('A' for Active; 'I' for Inactive)
REMARK    1  A    between atoms: C2_2  and  C3_3
REMARK    2  A    between atoms: C3_3  and  C4_4
REMARK    3  A    between atoms: N2_8  and  C6_10
REMARK    4  A    between atoms: C6_10  and  C7_11
REMARK    5  A    between atoms: C7_11  and  N3_12
ROOT
HETATM    1  C4  UNL     1     -13.374  13.244  -7.511  1.00  0.00     0.054 A
HETATM    2  N1  UNL     1     -14.006  13.337  -6.339  1.00  0.00    -0.340 N
ATOM      3  H1  UNL     1     -13.990  14.260  -5.904  1.00  0.00     0.167 HD
HETATM    4  C5  UNL     1     -14.649  12.403  -5.667  1.00  0.00     0.116 A
HETATM    5  N2  UNL     1     -15.200  12.700  -4.537  1.00  0.00    -0.374 N
ATOM      6  H2  UNL     1     -15.701  11.993  -3.998  1.00  0.00     0.161 HD
HETATM    7  C13 UNL     1     -14.784  11.094  -6.085  1.00  0.00     0.061 A
HETATM    8  C14 UNL     1     -14.288  10.562  -7.234  1.00  0.00     0.091 A
HETATM    9  N4  UNL     1     -14.615   9.259  -7.307  1.00  0.00    -0.347 N
ATOM     10  H4  UNL     1     -14.359   8.636  -8.073  1.00  0.00     0.167 HD
HETATM   11  C15 UNL     1     -15.341   8.889  -6.203  1.00  0.00     0.074 A
HETATM   12  C16 UNL     1     -15.933   7.770  -5.713  1.00  0.00     0.103 A
HETATM   13  C17 UNL     1     -15.927   6.454  -6.383  1.00  0.00     0.104 C
HETATM   14  N5  UNL     1     -15.913   5.413  -6.933  1.00  0.00    -0.191 NA
HETATM   15  C18 UNL     1     -16.577   7.887  -4.510  1.00  0.00     0.111 A
HETATM   16  N6  UNL     1     -17.282   6.859  -3.773  1.00  0.00    -0.093 NA
HETATM   17  S1  UNL     1     -16.341   9.528  -4.104  1.00  0.00    -0.070 SA
HETATM   18  C19 UNL     1     -15.438  10.025  -5.459  1.00  0.00     0.051 A
HETATM   19  S2  UNL     1     -13.424  11.688  -8.203  1.00  0.00    -0.058 SA
ENDROOT
BRANCH   1  20
HETATM   20  C3  UNL     1     -12.706  14.435  -8.097  1.00  0.00     0.065 C
BRANCH  20  21
HETATM   21  C2  UNL     1     -12.539  14.249  -9.598  1.00  0.00     0.002 C
HETATM   22  C1  UNL     1     -11.210  13.667  -9.950  1.00  0.00     0.005 C
ENDBRANCH  20  21
ENDBRANCH   1  20
BRANCH   5  23
HETATM   23  C6  UNL     1     -15.088  14.054  -4.055  1.00  0.00     0.140 C
BRANCH  23  24
HETATM   24  C7  UNL     1     -15.807  14.239  -2.727  1.00  0.00     0.136 C
BRANCH  24  25
HETATM   25  N3  UNL     1     -14.824  14.371  -1.705  1.00  0.00    -0.411 N
HETATM   26  C8  UNL     1     -14.652  15.656  -1.137  1.00  0.00     0.117 C
HETATM   27  C9  UNL     1     -14.796  15.551   0.367  1.00  0.00     0.019 C
HETATM   28  C10 UNL     1     -13.612  14.743   0.852  1.00  0.00     0.003 C
HETATM   29  C11 UNL     1     -13.595  13.391   0.178  1.00  0.00     0.019 C
HETATM   30  C12 UNL     1     -14.707  13.253  -0.837  1.00  0.00     0.117 C
ENDBRANCH  24  25
ENDBRANCH  23  24
ENDBRANCH   5  23
TORSDOF 5
ENDMDL