MODEL 1
REMARK VINA RESULT: -8.180567583      0.000      0.000
REMARK  5 active torsions:
REMARK  status: ('A' for Active; 'I' for Inactive)
REMARK    1  A    between atoms: C2_2  and  C3_3
REMARK    2  A    between atoms: C3_3  and  N1_4
REMARK    3  A    between atoms: C4_5  and  C5_6
REMARK    4  A    between atoms: C7_8  and  N2_9
REMARK    5  A    between atoms: C16_23  and  C17_24
ROOT
HETATM    1  C5  UNL     1     -14.681  11.979  -5.275  1.00  0.00     0.083 A
HETATM    2  C6  UNL     1     -14.979  10.666  -5.463  1.00  0.00     0.082 A
HETATM    3  C7  UNL     1     -14.711  10.056  -6.703  1.00  0.00     0.106 A
HETATM    4  N4  UNL     1     -14.167  10.777  -7.678  1.00  0.00    -0.332 N
ATOM      5  H4  UNL     1     -13.975  10.331  -8.575  1.00  0.00     0.168 HD
HETATM    6  C16 UNL     1     -13.860  12.090  -7.519  1.00  0.00     0.087 A
HETATM    7  N5  UNL     1     -14.121  12.652  -6.336  1.00  0.00    -0.342 N
ATOM      8  H5  UNL     1     -13.892  13.638  -6.211  1.00  0.00     0.167 HD
ENDROOT
BRANCH   3   9
HETATM    9  N2  UNL     1     -15.052   8.683  -6.813  1.00  0.00    -0.366 N
HETATM   10  C8  UNL     1     -15.663   8.140  -8.026  1.00  0.00     0.125 C
HETATM   11  C9  UNL     1     -16.655   7.151  -7.494  1.00  0.00     0.031 C
HETATM   12  C10 UNL     1     -16.007   6.633  -6.243  1.00  0.00    -0.020 C
HETATM   13  C11 UNL     1     -15.456   5.256  -6.519  1.00  0.00     0.039 C
HETATM   14  C14 UNL     1     -17.002   6.593  -5.110  1.00  0.00     0.039 C
HETATM   15  C15 UNL     1     -14.906   7.610  -5.879  1.00  0.00     0.134 C
HETATM   16  C12 UNL     1     -16.584   4.286  -6.689  1.00  0.00     0.233 C
HETATM   17  N3  UNL     1     -17.527   4.317  -5.596  1.00  0.00    -0.075 N
HETATM   18  C13 UNL     1     -18.099   5.643  -5.463  1.00  0.00     0.233 C
ATOM     19  H32 UNL     1     -18.246   3.600  -5.694  1.00  0.00     0.277 HD
ATOM     20  H31 UNL     1     -17.109   3.993  -4.724  1.00  0.00     0.277 HD
ENDBRANCH   3   9
BRANCH   1  21
HETATM   21  C4  UNL     1     -14.891  12.771  -4.071  1.00  0.00     0.151 A
HETATM   22  N1  UNL     1     -15.047  12.450  -2.790  1.00  0.00    -0.306 N
HETATM   23  C20 UNL     1     -15.208  13.630  -2.085  1.00  0.00     0.194 A
HETATM   24  N7  UNL     1     -15.148  14.642  -2.939  1.00  0.00    -0.274 N
HETATM   25  S1  UNL     1     -15.434  13.698  -0.472  1.00  0.00    -0.039 SA
HETATM   26  N6  UNL     1     -14.962  14.152  -4.117  1.00  0.00    -0.281 N
ATOM     27  H7  UNL     1     -15.233  15.631  -2.707  1.00  0.00     0.189 HD
ATOM     28  H6  UNL     1     -14.877  14.707  -4.968  1.00  0.00     0.188 HD
BRANCH  22  29
HETATM   29  C3  UNL     1     -15.053  11.150  -2.205  1.00  0.00     0.133 C
BRANCH  29  30
HETATM   30  C2  UNL     1     -13.668  10.518  -2.118  1.00  0.00     0.016 C
HETATM   31  C1  UNL     1     -13.003  10.858  -0.803  1.00  0.00     0.006 C
ENDBRANCH  29  30
ENDBRANCH  22  29
ENDBRANCH   1  21
BRANCH   6  32
HETATM   32  C17 UNL     1     -13.251  12.864  -8.638  1.00  0.00     0.053 A
HETATM   33  C18 UNL     1     -12.814  14.262  -8.435  1.00  0.00     0.013 A
HETATM   34  C19 UNL     1     -11.795  13.140  -8.644  1.00  0.00     0.013 A
ENDBRANCH   6  32
TORSDOF 5
ENDMDL