MODEL 3
REMARK VINA RESULT: -7.428346030      0.915      1.010
REMARK  8 active torsions:
REMARK  status: ('A' for Active; 'I' for Inactive)
REMARK    1  A    between atoms: C5_5  and  C6_6
REMARK    2  A    between atoms: C5_5  and  C8_9
REMARK    3  A    between atoms: C11_12  and  C12_13
REMARK    4  A    between atoms: C12_13  and  N2_14
REMARK    5  A    between atoms: N2_14  and  N3_16
REMARK    6  A    between atoms: N3_16  and  C13_18
REMARK    7  A    between atoms: C16_27  and  C17_28
REMARK    8  A    between atoms: C17_28  and  O2_29
ROOT
HETATM    1  C6  UNL     1     -17.668  11.749  -4.663  1.00  0.00     0.136 C
HETATM    2  C7  UNL     1     -18.470  12.333  -3.594  1.00  0.00     0.060 C
HETATM    3  N1  UNL     1     -19.127  12.770  -2.732  1.00  0.00    -0.197 NA
ENDROOT
BRANCH   1   4
HETATM    4  C5  UNL     1     -16.181  11.808  -4.431  1.00  0.00     0.003 C
HETATM    5  C4  UNL     1     -15.667  10.531  -5.164  1.00  0.00     0.018 C
HETATM    6  C3  UNL     1     -16.290   9.281  -4.722  1.00  0.00     0.034 C
HETATM    7  C2  UNL     1     -16.271   9.203  -3.238  1.00  0.00    -0.085 C
HETATM    8  C1  UNL     1     -16.782   8.144  -2.598  1.00  0.00     0.014 C
HETATM    9  C20 UNL     1     -15.682  10.297  -2.483  1.00  0.00     0.019 C
HETATM   10  C15 UNL     1     -15.897  11.678  -2.971  1.00  0.00     0.012 C
HETATM   11  C19 UNL     1     -14.212  10.136  -2.217  1.00  0.00     0.010 C
HETATM   12  C16 UNL     1     -14.783  12.459  -2.394  1.00  0.00     0.015 C
HETATM   13  C18 UNL     1     -13.888  11.480  -1.603  1.00  0.00     0.008 C
BRANCH  12  14
HETATM   14  C17 UNL     1     -15.270  13.440  -1.311  1.00  0.00     0.169 C
BRANCH  14  15
HETATM   15  O2  UNL     1     -16.385  14.136  -1.720  1.00  0.00    -0.400 OA
ATOM     16  H2  UNL     1     -16.819  14.564  -0.991  1.00  0.00     0.209 HD
ENDBRANCH  14  15
ENDBRANCH  12  14
BRANCH   4  17
HETATM   17  C8  UNL     1     -15.485  12.892  -5.174  1.00  0.00     0.132 C
HETATM   18  C9  UNL     1     -16.053  14.239  -5.278  1.00  0.00     0.035 C
HETATM   19  C10 UNL     1     -15.079  14.770  -6.393  1.00  0.00     0.040 C
HETATM   20  C11 UNL     1     -15.249  13.566  -7.322  1.00  0.00     0.161 C
HETATM   21  O1  UNL     1     -15.164  12.484  -6.500  1.00  0.00    -0.374 OA
BRANCH  20  22
HETATM   22  C12 UNL     1     -14.266  13.560  -8.401  1.00  0.00     0.112 C
BRANCH  22  23
HETATM   23  N2  UNL     1     -13.146  14.167  -8.260  1.00  0.00    -0.311 N
ATOM     24  H2  UNL     1     -13.127  15.136  -7.940  1.00  0.00     0.185 HD
BRANCH  23  25
HETATM   25  N3  UNL     1     -11.958  13.503  -8.543  1.00  0.00    -0.279 N
ATOM     26  H3  UNL     1     -11.313  13.216  -7.807  1.00  0.00     0.189 HD
BRANCH  25  27
HETATM   27  C13 UNL     1     -11.713  13.263  -9.817  1.00  0.00     0.180 A
HETATM   28  N4  UNL     1     -11.455  14.154 -10.774  1.00  0.00    -0.330 N
HETATM   29  C14 UNL     1     -11.238  13.703 -11.983  1.00  0.00     0.189 A
ATOM     30  H4  UNL     1     -11.428  15.153 -10.571  1.00  0.00     0.168 HD
HETATM   31  N5  UNL     1     -11.285  12.388 -12.181  1.00  0.00    -0.320 N
HETATM   32  S1  UNL     1     -11.640  11.780 -10.654  1.00  0.00     0.025 SA
ATOM     33  H5  UNL     1     -11.141  11.873 -13.049  1.00  0.00     0.175 HD
ENDBRANCH  25  27
ENDBRANCH  23  25
ENDBRANCH  22  23
ENDBRANCH  20  22
ENDBRANCH   4  17
ENDBRANCH   1   4
TORSDOF 8
ENDMDL