MODEL 4
REMARK VINA RESULT: -6.819921529      1.348      7.586
REMARK  6 active torsions:
REMARK  status: ('A' for Active; 'I' for Inactive)
REMARK    1  A    between atoms: O1_2  and  C2_3
REMARK    2  A    between atoms: C6_7  and  O2_8
REMARK    3  A    between atoms: C7_10  and  O3_11
REMARK    4  A    between atoms: C14_18  and  O4_19
REMARK    5  A    between atoms: C16_21  and  O5_22
REMARK    6  A    between atoms: C18_24  and  O6_25
ROOT
HETATM    1  C2  UNL     1     -16.064  15.458  -1.489  1.00  0.00     0.106 A
HETATM    2  C3  UNL     1     -16.394  15.642  -2.822  1.00  0.00     0.069 A
HETATM    3  C4  UNL     1     -16.204  14.667  -3.776  1.00  0.00     0.040 A
HETATM    4  C5  UNL     1     -15.664  13.461  -3.374  1.00  0.00     0.011 A
HETATM    5  C6  UNL     1     -15.332  13.279  -2.037  1.00  0.00     0.111 A
HETATM    6  C7  UNL     1     -15.515  14.247  -1.067  1.00  0.00     0.135 A
HETATM    7  C9  UNL     1     -15.612  12.615  -4.598  1.00  0.00     0.051 C
HETATM    8  C10 UNL     1     -14.606  11.530  -4.585  1.00  0.00     0.053 C
HETATM    9  C11 UNL     1     -14.874  10.599  -5.719  1.00  0.00    -0.015 A
HETATM   10  C12 UNL     1     -14.884  10.961  -7.050  1.00  0.00    -0.046 A
HETATM   11  C13 UNL     1     -15.133  10.013  -8.012  1.00  0.00     0.047 A
HETATM   12  C14 UNL     1     -15.372   8.702  -7.613  1.00  0.00     0.104 A
HETATM   13  C16 UNL     1     -15.368   8.316  -6.295  1.00  0.00     0.135 A
HETATM   14  C18 UNL     1     -15.114   9.286  -5.339  1.00  0.00     0.111 A
HETATM   15  C20 UNL     1     -14.669  12.341  -7.611  1.00  0.00     0.041 C
HETATM   16  C21 UNL     1     -15.763  13.262  -7.052  1.00  0.00     0.030 C
HETATM   17  C22 UNL     1     -15.426  13.663  -5.672  1.00  0.00     0.091 C
HETATM   18  N1  UNL     1     -16.443  14.629  -5.193  1.00  0.00    -0.384 N
ATOM     19  H1  UNL     1     -17.139  15.141  -5.734  1.00  0.00     0.160 HD
ENDROOT
BRANCH   1  20
HETATM   20  O1  UNL     1     -16.261  16.450  -0.546  1.00  0.00    -0.353 OA
HETATM   21  C1  UNL     1     -16.080  17.789  -0.963  1.00  0.00     0.210 C
ENDBRANCH   1  20
BRANCH   6  22
HETATM   22  O3  UNL     1     -15.205  14.117   0.259  1.00  0.00    -0.351 OA
HETATM   23  C8  UNL     1     -13.968  14.320   0.861  1.00  0.00     0.210 C
ENDBRANCH   6  22
BRANCH   5  24
HETATM   24  O2  UNL     1     -14.781  12.075  -1.592  1.00  0.00    -0.357 OA
ATOM     25  H2  UNL     1     -15.048  11.692  -0.764  1.00  0.00     0.217 HD
ENDBRANCH   5  24
BRANCH  14  26
HETATM   26  O6  UNL     1     -15.103   8.939  -4.011  1.00  0.00    -0.352 OA
HETATM   27  C19 UNL     1     -16.252   8.995  -3.177  1.00  0.00     0.210 C
ENDBRANCH  14  26
BRANCH  13  28
HETATM   28  O5  UNL     1     -15.609   6.997  -5.906  1.00  0.00    -0.351 OA
HETATM   29  C17 UNL     1     -16.961   6.595  -5.728  1.00  0.00     0.210 C
ENDBRANCH  13  28
BRANCH  12  30
HETATM   30  O4  UNL     1     -15.618   7.787  -8.621  1.00  0.00    -0.353 OA
HETATM   31  C15 UNL     1     -16.794   7.749  -9.367  1.00  0.00     0.210 C
ENDBRANCH  12  30
TORSDOF 6
ENDMDL