MODEL 4
REMARK VINA RESULT: -6.407426604      2.712      4.640
REMARK  7 active torsions:
REMARK  status: ('A' for Active; 'I' for Inactive)
REMARK    1  A    between atoms: C2_2  and  O1_3
REMARK    2  A    between atoms: O1_3  and  C3_4
REMARK    3  A    between atoms: C3_4  and  C4_5
REMARK    4  A    between atoms: C4_5  and  N1_6
REMARK    5  A    between atoms: C15_20  and  C16_21
REMARK    6  A    between atoms: C16_21  and  O2_22
REMARK    7  A    between atoms: N4_24  and  O3_26
ROOT
HETATM    1  N1  UNL     1     -15.670  13.250  -5.785  1.00  0.00    -0.379 N
HETATM    2  C5  UNL     1     -14.448  12.606  -5.501  1.00  0.00     0.129 C
HETATM    3  C6  UNL     1     -14.599  11.107  -5.341  1.00  0.00     0.077 C
HETATM    4  C7  UNL     1     -15.770  10.813  -4.424  1.00  0.00     0.021 A
HETATM    5  N2  UNL     1     -15.712   9.653  -3.681  1.00  0.00    -0.349 N
ATOM      6  H2  UNL     1     -14.928   9.002  -3.734  1.00  0.00     0.166 HD
HETATM    7  C8  UNL     1     -16.801   9.448  -2.863  1.00  0.00     0.131 A
HETATM    8  C9  UNL     1     -16.902   8.289  -2.009  1.00  0.00     0.119 C
HETATM    9  N3  UNL     1     -17.002   7.366  -1.319  1.00  0.00    -0.190 NA
HETATM   10  C10 UNL     1     -17.798  10.324  -2.835  1.00  0.00     0.045 A
HETATM   11  C11 UNL     1     -17.881  11.468  -3.577  1.00  0.00    -0.028 A
HETATM   12  C12 UNL     1     -16.794  11.693  -4.383  1.00  0.00    -0.001 A
HETATM   13  C13 UNL     1     -16.777  13.077  -4.932  1.00  0.00     0.143 C
HETATM   14  C14 UNL     1     -16.905  14.036  -3.791  1.00  0.00     0.018 C
HETATM   15  C15 UNL     1     -16.843  13.821  -2.387  1.00  0.00     0.012 C
HETATM   16  C17 UNL     1     -17.264  12.774  -1.472  1.00  0.00     0.004 C
HETATM   17  C18 UNL     1     -18.633  12.359  -1.189  1.00  0.00     0.076 C
HETATM   18  C19 UNL     1     -19.516  12.935  -2.325  1.00  0.00     0.024 C
HETATM   19  C20 UNL     1     -19.141  12.270  -3.598  1.00  0.00     0.042 C
HETATM   20  S1  UNL     1     -18.979  10.522  -1.419  1.00  0.00    -0.118 SA
ENDROOT
BRANCH   1  21
HETATM   21  C4  UNL     1     -15.534  14.403  -6.568  1.00  0.00     0.085 C
BRANCH  21  22
HETATM   22  C3  UNL     1     -14.767  14.268  -7.861  1.00  0.00     0.211 C
BRANCH  22  23
HETATM   23  O1  UNL     1     -13.564  14.943  -7.870  1.00  0.00    -0.387 OA
BRANCH  23  24
HETATM   24  C2  UNL     1     -12.680  14.448  -8.816  1.00  0.00     0.163 C
HETATM   25  C1  UNL     1     -12.062  13.147  -8.334  1.00  0.00     0.033 C
ENDBRANCH  23  24
ENDBRANCH  22  23
ENDBRANCH  21  22
ENDBRANCH   1  21
BRANCH  15  26
HETATM   26  C16 UNL     1     -15.513  14.410  -1.889  1.00  0.00     0.169 C
HETATM   27  N4  UNL     1     -15.359  15.647  -1.844  1.00  0.00    -0.247 N
ATOM     28  H4  UNL     1     -16.145  16.220  -2.150  1.00  0.00     0.196 HD
BRANCH  26  29
HETATM   29  O2  UNL     1     -14.542  13.531  -1.507  1.00  0.00    -0.344 OA
ATOM     30  H2  UNL     1     -14.822  12.675  -1.206  1.00  0.00     0.219 HD
ENDBRANCH  26  29
BRANCH  27  31
HETATM   31  O3  UNL     1     -14.234  16.311  -1.425  1.00  0.00    -0.288 OA
ATOM     32  H3  UNL     1     -14.134  16.790  -0.611  1.00  0.00     0.244 HD
ENDBRANCH  27  31
ENDBRANCH  15  26
TORSDOF 7
ENDMDL