MODEL 2
REMARK VINA RESULT: -8.026889300      0.084      1.648
REMARK  6 active torsions:
REMARK  status: ('A' for Active; 'I' for Inactive)
REMARK    1  A    between atoms: N2_7  and  C5_8
REMARK    2  A    between atoms: C5_8  and  C6_9
REMARK    3  A    between atoms: C6_9  and  O1_10
REMARK    4  A    between atoms: C6_9  and  C7_12
REMARK    5  A    between atoms: C7_12  and  N3_13
REMARK    6  A    between atoms: C11_19  and  C12_20
ROOT
HETATM    1  C1  UNL     1     -16.783   6.081  -5.391  1.00  0.00     0.049 C
HETATM    2  C2  UNL     1     -16.287   7.455  -5.487  1.00  0.00    -0.052 A
HETATM    3  C3  UNL     1     -15.662   7.968  -6.631  1.00  0.00     0.039 A
HETATM    4  C4  UNL     1     -15.197   9.259  -6.717  1.00  0.00     0.064 A
HETATM    5  N1  UNL     1     -14.576  10.030  -7.640  1.00  0.00    -0.296 N
ATOM      6  H1  UNL     1     -14.307   9.729  -8.576  1.00  0.00     0.187 HD
HETATM    7  N2  UNL     1     -14.372  11.246  -7.129  1.00  0.00    -0.273 N
HETATM    8  C10 UNL     1     -14.857  11.291  -5.864  1.00  0.00     0.137 A
HETATM    9  N4  UNL     1     -14.860  12.313  -4.998  1.00  0.00    -0.334 N
ATOM     10  H4  UNL     1     -14.444  13.191  -5.310  1.00  0.00     0.168 HD
HETATM   11  C11 UNL     1     -15.364  12.279  -3.756  1.00  0.00     0.090 A
HETATM   12  S1  UNL     1     -16.068  10.788  -3.228  1.00  0.00    -0.070 SA
HETATM   13  C17 UNL     1     -15.966   9.605  -4.481  1.00  0.00     0.029 A
HETATM   14  C18 UNL     1     -16.430   8.310  -4.404  1.00  0.00    -0.038 A
HETATM   15  C19 UNL     1     -17.068   7.910  -3.127  1.00  0.00     0.050 C
HETATM   16  C20 UNL     1     -15.366  10.054  -5.619  1.00  0.00     0.055 A
ENDROOT
BRANCH  11  17
HETATM   17  C12 UNL     1     -15.340  13.426  -2.863  1.00  0.00     0.045 A
HETATM   18  C13 UNL     1     -14.715  13.470  -1.655  1.00  0.00     0.037 A
HETATM   19  C14 UNL     1     -13.944  12.376  -1.008  1.00  0.00     0.070 C
HETATM   20  N5  UNL     1     -14.937  14.702  -1.165  1.00  0.00    -0.304 N
HETATM   21  N6  UNL     1     -15.662  15.431  -1.990  1.00  0.00    -0.304 N
ATOM     22  H5  UNL     1     -14.587  15.032  -0.266  1.00  0.00     0.186 HD
HETATM   23  C15 UNL     1     -15.926  14.644  -3.067  1.00  0.00     0.037 A
ATOM     24  H6  UNL     1     -15.965  16.395  -1.849  1.00  0.00     0.186 HD
HETATM   25  C16 UNL     1     -16.722  15.066  -4.250  1.00  0.00     0.070 C
ENDBRANCH  11  17
BRANCH   7  26
HETATM   26  C5  UNL     1     -13.737  12.336  -7.825  1.00  0.00     0.188 C
BRANCH  26  27
HETATM   27  C6  UNL     1     -12.566  11.861  -8.650  1.00  0.00     0.176 C
BRANCH  27  28
HETATM   28  O1  UNL     1     -11.684  11.218  -7.748  1.00  0.00    -0.389 OA
ATOM     29  H1  UNL     1     -11.061  10.740  -8.284  1.00  0.00     0.210 HD
ENDBRANCH  27  28
BRANCH  27  30
HETATM   30  C7  UNL     1     -11.762  13.044  -9.190  1.00  0.00     0.090 C
BRANCH  30  31
HETATM   31  N3  UNL     1     -11.565  12.856 -10.573  1.00  0.00    -0.399 N
HETATM   32  C8  UNL     1     -11.596  11.561 -11.109  1.00  0.00     0.148 C
HETATM   33  C9  UNL     1     -11.178  13.943 -11.371  1.00  0.00     0.148 C
ENDBRANCH  30  31
ENDBRANCH  27  30
ENDBRANCH  26  27
ENDBRANCH   7  26
TORSDOF 6
ENDMDL