MODEL 5
REMARK VINA RESULT: -5.036341591      2.293      6.887
REMARK  4 active torsions:
REMARK  status: ('A' for Active; 'I' for Inactive)
REMARK    1  A    between atoms: N1_2  and  C2_4
REMARK    2  A    between atoms: C4_7  and  N2_8
REMARK    3  A    between atoms: C7_17  and  N5_18
REMARK    4  A    between atoms: N9_29  and  C10_30
ROOT
HETATM    1  C2  UNL     1       4.329  16.774  15.469  1.00  0.00     0.132 A
HETATM    2  C3  UNL     1       4.414  18.075  14.950  1.00  0.00     0.097 A
HETATM    3  S1  UNL     1       5.240  19.509  15.394  1.00  0.00    -0.047 SA
HETATM    4  C4  UNL     1       4.691  20.512  14.138  1.00  0.00     0.144 A
HETATM    5  N3  UNL     1       3.902  19.721  13.430  1.00  0.00    -0.322 N
ATOM      6  H3  UNL     1       3.425  20.068  12.598  1.00  0.00     0.169 HD
HETATM    7  C5  UNL     1       3.748  18.478  13.827  1.00  0.00     0.130 A
HETATM    8  N4  UNL     1       2.973  17.514  13.222  1.00  0.00    -0.324 N
ATOM      9  H4  UNL     1       2.448  17.747  12.379  1.00  0.00     0.169 HD
HETATM   10  C6  UNL     1       2.899  16.277  13.727  1.00  0.00     0.161 A
HETATM   11  C7  UNL     1       2.093  15.333  13.069  1.00  0.00     0.146 A
HETATM   12  N6  UNL     1       1.989  14.088  13.536  1.00  0.00    -0.322 N
ATOM     13  H6  UNL     1       1.402  13.408  13.053  1.00  0.00     0.169 HD
HETATM   14  C8  UNL     1       2.658  13.730  14.642  1.00  0.00     0.172 A
HETATM   15  C9  UNL     1       3.460  14.627  15.317  1.00  0.00     0.177 A
HETATM   16  N7  UNL     1       4.015  14.026  16.382  1.00  0.00    -0.267 N
ATOM     17  H7  UNL     1       4.651  14.443  17.061  1.00  0.00     0.190 HD
HETATM   18  N8  UNL     1       3.570  12.795  16.368  1.00  0.00    -0.237 N
ATOM     19  H8  UNL     1       3.819  12.089  17.059  1.00  0.00     0.208 HD
HETATM   20  N9  UNL     1       2.751  12.577  15.335  1.00  0.00    -0.255 N
HETATM   21  N10 UNL     1       3.541  15.852  14.827  1.00  0.00    -0.260 N
ENDROOT
BRANCH   1  22
HETATM   22  N1  UNL     1       4.969  16.461  16.513  1.00  0.00    -0.379 N
HETATM   23  C1  UNL     1       4.505  16.564  17.853  1.00  0.00     0.147 C
ATOM     24  H1  UNL     1       5.912  16.097  16.381  1.00  0.00     0.160 HD
ENDBRANCH   1  22
BRANCH   4  25
HETATM   25  N2  UNL     1       4.943  21.775  13.870  1.00  0.00    -0.380 N
ATOM     26  H22 UNL     1       5.865  22.167  13.684  1.00  0.00     0.158 HD
ATOM     27  H21 UNL     1       4.320  22.579  13.793  1.00  0.00     0.158 HD
ENDBRANCH   4  25
BRANCH  11  28
HETATM   28  N5  UNL     1       1.452  15.688  12.006  1.00  0.00    -0.382 N
ATOM     29  H52 UNL     1       0.678  16.349  12.066  1.00  0.00     0.157 HD
ATOM     30  H51 UNL     1       1.732  15.296  11.107  1.00  0.00     0.157 HD
ENDBRANCH  11  28
BRANCH  20  31
HETATM   31  C10 UNL     1       2.092  11.347  15.025  1.00  0.00     0.103 C
HETATM   32  C11 UNL     1       0.598  11.550  15.143  1.00  0.00     0.034 C
HETATM   33  C12 UNL     1       2.459  10.223  15.971  1.00  0.00     0.034 C
ENDBRANCH  20  31
TORSDOF 4
ENDMDL