MODEL 3
REMARK VINA RESULT: -4.996844745      2.169      4.734
REMARK  2 active torsions:
REMARK  status: ('A' for Active; 'I' for Inactive)
REMARK    1  A    between atoms: N2_5  and  C4_6
REMARK    2  A    between atoms: C6_12  and  N5_13
ROOT
HETATM    1  C4  UNL     1       3.099  11.017  15.737  1.00  0.00     0.151 A
HETATM    2  N3  UNL     1       3.914  12.030  16.110  1.00  0.00    -0.323 N
ATOM      3  H3  UNL     1       4.745  11.825  16.665  1.00  0.00     0.169 HD
HETATM    4  C5  UNL     1       3.648  13.303  15.765  1.00  0.00     0.152 A
HETATM    5  N4  UNL     1       4.261  14.480  15.989  1.00  0.00    -0.174 N
ATOM      6  H4  UNL     1       5.125  14.609  16.516  1.00  0.00     0.186 HD
HETATM    7  C6  UNL     1       3.551  15.453  15.404  1.00  0.00     0.678 A
HETATM    8  N6  UNL     1       2.479  14.902  14.803  1.00  0.00    -0.186 N
ATOM      9  H6  UNL     1       1.759  15.401  14.280  1.00  0.00     0.184 HD
HETATM   10  C7  UNL     1       2.529  13.577  15.019  1.00  0.00     0.122 A
HETATM   11  C8  UNL     1       1.669  12.569  14.616  1.00  0.00     0.096 A
HETATM   12  N7  UNL     1       0.571  12.791  13.890  1.00  0.00    -0.335 N
ATOM     13  H7  UNL     1       0.350  13.748  13.617  1.00  0.00     0.168 HD
HETATM   14  C9  UNL     1      -0.272  11.786  13.497  1.00  0.00     0.158 A
HETATM   15  N8  UNL     1      -1.380  11.951  12.772  1.00  0.00    -0.295 N
ATOM     16  H8  UNL     1      -1.769  12.819  12.405  1.00  0.00     0.177 HD
HETATM   17  S1  UNL     1      -1.986  10.392  12.607  1.00  0.00     0.070 SA
HETATM   18  N9  UNL     1      -0.801   9.568  13.471  1.00  0.00    -0.295 N
ATOM     19  H9  UNL     1      -0.736   8.567  13.652  1.00  0.00     0.177 HD
HETATM   20  C10 UNL     1       0.034  10.535  13.864  1.00  0.00     0.159 A
HETATM   21  N10 UNL     1       1.161  10.302  14.611  1.00  0.00    -0.334 N
ATOM     22  H10 UNL     1       1.383   9.345  14.885  1.00  0.00     0.168 HD
HETATM   23  C11 UNL     1       1.974  11.283  14.987  1.00  0.00     0.109 A
ENDROOT
BRANCH   1  24
HETATM   24  N2  UNL     1       3.387   9.675  16.106  1.00  0.00    -0.262 N
HETATM   25  C3  UNL     1       4.599   9.289  16.798  1.00  0.00     0.164 C
HETATM   26  C2  UNL     1       4.591   7.792  16.569  1.00  0.00     0.132 C
HETATM   27  N1  UNL     1       3.173   7.497  16.476  1.00  0.00    -0.216 NA
HETATM   28  C1  UNL     1       2.905   6.315  15.700  1.00  0.00     0.134 C
HETATM   29  N11 UNL     1       2.579   8.583  15.865  1.00  0.00    -0.045 NA
ENDBRANCH   1  24
BRANCH   7  30
HETATM   30  N5  UNL     1       3.848  16.715  15.416  1.00  0.00    -0.234 N
ATOM     31  H52 UNL     1       3.462  17.412  16.052  1.00  0.00     0.174 HD
ATOM     32  H51 UNL     1       4.507  17.175  14.788  1.00  0.00     0.174 HD
ENDBRANCH   7  30
TORSDOF 2
ENDMDL