MODEL 1
REMARK VINA RESULT: -7.547212374      0.000      0.000
REMARK  2 active torsions:
REMARK  status: ('A' for Active; 'I' for Inactive)
REMARK    1  A    between atoms: N3_11  and  C6_12
REMARK    2  A    between atoms: C7_18  and  N6_19
ROOT
HETATM    1  C1  UNL     1       0.502  11.276  13.879  1.00  0.00     0.071 C
HETATM    2  C2  UNL     1       1.159  12.615  13.835  1.00  0.00     0.046 A
HETATM    3  N1  UNL     1       0.908  13.486  12.861  1.00  0.00    -0.193 N
ATOM      4  H1  UNL     1       0.272  13.339  12.078  1.00  0.00     0.184 HD
HETATM    5  C3  UNL     1       1.641  14.602  13.089  1.00  0.00     0.691 A
HETATM    6  N2  UNL     1       1.874  15.810  12.550  1.00  0.00    -0.182 N
ATOM      7  H2  UNL     1       1.468  16.202  11.701  1.00  0.00     0.184 HD
HETATM    8  C4  UNL     1       2.759  16.388  13.373  1.00  0.00     0.164 A
HETATM    9  C5  UNL     1       3.379  17.623  13.358  1.00  0.00     0.288 A
HETATM   10  O1  UNL     1       3.107  18.423  12.406  1.00  0.00    -0.265 OA
HETATM   11  N3  UNL     1       4.245  17.976  14.319  1.00  0.00    -0.207 N
HETATM   12  C8  UNL     1       4.498  17.094  15.300  1.00  0.00     0.350 A
HETATM   13  O3  UNL     1       5.305  17.413  16.202  1.00  0.00    -0.245 OA
HETATM   14  N7  UNL     1       3.919  15.864  15.371  1.00  0.00    -0.206 N
HETATM   15  S1  UNL     1       4.383  14.886  16.722  1.00  0.00     0.056 SA
HETATM   16  C9  UNL     1       3.064  15.511  14.427  1.00  0.00     0.179 A
HETATM   17  N8  UNL     1       2.340  14.395  14.214  1.00  0.00    -0.131 N
HETATM   18  C10 UNL     1       2.079  13.173  14.722  1.00  0.00     0.055 A
HETATM   19  C11 UNL     1       2.538  12.435  15.886  1.00  0.00     0.071 C
ENDROOT
BRANCH  11  20
HETATM   20  C6  UNL     1       4.876  19.240  14.295  1.00  0.00     0.187 A
HETATM   21  N4  UNL     1       6.067  19.566  13.781  1.00  0.00    -0.221 N
HETATM   22  O2  UNL     1       6.239  20.842  13.987  1.00  0.00    -0.153 OA
ATOM     23  H4  UNL     1       6.719  18.935  13.315  1.00  0.00     0.198 HD
HETATM   24  N5  UNL     1       5.256  21.387  14.595  1.00  0.00    -0.222 N
HETATM   25  C7  UNL     1       4.347  20.401  14.819  1.00  0.00     0.168 A
ATOM     26  H5  UNL     1       5.170  22.368  14.860  1.00  0.00     0.198 HD
BRANCH  25  27
HETATM   27  N6  UNL     1       3.220  20.579  15.415  1.00  0.00    -0.381 N
ATOM     28  H62 UNL     1       2.706  19.842  15.898  1.00  0.00     0.157 HD
ATOM     29  H61 UNL     1       2.671  21.434  15.506  1.00  0.00     0.157 HD
ENDBRANCH  25  27
ENDBRANCH  11  20
TORSDOF 2
ENDMDL