MODEL 1
REMARK VINA RESULT: -8.285327574      0.000      0.000
REMARK  2 active torsions:
REMARK  status: ('A' for Active; 'I' for Inactive)
REMARK    1  A    between atoms: N1_2  and  N2_3
REMARK       I    between atoms: N2_3  and  C2_5
REMARK       I    between atoms: C2_5  and  N3_7
REMARK    2  A    between atoms: C5_17  and  C6_18
ROOT
HETATM    1  N2  UNL     1       2.783  10.422  15.705  1.00  0.00    -0.255 N
ATOM      2  H2  UNL     1       3.569  10.413  16.355  1.00  0.00     0.187 HD
HETATM    3  C2  UNL     1       2.385  11.587  15.079  1.00  0.00     0.359 C
HETATM    4  O1  UNL     1       1.380  11.474  14.285  1.00  0.00    -0.244 OA
HETATM    5  N3  UNL     1       2.939  12.882  15.198  1.00  0.00    -0.056 N
HETATM    6  C3  UNL     1       3.983  13.238  15.954  1.00  0.00     0.691 A
HETATM    7  N4  UNL     1       4.581  12.355  16.665  1.00  0.00    -0.234 N
ATOM      8  H41 UNL     1       5.377  12.626  17.242  1.00  0.00     0.174 HD
ATOM      9  H42 UNL     1       4.228  11.399  16.627  1.00  0.00     0.174 HD
HETATM   10  N5  UNL     1       4.459  14.526  16.005  1.00  0.00    -0.174 N
ATOM     11  H5  UNL     1       5.261  14.731  16.601  1.00  0.00     0.186 HD
HETATM   12  C4  UNL     1       3.913  15.508  15.309  1.00  0.00     0.156 A
HETATM   13  N6  UNL     1       4.327  16.785  15.312  1.00  0.00    -0.323 N
ATOM     14  H6  UNL     1       5.125  17.052  15.889  1.00  0.00     0.169 HD
HETATM   15  C5  UNL     1       3.710  17.718  14.566  1.00  0.00     0.156 A
HETATM   16  N8  UNL     1       2.661  17.393  13.800  1.00  0.00    -0.282 N
ATOM     17  H8  UNL     1       2.202  18.112  13.238  1.00  0.00     0.188 HD
HETATM   18  N9  UNL     1       2.215  16.152  13.764  1.00  0.00    -0.291 N
ATOM     19  H9  UNL     1       1.415  15.907  13.181  1.00  0.00     0.187 HD
HETATM   20  C10 UNL     1       2.836  15.204  14.515  1.00  0.00     0.162 A
HETATM   21  C11 UNL     1       2.385  13.911  14.484  1.00  0.00     0.302 A
HETATM   22  O2  UNL     1       1.390  13.637  13.747  1.00  0.00    -0.264 OA
ENDROOT
BRANCH  15  23
HETATM   23  C6  UNL     1       4.180  19.119  14.568  1.00  0.00     0.120 A
HETATM   24  N7  UNL     1       4.225  19.957  15.589  1.00  0.00    -0.351 N
HETATM   25  C7  UNL     1       4.664  21.160  15.415  1.00  0.00     0.012 A
ATOM     26  H7  UNL     1       3.915  19.655  16.512  1.00  0.00     0.166 HD
HETATM   27  C8  UNL     1       4.739  22.163  16.552  1.00  0.00     0.068 C
HETATM   28  C9  UNL     1       5.069  21.518  14.154  1.00  0.00     0.076 A
HETATM   29  S1  UNL     1       4.787  20.069  13.286  1.00  0.00    -0.079 SA
ENDBRANCH  15  23
BRANCH   1  30
HETATM   30  N1  UNL     1       2.052   9.227  15.412  1.00  0.00    -0.142 NA
HETATM   31  C1  UNL     1       2.740   8.050  15.890  1.00  0.00     0.159 C
ENDBRANCH   1  30
TORSDOF 2
ENDMDL