MODEL 2
REMARK VINA RESULT: -6.747781396      2.886      4.698
REMARK  4 active torsions:
REMARK  status: ('A' for Active; 'I' for Inactive)
REMARK    1  A    between atoms: C2_2  and  O1_3
REMARK    2  A    between atoms: O1_3  and  C3_4
REMARK    3  A    between atoms: C3_4  and  O2_5
REMARK    4  A    between atoms: C3_4  and  N1_7
ROOT
HETATM    1  N1  UNL     1       2.139  12.767  14.585  1.00  0.00    -0.245 N
HETATM    2  C4  UNL     1       2.646  11.515  15.177  1.00  0.00     0.176 A
HETATM    3  N2  UNL     1       2.037  10.411  14.904  1.00  0.00    -0.280 N
ATOM      4  H2  UNL     1       1.222  10.401  14.290  1.00  0.00     0.189 HD
HETATM    5  N3  UNL     1       2.522   9.233  15.467  1.00  0.00    -0.272 N
ATOM      6  H3  UNL     1       2.064   8.342  15.273  1.00  0.00     0.189 HD
HETATM    7  C5  UNL     1       3.656   9.286  16.312  1.00  0.00     0.208 A
HETATM    8  N4  UNL     1       4.113   8.046  16.864  1.00  0.00    -0.062 NA
HETATM    9  N5  UNL     1       4.287  10.357  16.606  1.00  0.00    -0.312 N
ATOM     10  H5  UNL     1       5.100  10.341  17.221  1.00  0.00     0.170 HD
HETATM   11  C6  UNL     1       3.804  11.592  16.035  1.00  0.00     0.156 A
HETATM   12  N6  UNL     1       4.401  12.698  16.299  1.00  0.00    -0.323 N
ATOM     13  H6  UNL     1       5.216  12.700  16.912  1.00  0.00     0.169 HD
HETATM   14  C7  UNL     1       3.925  13.939  15.735  1.00  0.00     0.140 A
HETATM   15  N7  UNL     1       4.548  15.093  16.048  1.00  0.00    -0.328 N
ATOM     16  H7  UNL     1       5.361  15.049  16.663  1.00  0.00     0.168 HD
HETATM   17  C8  UNL     1       4.161  16.297  15.595  1.00  0.00     0.142 A
HETATM   18  N8  UNL     1       4.851  17.483  15.950  1.00  0.00    -0.081 NA
HETATM   19  C9  UNL     1       3.068  16.392  14.765  1.00  0.00     0.138 A
HETATM   20  C10 UNL     1       2.599  17.654  14.247  1.00  0.00     0.107 C
HETATM   21  N9  UNL     1       2.208  18.653  13.820  1.00  0.00    -0.191 NA
HETATM   22  C11 UNL     1       2.415  15.193  14.437  1.00  0.00     0.227 A
HETATM   23  O3  UNL     1       1.440  15.332  13.699  1.00  0.00    -0.284 OA
HETATM   24  C12 UNL     1       2.820  13.969  14.900  1.00  0.00     0.141 A
ENDROOT
BRANCH   1  25
HETATM   25  C3  UNL     1       1.099  12.641  13.671  1.00  0.00     0.271 C
BRANCH  25  26
HETATM   26  O1  UNL     1      -0.230  12.546  13.810  1.00  0.00    -0.317 OA
BRANCH  26  27
HETATM   27  C2  UNL     1      -0.955  11.368  13.402  1.00  0.00     0.175 C
HETATM   28  C1  UNL     1      -2.257  11.388  14.169  1.00  0.00     0.034 C
ENDBRANCH  26  27
ENDBRANCH  25  26
BRANCH  25  29
HETATM   29  O2  UNL     1       1.478  12.621  12.423  1.00  0.00    -0.326 OA
ATOM     30  H2  UNL     1       2.418  12.519  12.326  1.00  0.00     0.221 HD
ENDBRANCH  25  29
ENDBRANCH   1  25
TORSDOF 4
ENDMDL