MODEL 1
REMARK VINA RESULT: -7.081485696      0.000      0.000
REMARK  4 active torsions:
REMARK  status: ('A' for Active; 'I' for Inactive)
REMARK    1  A    between atoms: O1_2  and  C2_3
REMARK    2  A    between atoms: C2_3  and  C3_5
REMARK    3  A    between atoms: C7_13  and  N3_14
REMARK    4  A    between atoms: N5_21  and  N6_22
ROOT
HETATM    1  C3  UNL     1       4.181  18.561  14.844  1.00  0.00     0.094 A
HETATM    2  N1  UNL     1       4.364  17.409  15.348  1.00  0.00    -0.340 N
ATOM      3  H1  UNL     1       5.089  17.333  16.061  1.00  0.00     0.167 HD
HETATM    4  C4  UNL     1       3.667  16.216  15.024  1.00  0.00     0.125 A
HETATM    5  N2  UNL     1       3.936  15.038  15.616  1.00  0.00    -0.325 N
ATOM      6  H2  UNL     1       4.666  14.983  16.327  1.00  0.00     0.169 HD
HETATM    7  C5  UNL     1       3.248  13.931  15.275  1.00  0.00     0.149 A
HETATM    8  C6  UNL     1       2.249  13.966  14.312  1.00  0.00     0.105 A
HETATM    9  C7  UNL     1       1.565  12.836  13.983  1.00  0.00     0.119 A
HETATM   10  N4  UNL     1       1.939  11.691  14.667  1.00  0.00    -0.317 N
ATOM     11  H4  UNL     1       1.455  10.819  14.454  1.00  0.00     0.170 HD
HETATM   12  C8  UNL     1       2.901  11.675  15.589  1.00  0.00     0.200 A
HETATM   13  S1  UNL     1       3.217  10.219  16.305  1.00  0.00    -0.038 SA
HETATM   14  N5  UNL     1       3.587  12.776  15.929  1.00  0.00    -0.219 N
HETATM   15  C9  UNL     1       1.992  15.182  13.721  1.00  0.00     0.207 A
HETATM   16  O3  UNL     1       1.111  15.328  12.839  1.00  0.00    -0.286 OA
HETATM   17  C10 UNL     1       2.691  16.337  14.058  1.00  0.00     0.105 A
HETATM   18  C11 UNL     1       2.422  17.615  13.437  1.00  0.00     0.173 A
HETATM   19  O4  UNL     1       1.504  17.680  12.543  1.00  0.00    -0.292 OA
HETATM   20  C12 UNL     1       3.173  18.818  13.810  1.00  0.00     0.147 A
ENDROOT
BRANCH   1  21
HETATM   21  C2  UNL     1       4.983  19.724  15.277  1.00  0.00     0.305 C
HETATM   22  O2  UNL     1       6.175  19.860  14.917  1.00  0.00    -0.258 OA
BRANCH  21  23
HETATM   23  O1  UNL     1       4.445  20.706  16.097  1.00  0.00    -0.322 OA
HETATM   24  C1  UNL     1       4.550  22.073  15.710  1.00  0.00     0.213 C
ENDBRANCH  21  23
ENDBRANCH   1  21
BRANCH  14  25
HETATM   25  N6  UNL     1       4.592  12.739  16.898  1.00  0.00    -0.335 N
ATOM     26  H62 UNL     1       4.818  13.558  17.463  1.00  0.00     0.177 HD
ATOM     27  H61 UNL     1       5.139  11.897  17.082  1.00  0.00     0.177 HD
ENDBRANCH  14  25
BRANCH   9  28
HETATM   28  N3  UNL     1       0.656  12.781  13.131  1.00  0.00    -0.385 N
ATOM     29  H32 UNL     1       0.830  13.113  12.183  1.00  0.00     0.157 HD
ATOM     30  H31 UNL     1      -0.282  12.420  13.308  1.00  0.00     0.157 HD
ENDBRANCH   9  28
TORSDOF 4
ENDMDL