MODEL 1
REMARK VINA RESULT: -6.240555744      0.000      0.000
REMARK  5 active torsions:
REMARK  status: ('A' for Active; 'I' for Inactive)
REMARK    1  A    between atoms: C4_8  and  O2_9
REMARK    2  A    between atoms: C5_11  and  O3_12
REMARK    3  A    between atoms: C6_14  and  O4_15
REMARK    4  A    between atoms: C7_17  and  N2_18
REMARK    5  A    between atoms: C9_22  and  O7_23
ROOT
HETATM    1  O1  UNL     1       2.454  21.013  15.209  1.00  0.00    -0.262 OA
HETATM    2  C1  UNL     1       2.828  19.852  14.870  1.00  0.00     0.314 A
HETATM    3  N1  UNL     1       1.989  18.997  14.091  1.00  0.00    -0.312 N
ATOM      4  H1  UNL     1       1.074  19.350  13.810  1.00  0.00     0.169 HD
HETATM    5  C2  UNL     1       2.307  17.840  13.732  1.00  0.00     0.116 A
HETATM    6  S1  UNL     1       1.570  16.470  12.777  1.00  0.00    -0.068 SA
HETATM    7  C3  UNL     1       2.292  15.230  13.878  1.00  0.00     0.057 A
HETATM    8  C4  UNL     1       1.887  13.939  14.068  1.00  0.00     0.119 A
HETATM    9  C5  UNL     1       2.532  13.164  15.001  1.00  0.00     0.136 A
HETATM   10  C6  UNL     1       3.559  13.744  15.695  1.00  0.00     0.136 A
HETATM   11  C7  UNL     1       3.964  15.078  15.486  1.00  0.00     0.151 A
HETATM   12  C8  UNL     1       3.319  15.853  14.548  1.00  0.00     0.060 A
HETATM   13  C9  UNL     1       3.589  17.231  14.114  1.00  0.00     0.218 A
HETATM   14  N3  UNL     1       4.476  18.027  14.839  1.00  0.00    -0.311 N
ATOM     15  H3  UNL     1       5.398  17.659  15.073  1.00  0.00     0.166 HD
HETATM   16  C10 UNL     1       4.123  19.354  15.265  1.00  0.00     0.312 A
HETATM   17  O8  UNL     1       4.942  20.024  15.958  1.00  0.00    -0.262 OA
ENDROOT
BRANCH  11  18
HETATM   18  N2  UNL     1       5.030  15.531  16.315  1.00  0.00    -0.112 N
HETATM   19  O5  UNL     1       6.194  15.055  16.180  1.00  0.00    -0.532 OA
HETATM   20  O6  UNL     1       4.807  16.486  17.292  1.00  0.00    -0.532 OA
ENDBRANCH  11  18
BRANCH  10  21
HETATM   21  O4  UNL     1       4.213  12.953  16.646  1.00  0.00    -0.356 OA
ATOM     22  H4  UNL     1       5.125  12.746  16.482  1.00  0.00     0.218 HD
ENDBRANCH  10  21
BRANCH   9  23
HETATM   23  O3  UNL     1       2.133  11.849  15.207  1.00  0.00    -0.356 OA
ATOM     24  H3  UNL     1       1.724  11.600  16.027  1.00  0.00     0.218 HD
ENDBRANCH   9  23
BRANCH  13  25
HETATM   25  O7  UNL     1       4.234  17.037  12.821  1.00  0.00    -0.361 OA
ATOM     26  H7  UNL     1       5.148  17.187  13.029  1.00  0.00     0.213 HD
ENDBRANCH  13  25
BRANCH   8  27
HETATM   27  O2  UNL     1       0.851  13.374  13.358  1.00  0.00    -0.357 OA
ATOM     28  H2  UNL     1       0.539  12.493  13.522  1.00  0.00     0.218 HD
ENDBRANCH   8  27
TORSDOF 5
ENDMDL