MODEL 2
REMARK VINA RESULT: -7.091433108      1.397      2.583
REMARK  3 active torsions:
REMARK  status: ('A' for Active; 'I' for Inactive)
REMARK    1  A    between atoms: C5_10  and  C6_11
REMARK    2  A    between atoms: C7_16  and  N5_17
REMARK    3  A    between atoms: C8_22  and  O2_23
ROOT
HETATM    1  C1  UNL     1       1.178  10.345  14.719  1.00  0.00     0.164 C
HETATM    2  N1  UNL     1       1.718  11.681  14.769  1.00  0.00    -0.269 N
HETATM    3  C2  UNL     1       2.560  12.038  15.736  1.00  0.00     0.281 A
HETATM    4  O1  UNL     1       2.923  11.244  16.641  1.00  0.00    -0.265 OA
HETATM    5  C3  UNL     1       3.059  13.327  15.755  1.00  0.00     0.148 A
HETATM    6  N2  UNL     1       3.894  13.940  16.579  1.00  0.00    -0.328 N
ATOM      7  H2  UNL     1       4.344  13.536  17.401  1.00  0.00     0.168 HD
HETATM    8  C4  UNL     1       4.035  15.198  16.124  1.00  0.00     0.160 A
HETATM    9  S1  UNL     1       4.839  16.667  16.465  1.00  0.00    -0.045 SA
HETATM   10  C5  UNL     1       4.238  17.574  15.178  1.00  0.00     0.105 A
HETATM   11  C8  UNL     1       3.421  16.676  14.523  1.00  0.00     0.171 A
HETATM   12  N7  UNL     1       3.328  15.457  15.025  1.00  0.00    -0.253 N
HETATM   13  C9  UNL     1       2.687  14.259  14.765  1.00  0.00     0.154 A
HETATM   14  N8  UNL     1       1.831  13.820  13.822  1.00  0.00    -0.287 N
HETATM   15  C10 UNL     1       1.389  14.706  12.761  1.00  0.00     0.163 C
HETATM   16  C11 UNL     1       1.342  12.534  13.815  1.00  0.00     0.332 A
HETATM   17  O3  UNL     1       0.554  12.223  12.900  1.00  0.00    -0.246 OA
ENDROOT
BRANCH  10  18
HETATM   18  C6  UNL     1       4.542  18.976  14.870  1.00  0.00     0.157 A
HETATM   19  N3  UNL     1       5.173  19.469  13.805  1.00  0.00    -0.270 N
HETATM   20  N4  UNL     1       5.254  20.806  13.892  1.00  0.00    -0.131 N
ATOM     21  H3  UNL     1       5.541  18.910  13.035  1.00  0.00     0.189 HD
HETATM   22  C7  UNL     1       4.657  21.162  15.045  1.00  0.00     0.692 A
ATOM     23  H4  UNL     1       5.686  21.432  13.212  1.00  0.00     0.205 HD
HETATM   24  N6  UNL     1       4.229  20.040  15.632  1.00  0.00    -0.173 N
ATOM     25  H6  UNL     1       3.736  19.997  16.524  1.00  0.00     0.186 HD
BRANCH  22  26
HETATM   26  N5  UNL     1       4.556  22.383  15.445  1.00  0.00    -0.233 N
ATOM     27  H52 UNL     1       5.177  22.918  16.051  1.00  0.00     0.174 HD
ATOM     28  H51 UNL     1       3.788  22.999  15.180  1.00  0.00     0.174 HD
ENDBRANCH  22  26
ENDBRANCH  10  18
BRANCH  11  29
HETATM   29  O2  UNL     1       2.783  17.235  13.363  1.00  0.00    -0.344 OA
ATOM     30  H2  UNL     1       2.854  16.681  12.594  1.00  0.00     0.219 HD
ENDBRANCH  11  29
TORSDOF 3
ENDMDL