MODEL 2
REMARK VINA RESULT: -7.404360251      1.318      2.904
REMARK  2 active torsions:
REMARK  status: ('A' for Active; 'I' for Inactive)
REMARK    1  A    between atoms: C4_7  and  C5_8
REMARK    2  A    between atoms: C11_28  and  N9_29
ROOT
HETATM    1  C1  UNL     1       1.399  16.271  11.924  1.00  0.00     0.070 C
HETATM    2  C2  UNL     1       2.047  15.654  13.124  1.00  0.00     0.035 A
HETATM    3  N1  UNL     1       2.047  14.346  13.345  1.00  0.00    -0.338 N
ATOM      4  H1  UNL     1       1.588  13.733  12.672  1.00  0.00     0.168 HD
HETATM    5  C3  UNL     1       2.629  13.805  14.421  1.00  0.00     0.167 A
HETATM    6  O1  UNL     1       2.610  12.511  14.608  1.00  0.00    -0.272 OA
HETATM    7  C4  UNL     1       3.170  11.954  15.649  1.00  0.00     0.199 A
HETATM    8  N6  UNL     1       3.792  12.685  16.579  1.00  0.00    -0.300 N
ATOM      9  H6  UNL     1       4.221  12.224  17.381  1.00  0.00     0.171 HD
HETATM   10  C7  UNL     1       3.860  14.057  16.463  1.00  0.00     0.263 A
HETATM   11  O2  UNL     1       4.443  14.600  17.358  1.00  0.00    -0.267 OA
HETATM   12  C8  UNL     1       3.272  14.598  15.377  1.00  0.00     0.100 A
HETATM   13  C9  UNL     1       3.285  15.976  15.166  1.00  0.00     0.057 A
HETATM   14  C10 UNL     1       3.891  16.808  16.051  1.00  0.00     0.128 A
HETATM   15  N7  UNL     1       4.475  16.469  17.098  1.00  0.00    -0.384 N
ATOM     16  H71 UNL     1       4.931  17.095  17.763  1.00  0.00     0.157 HD
ATOM     17  H72 UNL     1       4.502  15.472  17.311  1.00  0.00     0.157 HD
HETATM   18  N8  UNL     1       3.855  18.151  15.764  1.00  0.00    -0.176 N
ATOM     19  H8  UNL     1       4.303  18.799  16.412  1.00  0.00     0.186 HD
HETATM   20  C11 UNL     1       3.262  18.645  14.677  1.00  0.00     0.678 A
HETATM   21  N10 UNL     1       2.669  17.816  13.814  1.00  0.00    -0.189 N
ATOM     22  H10 UNL     1       2.216  18.199  12.984  1.00  0.00     0.184 HD
HETATM   23  C12 UNL     1       2.657  16.509  14.013  1.00  0.00     0.086 A
ENDROOT
BRANCH   7  24
HETATM   24  C5  UNL     1       3.083  10.506  15.746  1.00  0.00     0.187 A
HETATM   25  N2  UNL     1       2.121   9.778  15.152  1.00  0.00    -0.263 N
HETATM   26  N3  UNL     1       2.336   8.506  15.440  1.00  0.00    -0.003 NA
ATOM     27  H2  UNL     1       1.359  10.143  14.580  1.00  0.00     0.186 HD
HETATM   28  N4  UNL     1       3.409   8.402  16.202  1.00  0.00    -0.221 N
HETATM   29  C6  UNL     1       3.941   7.160  16.709  1.00  0.00     0.197 C
HETATM   30  N5  UNL     1       3.854   9.636  16.380  1.00  0.00    -0.266 N
ATOM     31  H5  UNL     1       4.678   9.883  16.929  1.00  0.00     0.190 HD
ENDBRANCH   7  24
BRANCH  20  32
HETATM   32  N9  UNL     1       3.282  19.905  14.497  1.00  0.00    -0.234 N
ATOM     33  H92 UNL     1       3.882  20.520  15.046  1.00  0.00     0.174 HD
ATOM     34  H91 UNL     1       2.674  20.302  13.780  1.00  0.00     0.174 HD
ENDBRANCH  20  32
TORSDOF 2
ENDMDL