MODEL 1
REMARK VINA RESULT: -7.798817470      0.000      0.000
REMARK  9 active torsions:
REMARK  status: ('A' for Active; 'I' for Inactive)
REMARK    1  A    between atoms: O1_2  and  C2_3
REMARK    2  A    between atoms: C2_3  and  C3_5
REMARK    3  A    between atoms: N1_7  and  N2_9
REMARK    4  A    between atoms: N2_9  and  C5_11
REMARK    5  A    between atoms: C7_18  and  C8_19
REMARK    6  A    between atoms: C9_23  and  C10_24
REMARK    7  A    between atoms: C11_27  and  C12_28
REMARK    8  A    between atoms: C12_28  and  O6_29
REMARK    9  A    between atoms: O6_29  and  C13_30
ROOT
HETATM    1  C5  UNL     1      26.582   1.951 -24.966  1.00  0.00     0.154 A
HETATM    2  N3  UNL     1      25.271   1.843 -24.723  1.00  0.00    -0.291 N
ATOM      3  H3  UNL     1      24.760   0.961 -24.707  1.00  0.00     0.172 HD
HETATM    4  C6  UNL     1      24.718   3.038 -24.503  1.00  0.00     0.326 A
HETATM    5  O3  UNL     1      23.516   3.257 -24.252  1.00  0.00    -0.247 OA
HETATM    6  N4  UNL     1      25.757   3.916 -24.622  1.00  0.00    -0.303 N
ATOM      7  H4  UNL     1      25.665   4.925 -24.511  1.00  0.00     0.171 HD
HETATM    8  C7  UNL     1      26.900   3.300 -24.900  1.00  0.00     0.119 A
ENDROOT
BRANCH   8   9
HETATM    9  C8  UNL     1      28.235   3.887 -25.103  1.00  0.00     0.140 A
HETATM   10  O4  UNL     1      29.124   3.978 -24.144  1.00  0.00    -0.234 OA
HETATM   11  N5  UNL     1      30.203   4.517 -24.544  1.00  0.00    -0.255 N
HETATM   12  C9  UNL     1      30.104   4.846 -25.889  1.00  0.00     0.131 A
ATOM     13  H5  UNL     1      31.023   4.684 -23.963  1.00  0.00     0.195 HD
HETATM   14  C11 UNL     1      28.847   4.437 -26.226  1.00  0.00     0.038 A
BRANCH  12  15
HETATM   15  C10 UNL     1      31.196   5.464 -26.565  1.00  0.00     0.283 C
HETATM   16  N6  UNL     1      32.254   4.904 -27.276  1.00  0.00    -0.056 NA
HETATM   17  O5  UNL     1      31.243   6.763 -26.536  1.00  0.00    -0.269 OA
ENDBRANCH  12  15
BRANCH  14  18
HETATM   18  C12 UNL     1      28.163   4.514 -27.503  1.00  0.00     0.226 C
BRANCH  18  19
HETATM   19  O6  UNL     1      28.569   3.675 -28.535  1.00  0.00    -0.291 OA
BRANCH  19  20
HETATM   20  C13 UNL     1      28.583   2.295 -28.348  1.00  0.00     0.333 C
HETATM   21  O7  UNL     1      27.512   1.648 -28.456  1.00  0.00    -0.624 OA
HETATM   22  O8  UNL     1      29.736   1.599 -28.044  1.00  0.00    -0.624 OA
ENDBRANCH  19  20
ENDBRANCH  18  19
ENDBRANCH  14  18
ENDBRANCH   8   9
BRANCH   1  23
HETATM   23  N2  UNL     1      27.427   0.861 -25.230  1.00  0.00    -0.283 N
ATOM     24  H2  UNL     1      27.045  -0.024 -25.564  1.00  0.00     0.188 HD
BRANCH  23  25
HETATM   25  N1  UNL     1      28.812   1.015 -25.025  1.00  0.00    -0.298 N
HETATM   26  C3  UNL     1      29.446   0.472 -24.072  1.00  0.00     0.097 C
HETATM   27  C4  UNL     1      28.722  -0.377 -23.104  1.00  0.00     0.076 C
ATOM     28  H1  UNL     1      29.333   1.596 -25.680  1.00  0.00     0.187 HD
BRANCH  26  29
HETATM   29  C2  UNL     1      30.873   0.685 -23.936  1.00  0.00     0.306 C
HETATM   30  O2  UNL     1      31.621  -0.115 -23.293  1.00  0.00    -0.258 OA
BRANCH  29  31
HETATM   31  O1  UNL     1      31.515   1.781 -24.503  1.00  0.00    -0.322 OA
HETATM   32  C1  UNL     1      32.357   1.628 -25.627  1.00  0.00     0.213 C
ENDBRANCH  29  31
ENDBRANCH  26  29
ENDBRANCH  23  25
ENDBRANCH   1  23
TORSDOF 9
ENDMDL