MODEL 3
REMARK VINA RESULT: -7.128386012      4.505      8.146
REMARK  11 active torsions:
REMARK  status: ('A' for Active; 'I' for Inactive)
REMARK    1  A    between atoms: O1_2  and  C2_3
REMARK    2  A    between atoms: C3_8  and  C4_9
REMARK    3  A    between atoms: N3_10  and  N4_12
REMARK       I    between atoms: N4_12  and  C5_14
REMARK    4  A    between atoms: C5_14  and  C6_16
REMARK    5  A    between atoms: C8_20  and  N6_21
REMARK    6  A    between atoms: C9_26  and  N8_27
REMARK    7  A    between atoms: N8_27  and  C10_29
REMARK    8  A    between atoms: C10_29  and  C11_30
REMARK    9  A    between atoms: C11_30  and  O3_31
REMARK   10  A    between atoms: O3_31  and  N9_32
REMARK   11  A    between atoms: C13_36  and  O6_37
ROOT
HETATM    1  C6  UNL     1      31.902   1.052 -22.347  1.00  0.00     0.093 A
HETATM    2  C7  UNL     1      33.092   1.358 -21.831  1.00  0.00     0.127 A
HETATM    3  N5  UNL     1      33.236   1.648 -20.516  1.00  0.00    -0.201 N
ATOM      4  H5  UNL     1      34.151   1.880 -20.129  1.00  0.00     0.183 HD
HETATM    5  C8  UNL     1      32.134   1.621 -19.726  1.00  0.00     0.677 A
HETATM    6  N7  UNL     1      30.894   1.316 -20.196  1.00  0.00    -0.176 N
ATOM      7  H7  UNL     1      30.089   1.306 -19.571  1.00  0.00     0.186 HD
HETATM    8  C9  UNL     1      30.751   1.026 -21.510  1.00  0.00     0.134 A
ENDROOT
BRANCH   1   9
HETATM    9  C5  UNL     1      31.740   0.767 -23.778  1.00  0.00     0.275 C
HETATM   10  N4  UNL     1      32.124   1.724 -24.713  1.00  0.00    -0.266 N
ATOM     11  H4  UNL     1      32.525   2.618 -24.430  1.00  0.00     0.190 HD
HETATM   12  O2  UNL     1      31.236  -0.387 -24.085  1.00  0.00    -0.266 OA
BRANCH  10  13
HETATM   13  N3  UNL     1      31.929   1.392 -26.089  1.00  0.00    -0.307 N
HETATM   14  C4  UNL     1      30.829   1.860 -26.588  1.00  0.00     0.138 C
ATOM     15  H3  UNL     1      32.594   0.837 -26.629  1.00  0.00     0.186 HD
BRANCH  14  16
HETATM   16  C3  UNL     1      30.538   1.571 -28.004  1.00  0.00     0.067 A
HETATM   17  N2  UNL     1      29.373   1.066 -28.393  1.00  0.00    -0.297 N
HETATM   18  N1  UNL     1      29.100   0.805 -29.685  1.00  0.00    -0.277 N
ATOM     19  H2  UNL     1      28.660   0.870 -27.689  1.00  0.00     0.187 HD
HETATM   20  C2  UNL     1      30.019   1.051 -30.635  1.00  0.00     0.190 A
ATOM     21  H1  UNL     1      28.192   0.419 -29.944  1.00  0.00     0.189 HD
HETATM   22  C13 UNL     1      31.254   1.573 -30.316  1.00  0.00     0.120 A
HETATM   23  C12 UNL     1      31.497   1.829 -28.979  1.00  0.00     0.073 A
BRANCH  20  24
HETATM   24  O1  UNL     1      29.743   0.778 -31.989  1.00  0.00    -0.338 OA
HETATM   25  C1  UNL     1      28.395   0.829 -32.488  1.00  0.00     0.211 C
ENDBRANCH  20  24
BRANCH  22  26
HETATM   26  O6  UNL     1      32.133   1.791 -31.355  1.00  0.00    -0.357 OA
ATOM     27  H6  UNL     1      32.252   2.689 -31.640  1.00  0.00     0.218 HD
ENDBRANCH  22  26
ENDBRANCH  14  16
ENDBRANCH  10  13
ENDBRANCH   1   9
BRANCH   8  28
HETATM   28  N8  UNL     1      29.692   0.699 -22.013  1.00  0.00    -0.373 N
ATOM     29  H8  UNL     1      29.989   0.011 -22.706  1.00  0.00     0.161 HD
BRANCH  28  30
HETATM   30  C10 UNL     1      28.371   0.714 -22.189  1.00  0.00     0.150 C
BRANCH  30  31
HETATM   31  C11 UNL     1      28.009   0.562 -23.682  1.00  0.00     0.227 C
BRANCH  31  32
HETATM   32  O3  UNL     1      27.811   1.833 -24.163  1.00  0.00    -0.220 OA
BRANCH  32  33
HETATM   33  N9  UNL     1      27.034   2.315 -25.148  1.00  0.00     0.004 N
HETATM   34  O4  UNL     1      27.379   2.188 -26.355  1.00  0.00    -0.511 OA
HETATM   35  O5  UNL     1      25.814   2.961 -24.886  1.00  0.00    -0.511 OA
ENDBRANCH  32  33
ENDBRANCH  31  32
ENDBRANCH  30  31
ENDBRANCH  28  30
ENDBRANCH   8  28
BRANCH   5  36
HETATM   36  N6  UNL     1      32.280   1.899 -18.497  1.00  0.00    -0.234 N
ATOM     37  H62 UNL     1      31.468   1.877 -17.880  1.00  0.00     0.174 HD
ATOM     38  H61 UNL     1      33.216   2.139 -18.171  1.00  0.00     0.174 HD
ENDBRANCH   5  36
TORSDOF 11
ENDMDL