MODEL 3
REMARK VINA RESULT: -7.568935750      2.931      9.675
REMARK  11 active torsions:
REMARK  status: ('A' for Active; 'I' for Inactive)
REMARK    1  A    between atoms: N1_2  and  N2_4
REMARK    2  A    between atoms: N3_6  and  O1_7
REMARK    3  A    between atoms: N3_6  and  C2_9
REMARK    4  A    between atoms: C3_12  and  C4_13
REMARK    5  A    between atoms: C5_16  and  C6_17
REMARK    6  A    between atoms: N5_18  and  N6_20
REMARK       I    between atoms: N6_20  and  C7_22
REMARK    7  A    between atoms: C7_22  and  C8_24
REMARK    8  A    between atoms: C8_24  and  O5_25
REMARK    9  A    between atoms: O5_25  and  C9_26
REMARK   10  A    between atoms: C9_26  and  C10_28
REMARK   11  A    between atoms: C10_28  and  O7_31
ROOT
HETATM    1  C2  UNL     1      26.676   2.467 -24.902  1.00  0.00     0.197 A
HETATM    2  N4  UNL     1      27.537   1.877 -24.103  1.00  0.00    -0.327 N
ATOM      3  H4  UNL     1      27.247   1.594 -23.167  1.00  0.00     0.168 HD
HETATM    4  C3  UNL     1      28.753   1.652 -24.493  1.00  0.00     0.130 A
HETATM    5  C5  UNL     1      29.104   2.047 -25.754  1.00  0.00     0.059 A
HETATM    6  S1  UNL     1      27.605   2.737 -26.305  1.00  0.00    -0.046 SA
ENDROOT
BRANCH   5   7
HETATM    7  C6  UNL     1      30.338   1.964 -26.513  1.00  0.00     0.128 C
HETATM    8  N5  UNL     1      30.358   1.238 -27.570  1.00  0.00    -0.308 N
ATOM      9  H5  UNL     1      29.518   0.737 -27.860  1.00  0.00     0.186 HD
BRANCH   8  10
HETATM   10  N6  UNL     1      31.536   1.133 -28.332  1.00  0.00    -0.269 N
HETATM   11  C7  UNL     1      31.434   1.123 -29.729  1.00  0.00     0.260 C
HETATM   12  O4  UNL     1      30.279   1.202 -30.246  1.00  0.00    -0.269 OA
ATOM     13  H6  UNL     1      32.446   1.067 -27.876  1.00  0.00     0.190 HD
BRANCH  11  14
HETATM   14  C8  UNL     1      32.543   1.026 -30.698  1.00  0.00     0.283 C
BRANCH  14  15
HETATM   15  O5  UNL     1      33.113   2.290 -30.903  1.00  0.00    -0.310 OA
BRANCH  15  16
HETATM   16  C9  UNL     1      34.332   2.712 -30.415  1.00  0.00     0.293 C
HETATM   17  O6  UNL     1      35.344   2.592 -31.164  1.00  0.00    -0.262 OA
BRANCH  16  18
HETATM   18  C10 UNL     1      34.488   3.301 -29.036  1.00  0.00     0.138 C
HETATM   19  C11 UNL     1      35.745   4.149 -28.978  1.00  0.00     0.056 C
HETATM   20  C12 UNL     1      33.293   4.164 -28.679  1.00  0.00     0.056 C
BRANCH  18  21
HETATM   21  O7  UNL     1      34.576   2.233 -28.157  1.00  0.00    -0.380 OA
ATOM     22  H7  UNL     1      34.047   1.535 -28.525  1.00  0.00     0.211 HD
ENDBRANCH  18  21
ENDBRANCH  16  18
ENDBRANCH  15  16
ENDBRANCH  14  15
ENDBRANCH  11  14
ENDBRANCH   8  10
ENDBRANCH   5   7
BRANCH   4  23
HETATM   23  C4  UNL     1      29.726   0.984 -23.586  1.00  0.00     0.228 C
HETATM   24  O2  UNL     1      30.216   1.529 -22.595  1.00  0.00    -0.643 OA
HETATM   25  O3  UNL     1      30.137  -0.341 -23.830  1.00  0.00    -0.643 OA
ENDBRANCH   4  23
BRANCH   1  26
HETATM   26  N3  UNL     1      25.288   2.801 -24.646  1.00  0.00    -0.124 N
HETATM   27  N2  UNL     1      24.908   3.983 -24.528  1.00  0.00    -0.219 N
ATOM     28  H2  UNL     1      25.584   4.743 -24.612  1.00  0.00     0.210 HD
BRANCH  27  29
HETATM   29  N1  UNL     1      23.564   4.274 -24.280  1.00  0.00    -0.325 N
HETATM   30  C1  UNL     1      22.724   4.671 -25.414  1.00  0.00     0.169 C
ATOM     31  H1  UNL     1      23.179   4.212 -23.338  1.00  0.00     0.181 HD
ENDBRANCH  27  29
BRANCH  26  32
HETATM   32  O1  UNL     1      24.423   1.738 -24.540  1.00  0.00    -0.265 OA
ATOM     33  H1  UNL     1      24.629   0.879 -24.889  1.00  0.00     0.247 HD
ENDBRANCH  26  32
ENDBRANCH   1  26
TORSDOF 11
ENDMDL