MODEL 1
REMARK VINA RESULT: -8.758494659      0.000      0.000
REMARK  12 active torsions:
REMARK  status: ('A' for Active; 'I' for Inactive)
REMARK    1  A    between atoms: N1_1  and  C1_4
REMARK    2  A    between atoms: N4_9  and  C2_10
REMARK    3  A    between atoms: C2_10  and  C3_11
REMARK    4  A    between atoms: C3_11  and  O1_12
REMARK    5  A    between atoms: O1_12  and  C4_13
REMARK    6  A    between atoms: N5_15  and  C6_16
REMARK    7  A    between atoms: C6_16  and  C7_17
REMARK    8  A    between atoms: C7_17  and  C8_18
REMARK    9  A    between atoms: C8_18  and  C9_19
REMARK   10  A    between atoms: C13_23  and  O2_24
REMARK   11  A    between atoms: C15_31  and  N8_32
REMARK   12  A    between atoms: C16_35  and  N9_36
ROOT
HETATM    1  C2  UNL     1      28.374   4.817 -25.967  1.00  0.00     0.179 C
ENDROOT
BRANCH   1   2
HETATM    2  N4  UNL     1      28.358   3.435 -25.564  1.00  0.00    -0.257 N
HETATM    3  N3  UNL     1      29.545   2.831 -25.610  1.00  0.00    -0.225 N
HETATM    4  N2  UNL     1      29.998   1.765 -24.931  1.00  0.00    -0.118 N
ATOM      5  H3  UNL     1      30.212   3.242 -26.263  1.00  0.00     0.209 HD
HETATM    6  C1  UNL     1      29.304   0.627 -24.703  1.00  0.00     0.693 C
ATOM      7  H2  UNL     1      30.945   1.819 -24.555  1.00  0.00     0.207 HD
HETATM    8  N10 UNL     1      27.967   0.541 -24.606  1.00  0.00    -0.172 N
HETATM    9  C16 UNL     1      27.050   1.489 -24.832  1.00  0.00     0.160 C
ATOM     10  H10 UNL     1      27.602  -0.369 -24.322  1.00  0.00     0.186 HD
HETATM   11  C15 UNL     1      27.213   2.848 -25.179  1.00  0.00     0.162 C
BRANCH   6  12
HETATM   12  N1  UNL     1      29.973  -0.481 -24.565  1.00  0.00    -0.233 N
ATOM     13  H12 UNL     1      29.439  -1.304 -24.282  1.00  0.00     0.174 HD
ATOM     14  H11 UNL     1      30.977  -0.463 -24.745  1.00  0.00     0.174 HD
ENDBRANCH   6  12
BRANCH   9  15
HETATM   15  N9  UNL     1      25.803   1.156 -24.728  1.00  0.00    -0.382 N
ATOM     16  H92 UNL     1      25.316   0.875 -25.579  1.00  0.00     0.157 HD
ATOM     17  H91 UNL     1      25.464   1.223 -23.769  1.00  0.00     0.157 HD
ENDBRANCH   9  15
BRANCH  11  18
HETATM   18  N8  UNL     1      26.184   3.567 -25.125  1.00  0.00    -0.381 N
ATOM     19  H82 UNL     1      26.325   4.572 -25.232  1.00  0.00     0.157 HD
ATOM     20  H81 UNL     1      25.290   3.098 -24.976  1.00  0.00     0.157 HD
ENDBRANCH  11  18
ENDBRANCH   1   2
BRANCH   1  21
HETATM   21  C3  UNL     1      28.620   5.024 -27.453  1.00  0.00     0.199 C
BRANCH  21  22
HETATM   22  O1  UNL     1      28.476   4.008 -28.243  1.00  0.00    -0.332 OA
BRANCH  22  23
HETATM   23  C4  UNL     1      28.334   3.004 -29.025  1.00  0.00     0.175 A
HETATM   24  C5  UNL     1      28.598   2.888 -30.400  1.00  0.00     0.169 A
HETATM   25  N5  UNL     1      28.300   1.657 -30.801  1.00  0.00    -0.281 N
HETATM   26  N6  UNL     1      27.865   0.988 -29.765  1.00  0.00    -0.239 N
HETATM   27  N7  UNL     1      27.870   1.751 -28.700  1.00  0.00    -0.264 N
ATOM     28  H6  UNL     1      27.564   0.014 -29.783  1.00  0.00     0.208 HD
ATOM     29  H7  UNL     1      27.576   1.459 -27.768  1.00  0.00     0.190 HD
BRANCH  25  30
HETATM   30  C6  UNL     1      28.450   1.150 -32.207  1.00  0.00     0.177 C
BRANCH  30  31
HETATM   31  C7  UNL     1      29.836   1.271 -32.605  1.00  0.00    -0.004 C
BRANCH  31  32
HETATM   32  C8  UNL     1      30.900   0.784 -32.100  1.00  0.00     0.009 C
BRANCH  32  33
HETATM   33  C9  UNL     1      31.697   1.232 -30.988  1.00  0.00    -0.034 A
HETATM   34  C10 UNL     1      32.829   2.039 -31.260  1.00  0.00     0.011 A
HETATM   35  C11 UNL     1      33.633   2.601 -30.328  1.00  0.00     0.004 A
HETATM   36  C12 UNL     1      33.332   2.373 -29.002  1.00  0.00     0.036 A
HETATM   37  C13 UNL     1      32.247   1.600 -28.666  1.00  0.00     0.066 A
HETATM   38  C14 UNL     1      31.446   1.042 -29.659  1.00  0.00     0.047 A
BRANCH  37  39
HETATM   39  O2  UNL     1      31.966   1.385 -27.325  1.00  0.00    -0.361 OA
ATOM     40  H2  UNL     1      31.176   0.913 -27.091  1.00  0.00     0.217 HD
ENDBRANCH  37  39
ENDBRANCH  32  33
ENDBRANCH  31  32
ENDBRANCH  30  31
ENDBRANCH  25  30
ENDBRANCH  22  23
ENDBRANCH  21  22
ENDBRANCH   1  21
TORSDOF 12
ENDMDL