MODEL 2
REMARK VINA RESULT: -8.565388192      1.109      1.392
REMARK  9 active torsions:
REMARK  status: ('A' for Active; 'I' for Inactive)
REMARK    1  A    between atoms: C2_3  and  N2_4
REMARK    2  A    between atoms: N2_4  and  N3_6
REMARK    3  A    between atoms: N3_6  and  C3_8
REMARK    4  A    between atoms: C4_11  and  N5_12
REMARK    5  A    between atoms: C5_17  and  C6_18
REMARK    6  A    between atoms: N8_20  and  N9_22
REMARK    7  A    between atoms: C7_24  and  C8_25
REMARK    8  A    between atoms: C11_28  and  N10_29
REMARK    9  A    between atoms: C12_33  and  N11_34
ROOT
HETATM    1  N1  UNL     1      22.116   4.372 -26.115  1.00  0.00    -0.196 NA
HETATM    2  C1  UNL     1      22.806   3.973 -25.278  1.00  0.00     0.080 C
HETATM    3  C2  UNL     1      23.717   3.455 -24.208  1.00  0.00     0.263 C
ENDROOT
BRANCH   3   4
HETATM    4  N2  UNL     1      24.610   2.443 -24.723  1.00  0.00    -0.322 N
ATOM      5  H2  UNL     1      24.173   1.562 -24.996  1.00  0.00     0.181 HD
BRANCH   4   6
HETATM    6  N3  UNL     1      25.908   2.512 -24.884  1.00  0.00    -0.286 N
ATOM      7  H3  UNL     1      26.163   3.442 -25.216  1.00  0.00     0.188 HD
BRANCH   6   8
HETATM    8  C3  UNL     1      26.939   1.812 -24.765  1.00  0.00     0.171 A
HETATM    9  N4  UNL     1      27.103   0.770 -23.943  1.00  0.00    -0.173 N
HETATM   10  C4  UNL     1      28.245   0.062 -23.871  1.00  0.00     0.678 A
ATOM     11  H4  UNL     1      26.325   0.498 -23.342  1.00  0.00     0.186 HD
HETATM   12  N6  UNL     1      29.276   0.398 -24.644  1.00  0.00    -0.186 N
HETATM   13  C5  UNL     1      29.241   1.440 -25.526  1.00  0.00     0.128 A
ATOM     14  H6  UNL     1      30.133  -0.150 -24.574  1.00  0.00     0.184 HD
HETATM   15  C12 UNL     1      28.073   2.132 -25.575  1.00  0.00     0.179 A
BRANCH  10  16
HETATM   16  N5  UNL     1      28.348  -0.945 -23.051  1.00  0.00    -0.234 N
ATOM     17  H52 UNL     1      28.041  -0.848 -22.083  1.00  0.00     0.174 HD
ATOM     18  H51 UNL     1      28.734  -1.834 -23.369  1.00  0.00     0.174 HD
ENDBRANCH  10  16
BRANCH  13  19
HETATM   19  C6  UNL     1      30.421   1.742 -26.303  1.00  0.00     0.161 C
HETATM   20  N7  UNL     1      31.445   2.585 -25.833  1.00  0.00    -0.079 NA
HETATM   21  N8  UNL     1      30.516   1.181 -27.479  1.00  0.00    -0.286 N
ATOM     22  H8  UNL     1      29.760   0.567 -27.783  1.00  0.00     0.188 HD
BRANCH  21  23
HETATM   23  N9  UNL     1      31.576   1.373 -28.326  1.00  0.00    -0.308 N
HETATM   24  C7  UNL     1      31.609   1.252 -29.586  1.00  0.00     0.144 C
ATOM     25  H9  UNL     1      32.453   1.648 -27.884  1.00  0.00     0.186 HD
BRANCH  24  26
HETATM   26  C8  UNL     1      32.889   1.518 -30.275  1.00  0.00     0.095 A
HETATM   27  C9  UNL     1      33.050   2.011 -31.552  1.00  0.00     0.043 A
HETATM   28  C10 UNL     1      34.380   2.105 -31.794  1.00  0.00     0.065 A
HETATM   29  C11 UNL     1      35.023   1.669 -30.664  1.00  0.00     0.215 A
HETATM   30  O3  UNL     1      34.096   1.336 -29.800  1.00  0.00    -0.287 OA
BRANCH  29  31
HETATM   31  N10 UNL     1      36.448   1.597 -30.476  1.00  0.00    -0.090 N
HETATM   32  O1  UNL     1      37.022   2.472 -29.833  1.00  0.00    -0.530 OA
HETATM   33  O2  UNL     1      37.180   0.568 -31.002  1.00  0.00    -0.530 OA
ENDBRANCH  29  31
ENDBRANCH  24  26
ENDBRANCH  21  23
ENDBRANCH  13  19
BRANCH  15  34
HETATM   34  N11 UNL     1      27.879   3.211 -26.459  1.00  0.00    -0.109 N
HETATM   35  O4  UNL     1      27.633   3.009 -27.661  1.00  0.00    -0.532 OA
HETATM   36  O5  UNL     1      27.968   4.491 -26.016  1.00  0.00    -0.532 OA
ENDBRANCH  15  34
ENDBRANCH   6   8
ENDBRANCH   4   6
ENDBRANCH   3   4
TORSDOF 9
ENDMDL