MODEL 3
REMARK VINA RESULT: -8.252576602      1.953      3.396
REMARK  8 active torsions:
REMARK  status: ('A' for Active; 'I' for Inactive)
REMARK    1  A    between atoms: O1_2  and  C2_3
REMARK    2  A    between atoms: C5_8  and  N1_9
REMARK    3  A    between atoms: N1_9  and  O4_11
REMARK    4  A    between atoms: O4_11  and  C6_12
REMARK    5  A    between atoms: C6_12  and  C7_13
REMARK    6  A    between atoms: C10_25  and  N6_26
REMARK    7  A    between atoms: N6_26  and  C11_28
REMARK    8  A    between atoms: C11_28  and  C12_29
ROOT
HETATM    1  C2  UNL     1      30.338   4.005 -27.033  1.00  0.00     0.217 A
HETATM    2  O2  UNL     1      29.228   4.701 -26.996  1.00  0.00    -0.249 OA
HETATM    3  C3  UNL     1      28.124   4.304 -26.411  1.00  0.00     0.306 A
HETATM    4  O3  UNL     1      27.070   5.002 -26.395  1.00  0.00    -0.259 OA
HETATM    5  C4  UNL     1      28.071   3.087 -25.781  1.00  0.00     0.115 A
HETATM    6  C5  UNL     1      26.910   2.672 -25.167  1.00  0.00     0.159 A
HETATM    7  N3  UNL     1      26.915   1.470 -24.564  1.00  0.00    -0.174 N
ATOM      8  H3  UNL     1      26.073   1.130 -24.099  1.00  0.00     0.186 HD
HETATM    9  C8  UNL     1      28.043   0.707 -24.573  1.00  0.00     0.678 A
HETATM   10  N4  UNL     1      28.074  -0.450 -24.003  1.00  0.00    -0.234 N
ATOM     11  H41 UNL     1      28.919  -1.022 -24.010  1.00  0.00     0.174 HD
ATOM     12  H42 UNL     1      27.215  -0.759 -23.547  1.00  0.00     0.174 HD
HETATM   13  N5  UNL     1      29.176   1.114 -25.173  1.00  0.00    -0.189 N
ATOM     14  H5  UNL     1      30.002   0.517 -25.161  1.00  0.00     0.184 HD
HETATM   15  C9  UNL     1      29.221   2.310 -25.791  1.00  0.00     0.100 A
HETATM   16  C10 UNL     1      30.366   2.770 -26.422  1.00  0.00     0.116 A
ENDROOT
BRANCH  16  17
HETATM   17  N6  UNL     1      31.535   1.979 -26.432  1.00  0.00    -0.378 N
ATOM     18  H6  UNL     1      31.942   1.726 -25.532  1.00  0.00     0.160 HD
BRANCH  17  19
HETATM   19  C11 UNL     1      32.188   1.508 -27.611  1.00  0.00     0.181 C
BRANCH  19  20
HETATM   20  C12 UNL     1      31.221   1.192 -28.693  1.00  0.00     0.076 A
HETATM   21  N7  UNL     1      30.034   0.562 -28.605  1.00  0.00    -0.242 N
HETATM   22  O6  UNL     1      29.509   0.493 -29.795  1.00  0.00    -0.157 OA
ATOM     23  H7  UNL     1      29.616   0.199 -27.748  1.00  0.00     0.196 HD
HETATM   24  N8  UNL     1      30.285   1.044 -30.663  1.00  0.00    -0.244 N
HETATM   25  C13 UNL     1      31.380   1.501 -30.017  1.00  0.00     0.056 A
ATOM     26  H8  UNL     1      30.105   1.121 -31.664  1.00  0.00     0.196 HD
HETATM   27  C14 UNL     1      32.528   2.201 -30.623  1.00  0.00     0.072 C
ENDBRANCH  19  20
ENDBRANCH  17  19
ENDBRANCH  16  17
BRANCH   1  28
HETATM   28  O1  UNL     1      31.474   4.496 -27.677  1.00  0.00    -0.334 OA
HETATM   29  C1  UNL     1      32.397   5.343 -27.022  1.00  0.00     0.212 C
ENDBRANCH   1  28
BRANCH   6  30
HETATM   30  N1  UNL     1      25.835   3.420 -25.168  1.00  0.00    -0.249 N
ATOM     31  H1  UNL     1      25.920   4.414 -25.381  1.00  0.00     0.196 HD
BRANCH  30  32
HETATM   32  O4  UNL     1      24.601   2.900 -24.890  1.00  0.00    -0.270 OA
BRANCH  32  33
HETATM   33  C6  UNL     1      23.692   3.769 -24.202  1.00  0.00     0.300 C
BRANCH  33  34
HETATM   34  C7  UNL     1      22.672   4.270 -25.127  1.00  0.00     0.257 C
HETATM   35  N2  UNL     1      22.336   5.646 -25.178  1.00  0.00    -0.060 NA
HETATM   36  O5  UNL     1      22.082   3.471 -25.885  1.00  0.00    -0.274 OA
ENDBRANCH  33  34
ENDBRANCH  32  33
ENDBRANCH  30  32
ENDBRANCH   6  30
TORSDOF 8
ENDMDL