MODEL 2
REMARK VINA RESULT: -8.197598057      1.581      1.826
REMARK  10 active torsions:
REMARK  status: ('A' for Active; 'I' for Inactive)
REMARK    1  A    between atoms: C2_2  and  O1_3
REMARK    2  A    between atoms: O1_3  and  C3_4
REMARK       I    between atoms: C3_4  and  N1_6
REMARK    3  A    between atoms: C4_8  and  C6_10
REMARK       I    between atoms: C6_10  and  N2_12
REMARK    4  A    between atoms: N2_12  and  N3_14
REMARK    5  A    between atoms: N3_14  and  N4_16
REMARK    6  A    between atoms: N4_16  and  C7_18
REMARK    7  A    between atoms: C9_20  and  C10_21
REMARK    8  A    between atoms: C10_21  and  O4_22
REMARK    9  A    between atoms: C10_21  and  N5_24
REMARK   10  A    between atoms: C13_27  and  O5_28
ROOT
HETATM    1  N4  UNL     1      26.407   1.864 -24.986  1.00  0.00    -0.271 N
ATOM      2  H4  UNL     1      26.169   1.119 -25.641  1.00  0.00     0.190 HD
ENDROOT
BRANCH   1   3
HETATM    3  N3  UNL     1      25.434   2.591 -24.333  1.00  0.00    -0.238 N
ATOM      4  H3  UNL     1      25.188   2.409 -23.360  1.00  0.00     0.208 HD
BRANCH   3   5
HETATM    5  N2  UNL     1      24.817   3.574 -25.065  1.00  0.00    -0.250 N
HETATM    6  C6  UNL     1      23.420   3.839 -25.048  1.00  0.00     0.283 C
HETATM    7  O3  UNL     1      22.712   3.116 -24.308  1.00  0.00    -0.265 OA
ATOM      8  H2  UNL     1      25.402   4.157 -25.664  1.00  0.00     0.192 HD
BRANCH   6   9
HETATM    9  C4  UNL     1      22.803   4.882 -25.834  1.00  0.00     0.079 C
HETATM   10  N1  UNL     1      23.471   5.709 -26.563  1.00  0.00    -0.301 N
HETATM   11  C3  UNL     1      22.817   6.717 -27.316  1.00  0.00     0.365 C
ATOM     12  H1  UNL     1      24.488   5.638 -26.599  1.00  0.00     0.171 HD
HETATM   13  O2  UNL     1      23.252   7.919 -27.314  1.00  0.00    -0.238 OA
HETATM   14  C5  UNL     1      21.321   5.025 -25.811  1.00  0.00     0.074 C
BRANCH  11  15
HETATM   15  O1  UNL     1      21.690   6.504 -28.091  1.00  0.00    -0.304 OA
BRANCH  15  16
HETATM   16  C2  UNL     1      21.447   7.266 -29.273  1.00  0.00     0.176 C
HETATM   17  C1  UNL     1      20.429   8.365 -29.029  1.00  0.00     0.034 C
ENDBRANCH  15  16
ENDBRANCH  11  15
ENDBRANCH   6   9
ENDBRANCH   3   5
ENDBRANCH   1   3
BRANCH   1  18
HETATM   18  C7  UNL     1      27.772   2.207 -24.698  1.00  0.00     0.126 A
HETATM   19  C8  UNL     1      28.291   3.444 -24.983  1.00  0.00     0.064 A
HETATM   20  C9  UNL     1      29.617   3.753 -24.694  1.00  0.00     0.042 A
HETATM   21  C13 UNL     1      30.398   2.787 -24.113  1.00  0.00     0.145 A
HETATM   22  C14 UNL     1      29.796   1.546 -23.852  1.00  0.00     0.282 A
HETATM   23  O6  UNL     1      30.532   0.650 -23.311  1.00  0.00    -0.265 OA
HETATM   24  N6  UNL     1      28.528   1.254 -24.130  1.00  0.00    -0.301 N
HETATM   25  C15 UNL     1      27.955  -0.056 -23.837  1.00  0.00     0.161 C
BRANCH  20  26
HETATM   26  C10 UNL     1      30.128   5.093 -25.037  1.00  0.00     0.393 C
BRANCH  26  27
HETATM   27  O4  UNL     1      31.031   5.564 -24.112  1.00  0.00    -0.364 OA
ATOM     28  H4  UNL     1      30.685   6.287 -23.602  1.00  0.00     0.212 HD
ENDBRANCH  26  27
BRANCH  26  29
HETATM   29  N5  UNL     1      30.486   5.306 -26.390  1.00  0.00     0.113 N
HETATM   30  C11 UNL     1      29.561   5.942 -27.249  1.00  0.00     0.313 C
HETATM   31  C12 UNL     1      31.779   5.943 -26.535  1.00  0.00     0.313 C
ENDBRANCH  26  29
ENDBRANCH  20  26
BRANCH  21  32
HETATM   32  O5  UNL     1      31.727   2.945 -23.766  1.00  0.00    -0.355 OA
ATOM     33  H5  UNL     1      32.118   2.640 -22.955  1.00  0.00     0.218 HD
ENDBRANCH  21  32
ENDBRANCH   1  18
TORSDOF 10
ENDMDL