MODEL 4
REMARK VINA RESULT: -7.686559259      3.173      6.850
REMARK  8 active torsions:
REMARK  status: ('A' for Active; 'I' for Inactive)
REMARK    1  A    between atoms: O1_2  and  C2_3
REMARK    2  A    between atoms: C2_3  and  C3_5
REMARK    3  A    between atoms: C3_5  and  C4_6
REMARK    4  A    between atoms: N5_16  and  O3_17
REMARK    5  A    between atoms: O3_17  and  C10_18
REMARK    6  A    between atoms: C10_18  and  C11_19
REMARK    7  A    between atoms: C11_19  and  C12_20
REMARK    8  A    between atoms: C12_20  and  N6_21
ROOT
HETATM    1  N6  UNL     1      30.447   1.271 -29.577  1.00  0.00    -0.279 N
HETATM    2  N7  UNL     1      29.471   1.381 -28.689  1.00  0.00    -0.263 N
ATOM      3  H7  UNL     1      29.591   1.453 -27.679  1.00  0.00     0.190 HD
HETATM    4  C13 UNL     1      28.310   1.382 -29.334  1.00  0.00     0.262 A
HETATM    5  O4  UNL     1      27.169   1.467 -28.804  1.00  0.00    -0.267 OA
HETATM    6  C14 UNL     1      28.570   1.277 -30.676  1.00  0.00     0.118 A
HETATM    7  C15 UNL     1      29.928   1.209 -30.792  1.00  0.00     0.136 A
HETATM    8  C16 UNL     1      30.644   1.127 -32.049  1.00  0.00     0.119 C
HETATM    9  N8  UNL     1      31.222   1.108 -33.043  1.00  0.00    -0.190 NA
ENDROOT
BRANCH   1  10
HETATM   10  C12 UNL     1      31.866   1.180 -29.212  1.00  0.00     0.152 C
BRANCH  10  11
HETATM   11  C11 UNL     1      32.217   2.220 -28.170  1.00  0.00     0.051 C
BRANCH  11  12
HETATM   12  C10 UNL     1      32.375   1.578 -26.846  1.00  0.00     0.204 C
BRANCH  12  13
HETATM   13  O3  UNL     1      31.127   1.283 -26.215  1.00  0.00    -0.262 OA
BRANCH  13  14
HETATM   14  N5  UNL     1      31.301   1.529 -24.942  1.00  0.00    -0.142 N
HETATM   15  C3  UNL     1      30.549   2.489 -24.255  1.00  0.00     0.275 C
HETATM   16  N1  UNL     1      30.142   1.918 -23.010  1.00  0.00    -0.077 NA
HETATM   17  N2  UNL     1      31.268   1.547 -22.242  1.00  0.00    -0.016 NA
HETATM   18  N3  UNL     1      32.080   0.698 -22.957  1.00  0.00     0.003 NA
HETATM   19  N4  UNL     1      31.602   0.377 -24.198  1.00  0.00     0.015 NA
BRANCH  15  20
HETATM   20  C2  UNL     1      31.562   3.606 -23.895  1.00  0.00     0.314 C
HETATM   21  O2  UNL     1      32.680   3.649 -24.257  1.00  0.00    -0.260 OA
BRANCH  20  22
HETATM   22  O1  UNL     1      30.970   4.572 -23.067  1.00  0.00    -0.323 OA
HETATM   23  C1  UNL     1      31.424   5.897 -22.952  1.00  0.00     0.213 C
ENDBRANCH  20  22
ENDBRANCH  15  20
BRANCH  15  24
HETATM   24  C4  UNL     1      29.520   3.279 -24.942  1.00  0.00     0.001 A
HETATM   25  C5  UNL     1      28.176   3.024 -24.735  1.00  0.00     0.012 A
HETATM   26  C6  UNL     1      27.197   3.494 -25.575  1.00  0.00     0.001 A
HETATM   27  C7  UNL     1      27.582   4.263 -26.664  1.00  0.00     0.000 A
HETATM   28  C8  UNL     1      28.891   4.547 -26.886  1.00  0.00     0.001 A
HETATM   29  C9  UNL     1      29.857   4.049 -26.021  1.00  0.00     0.012 A
ENDBRANCH  15  24
ENDBRANCH  13  14
ENDBRANCH  12  13
ENDBRANCH  11  12
ENDBRANCH  10  11
ENDBRANCH   1  10
TORSDOF 8
ENDMDL