MODEL 3
REMARK VINA RESULT: -6.708441435      2.223      3.568
REMARK  11 active torsions:
REMARK  status: ('A' for Active; 'I' for Inactive)
REMARK    1  A    between atoms: C2_2  and  O1_3
REMARK    2  A    between atoms: O1_3  and  N1_4
REMARK    3  A    between atoms: C4_8  and  C5_9
REMARK    4  A    between atoms: C4_8  and  C6_12
REMARK    5  A    between atoms: C5_9  and  O3_10
REMARK    6  A    between atoms: C6_12  and  O4_13
REMARK    7  A    between atoms: N2_15  and  O5_16
REMARK    8  A    between atoms: C8_18  and  C9_19
REMARK    9  A    between atoms: C9_19  and  C10_20
REMARK   10  A    between atoms: C11_21  and  N3_22
REMARK   11  A    between atoms: C12_27  and  N5_28
ROOT
HETATM    1  N1  UNL     1      27.778   2.443 -28.680  1.00  0.00    -0.243 N
ATOM      2  H1  UNL     1      27.018   1.785 -28.854  1.00  0.00     0.196 HD
HETATM    3  C3  UNL     1      28.124   2.493 -27.489  1.00  0.00     0.194 C
HETATM    4  O2  UNL     1      27.579   1.715 -26.484  1.00  0.00    -0.294 OA
HETATM    5  C4  UNL     1      27.825   2.307 -25.247  1.00  0.00     0.210 C
HETATM    6  N2  UNL     1      29.121   2.891 -25.452  1.00  0.00    -0.214 N
HETATM    7  C8  UNL     1      29.155   3.333 -26.812  1.00  0.00     0.114 C
ENDROOT
BRANCH   7   8
HETATM    8  C9  UNL     1      29.840   4.304 -27.371  1.00  0.00     0.057 C
BRANCH   8   9
HETATM    9  C10 UNL     1      31.232   4.274 -27.648  1.00  0.00     0.086 A
HETATM   10  C11 UNL     1      32.111   5.106 -26.991  1.00  0.00     0.204 A
HETATM   11  N4  UNL     1      33.434   5.048 -27.242  1.00  0.00    -0.170 N
HETATM   12  C12 UNL     1      33.924   4.186 -28.128  1.00  0.00     0.680 A
ATOM     13  H4  UNL     1      34.067   5.675 -26.745  1.00  0.00     0.186 HD
HETATM   14  N6  UNL     1      33.111   3.349 -28.797  1.00  0.00    -0.155 N
HETATM   15  C13 UNL     1      31.810   3.383 -28.570  1.00  0.00     0.273 A
ATOM     16  H6  UNL     1      33.497   2.693 -29.476  1.00  0.00     0.187 HD
HETATM   17  O8  UNL     1      31.047   2.597 -29.173  1.00  0.00    -0.267 OA
BRANCH  10  18
HETATM   18  N3  UNL     1      31.629   6.079 -26.102  1.00  0.00    -0.096 N
HETATM   19  O6  UNL     1      31.323   7.214 -26.507  1.00  0.00    -0.530 OA
HETATM   20  O7  UNL     1      31.492   5.813 -24.739  1.00  0.00    -0.530 OA
ENDBRANCH  10  18
BRANCH  12  21
HETATM   21  N5  UNL     1      35.204   4.160 -28.357  1.00  0.00    -0.234 N
ATOM     22  H52 UNL     1      35.825   3.681 -27.704  1.00  0.00     0.174 HD
ATOM     23  H51 UNL     1      35.575   4.612 -29.193  1.00  0.00     0.174 HD
ENDBRANCH  12  21
ENDBRANCH   8   9
ENDBRANCH   7   8
BRANCH   6  24
HETATM   24  O5  UNL     1      30.206   2.974 -24.616  1.00  0.00    -0.280 OA
HETATM   25  C7  UNL     1      31.082   1.925 -24.962  1.00  0.00     0.238 C
ENDBRANCH   6  24
BRANCH   1  26
HETATM   26  O1  UNL     1      28.189   3.064 -29.762  1.00  0.00    -0.279 OA
BRANCH  26  27
HETATM   27  C2  UNL     1      27.943   2.364 -31.032  1.00  0.00     0.197 C
HETATM   28  C1  UNL     1      28.294   0.916 -30.670  1.00  0.00     0.036 C
ENDBRANCH  26  27
ENDBRANCH   1  26
BRANCH   5  29
HETATM   29  C5  UNL     1      26.738   3.314 -24.953  1.00  0.00     0.230 C
BRANCH  29  30
HETATM   30  O3  UNL     1      25.525   2.661 -24.634  1.00  0.00    -0.396 OA
ATOM     31  H3  UNL     1      24.799   3.273 -24.655  1.00  0.00     0.209 HD
ENDBRANCH  29  30
ENDBRANCH   5  29
BRANCH   5  32
HETATM   32  C6  UNL     1      27.861   1.223 -24.166  1.00  0.00     0.230 C
BRANCH  32  33
HETATM   33  O4  UNL     1      27.203   0.087 -24.566  1.00  0.00    -0.396 OA
ATOM     34  H4  UNL     1      27.621  -0.314 -25.321  1.00  0.00     0.209 HD
ENDBRANCH  32  33
ENDBRANCH   5  32
TORSDOF 11
ENDMDL