MODEL 2
REMARK VINA RESULT: -8.571051963      5.050      7.039
REMARK  8 active torsions:
REMARK  status: ('A' for Active; 'I' for Inactive)
REMARK    1  A    between atoms: O1_2  and  C2_3
REMARK    2  A    between atoms: C4_5  and  C5_6
REMARK    3  A    between atoms: N1_7  and  N2_9
REMARK       I    between atoms: N2_9  and  C6_11
REMARK    4  A    between atoms: C6_11  and  C7_13
REMARK       I    between atoms: C7_13  and  N3_15
REMARK    5  A    between atoms: N3_15  and  N4_17
REMARK    6  A    between atoms: C8_19  and  C9_20
REMARK    7  A    between atoms: C11_26  and  O6_27
REMARK    8  A    between atoms: C13_30  and  C14_31
ROOT
HETATM    1  N2  UNL     1      27.939   2.246 -27.418  1.00  0.00    -0.262 N
ATOM      2  H2  UNL     1      27.012   2.594 -27.665  1.00  0.00     0.190 HD
HETATM    3  C6  UNL     1      28.302   2.085 -26.066  1.00  0.00     0.329 C
HETATM    4  O2  UNL     1      29.433   1.660 -25.768  1.00  0.00    -0.261 OA
ENDROOT
BRANCH   3   5
HETATM    5  C7  UNL     1      27.361   2.415 -25.021  1.00  0.00     0.329 C
HETATM    6  O3  UNL     1      27.535   2.023 -23.821  1.00  0.00    -0.261 OA
HETATM    7  N3  UNL     1      26.172   3.200 -25.250  1.00  0.00    -0.262 N
ATOM      8  H3  UNL     1      25.985   3.540 -26.194  1.00  0.00     0.190 HD
BRANCH   7   9
HETATM    9  N4  UNL     1      25.321   3.495 -24.298  1.00  0.00    -0.306 N
HETATM   10  C8  UNL     1      24.166   3.794 -24.070  1.00  0.00     0.149 C
ATOM     11  H4  UNL     1      25.820   3.460 -23.408  1.00  0.00     0.186 HD
BRANCH  10  12
HETATM   12  C9  UNL     1      23.063   3.967 -25.008  1.00  0.00     0.148 A
HETATM   13  O4  UNL     1      22.815   5.112 -25.660  1.00  0.00    -0.255 OA
HETATM   14  C10 UNL     1      21.782   5.016 -26.436  1.00  0.00     0.372 A
HETATM   15  O5  UNL     1      21.299   5.939 -27.184  1.00  0.00    -0.238 OA
HETATM   16  N5  UNL     1      21.315   3.771 -26.307  1.00  0.00    -0.280 N
HETATM   17  C11 UNL     1      22.107   3.105 -25.417  1.00  0.00     0.180 A
ATOM     18  H5  UNL     1      20.504   3.384 -26.791  1.00  0.00     0.173 HD
BRANCH  17  19
HETATM   19  O6  UNL     1      21.914   1.781 -25.041  1.00  0.00    -0.344 OA
ATOM     20  H6  UNL     1      22.263   1.322 -24.285  1.00  0.00     0.219 HD
ENDBRANCH  17  19
ENDBRANCH  10  12
ENDBRANCH   7   9
ENDBRANCH   3   5
BRANCH   1  21
HETATM   21  N1  UNL     1      28.863   1.921 -28.419  1.00  0.00    -0.308 N
HETATM   22  C5  UNL     1      29.754   2.746 -28.813  1.00  0.00     0.118 C
ATOM     23  H1  UNL     1      28.822   0.996 -28.848  1.00  0.00     0.186 HD
BRANCH  22  24
HETATM   24  C4  UNL     1      30.684   2.362 -29.849  1.00  0.00    -0.013 A
HETATM   25  C3  UNL     1      30.240   1.734 -31.018  1.00  0.00     0.069 A
HETATM   26  C2  UNL     1      31.160   1.381 -31.984  1.00  0.00     0.143 A
HETATM   27  N6  UNL     1      32.474   1.618 -31.849  1.00  0.00    -0.334 N
HETATM   28  C13 UNL     1      32.950   2.225 -30.733  1.00  0.00     0.080 A
ATOM     29  H6  UNL     1      33.118   1.339 -32.590  1.00  0.00     0.168 HD
HETATM   30  C12 UNL     1      32.041   2.579 -29.764  1.00  0.00     0.046 A
BRANCH  26  31
HETATM   31  O1  UNL     1      30.653   0.754 -33.135  1.00  0.00    -0.341 OA
HETATM   32  C1  UNL     1      29.281   0.459 -33.223  1.00  0.00     0.211 C
ENDBRANCH  26  31
BRANCH  28  33
HETATM   33  C14 UNL     1      34.378   2.477 -30.596  1.00  0.00     0.172 C
HETATM   34  C15 UNL     1      34.886   3.547 -29.720  1.00  0.00     0.098 C
HETATM   35  O7  UNL     1      35.192   1.775 -31.234  1.00  0.00    -0.291 OA
ENDBRANCH  28  33
ENDBRANCH  22  24
ENDBRANCH   1  21
TORSDOF 8
ENDMDL