MODEL 5
REMARK VINA RESULT: -8.854997907      1.184      1.259
REMARK  8 active torsions:
REMARK  status: ('A' for Active; 'I' for Inactive)
REMARK    1  A    between atoms: C3_4  and  N2_5
REMARK    2  A    between atoms: N2_5  and  O1_7
REMARK    3  A    between atoms: C5_10  and  C6_11
REMARK    4  A    between atoms: C6_11  and  C7_12
REMARK    5  A    between atoms: C9_18  and  O3_19
REMARK    6  A    between atoms: C11_22  and  C12_23
REMARK    7  A    between atoms: C12_23  and  C13_24
REMARK    8  A    between atoms: C13_24  and  C14_25
ROOT
HETATM    1  N1  UNL     1     -12.087  -0.719 -22.946  1.00  0.00    -0.191 NA
HETATM    2  C1  UNL     1     -12.978   0.027 -22.959  1.00  0.00     0.103 C
HETATM    3  C2  UNL     1     -14.058   0.963 -22.992  1.00  0.00     0.091 A
HETATM    4  C3  UNL     1     -13.839   2.282 -22.712  1.00  0.00     0.076 A
HETATM    5  C4  UNL     1     -14.934   3.102 -22.775  1.00  0.00     0.041 A
HETATM    6  C5  UNL     1     -16.218   2.694 -23.097  1.00  0.00    -0.039 A
HETATM    7  C10 UNL     1     -16.455   1.325 -23.387  1.00  0.00    -0.004 A
HETATM    8  C11 UNL     1     -17.631   0.712 -23.729  1.00  0.00    -0.039 A
HETATM    9  C19 UNL     1     -17.537  -0.658 -23.968  1.00  0.00     0.058 A
HETATM   10  S2  UNL     1     -15.896  -1.031 -23.717  1.00  0.00    -0.099 SA
HETATM   11  C20 UNL     1     -15.345   0.526 -23.318  1.00  0.00     0.039 A
ENDROOT
BRANCH   4  12
HETATM   12  N2  UNL     1     -12.576   2.822 -22.374  1.00  0.00    -0.268 N
ATOM     13  H2  UNL     1     -11.874   2.888 -23.111  1.00  0.00     0.194 HD
BRANCH  12  14
HETATM   14  O1  UNL     1     -12.263   3.222 -21.236  1.00  0.00    -0.289 OA
ATOM     15  H1  UNL     1     -11.974   4.106 -21.039  1.00  0.00     0.244 HD
ENDBRANCH  12  14
ENDBRANCH   4  12
BRANCH   6  16
HETATM   16  C6  UNL     1     -17.249   3.726 -23.153  1.00  0.00     0.090 C
BRANCH  16  17
HETATM   17  C7  UNL     1     -17.004   4.752 -22.045  1.00  0.00     0.043 A
HETATM   18  S1  UNL     1     -16.529   6.387 -22.148  1.00  0.00    -0.029 SA
HETATM   19  C8  UNL     1     -16.541   6.755 -20.480  1.00  0.00     0.290 A
HETATM   20  O2  UNL     1     -16.270   7.860 -19.877  1.00  0.00    -0.260 OA
HETATM   21  N3  UNL     1     -16.910   5.603 -19.920  1.00  0.00    -0.297 N
HETATM   22  C9  UNL     1     -17.148   4.580 -20.696  1.00  0.00     0.157 A
ATOM     23  H3  UNL     1     -17.005   5.522 -18.907  1.00  0.00     0.171 HD
BRANCH  22  24
HETATM   24  O3  UNL     1     -17.545   3.313 -20.181  1.00  0.00    -0.345 OA
ATOM     25  H3  UNL     1     -18.006   3.263 -19.352  1.00  0.00     0.219 HD
ENDBRANCH  22  24
ENDBRANCH  16  17
ENDBRANCH   6  16
BRANCH   8  26
HETATM   26  C12 UNL     1     -19.021   1.267 -23.803  1.00  0.00     0.040 C
BRANCH  26  27
HETATM   27  C13 UNL     1     -19.987   0.130 -23.992  1.00  0.00     0.009 C
BRANCH  27  28
HETATM   28  C14 UNL     1     -21.374   0.502 -23.486  1.00  0.00    -0.014 C
HETATM   29  C15 UNL     1     -22.374  -0.398 -24.158  1.00  0.00     0.004 C
HETATM   30  C16 UNL     1     -23.017   0.449 -25.241  1.00  0.00     0.000 C
HETATM   31  C17 UNL     1     -23.070   1.791 -24.547  1.00  0.00     0.000 C
HETATM   32  C18 UNL     1     -21.730   1.909 -23.890  1.00  0.00     0.004 C
ENDBRANCH  27  28
ENDBRANCH  26  27
ENDBRANCH   8  26
TORSDOF 8
ENDMDL