MODEL 5
REMARK VINA RESULT: -6.705671969      3.349      6.047
REMARK  8 active torsions:
REMARK  status: ('A' for Active; 'I' for Inactive)
REMARK    1  A    between atoms: C2_2  and  C3_4
REMARK    2  A    between atoms: C4_5  and  N1_6
REMARK    3  A    between atoms: N1_6  and  C5_7
REMARK    4  A    between atoms: N1_6  and  C8_10
REMARK    5  A    between atoms: C8_10  and  C10_12
REMARK    6  A    between atoms: C14_17  and  C15_18
REMARK    7  A    between atoms: C15_18  and  C16_20
REMARK    8  A    between atoms: C22_26  and  O3_27
ROOT
HETATM    1  C3  UNL     1     -20.483   6.127 -21.961  1.00  0.00     0.069 A
HETATM    2  C4  UNL     1     -19.621   7.112 -22.242  1.00  0.00     0.093 A
HETATM    3  S1  UNL     1     -18.084   6.287 -22.142  1.00  0.00    -0.065 SA
HETATM    4  C14 UNL     1     -18.603   4.735 -21.749  1.00  0.00     0.083 A
HETATM    5  C23 UNL     1     -19.962   4.884 -21.702  1.00  0.00     0.084 A
HETATM    6  N2  UNL     1     -20.775   3.710 -21.377  1.00  0.00    -0.100 NA
ENDROOT
BRANCH   4   7
HETATM    7  C15 UNL     1     -17.850   3.514 -21.500  1.00  0.00     0.203 C
HETATM    8  O2  UNL     1     -17.364   3.398 -20.323  1.00  0.00    -0.286 OA
BRANCH   7   9
HETATM    9  C16 UNL     1     -17.625   2.480 -22.446  1.00  0.00     0.049 A
HETATM   10  C17 UNL     1     -18.588   1.599 -22.889  1.00  0.00     0.025 A
HETATM   11  C18 UNL     1     -18.188   0.626 -23.819  1.00  0.00    -0.061 A
HETATM   12  C19 UNL     1     -19.223  -0.335 -24.304  1.00  0.00     0.048 C
HETATM   13  C20 UNL     1     -16.912   0.526 -24.286  1.00  0.00     0.009 A
HETATM   14  C21 UNL     1     -15.981   1.420 -23.822  1.00  0.00     0.038 A
HETATM   15  C22 UNL     1     -16.309   2.382 -22.923  1.00  0.00     0.080 A
BRANCH  15  16
HETATM   16  O3  UNL     1     -15.311   3.259 -22.494  1.00  0.00    -0.360 OA
ATOM     17  H3  UNL     1     -15.342   4.186 -22.702  1.00  0.00     0.217 HD
ENDBRANCH  15  16
ENDBRANCH   7   9
ENDBRANCH   4   7
BRANCH   2  18
HETATM   18  N1  UNL     1     -19.680   8.529 -22.588  1.00  0.00    -0.343 N
BRANCH  18  19
HETATM   19  C5  UNL     1     -19.132   8.769 -23.922  1.00  0.00     0.082 C
HETATM   20  C6  UNL     1     -20.071   8.791 -25.067  1.00  0.00     0.032 C
HETATM   21  C7  UNL     1     -18.328  10.090 -23.895  1.00  0.00     0.032 C
ENDBRANCH  18  19
BRANCH  18  22
HETATM   22  C8  UNL     1     -20.047   9.583 -21.731  1.00  0.00    -0.006 C
HETATM   23  C9  UNL     1     -21.443  10.075 -21.652  1.00  0.00     0.064 C
BRANCH  22  24
HETATM   24  C10 UNL     1     -19.438   9.620 -20.349  1.00  0.00    -0.013 C
HETATM   25  C11 UNL     1     -19.740  11.044 -19.830  1.00  0.00     0.021 C
HETATM   26  C12 UNL     1     -20.045   8.699 -19.355  1.00  0.00     0.021 C
HETATM   27  C13 UNL     1     -17.915   9.563 -20.372  1.00  0.00     0.021 C
ENDBRANCH  22  24
ENDBRANCH  18  22
ENDBRANCH   2  18
BRANCH   1  28
HETATM   28  C2  UNL     1     -21.973   6.265 -21.910  1.00  0.00     0.160 C
HETATM   29  C1  UNL     1     -22.857   6.007 -23.018  1.00  0.00     0.097 C
HETATM   30  O1  UNL     1     -22.548   6.633 -20.831  1.00  0.00    -0.293 OA
ENDBRANCH   1  28
TORSDOF 8
ENDMDL