MODEL 1
REMARK VINA RESULT: -8.664561528      0.000      0.000
REMARK  6 active torsions:
REMARK  status: ('A' for Active; 'I' for Inactive)
REMARK    1  A    between atoms: C2_3  and  N2_4
REMARK    2  A    between atoms: C2_3  and  C9_19
REMARK    3  A    between atoms: N2_4  and  N3_6
REMARK    4  A    between atoms: C3_7  and  C4_8
REMARK    5  A    between atoms: C11_22  and  C12_23
REMARK    6  A    between atoms: C12_23  and  C13_24
ROOT
HETATM    1  N1  UNL     1     -21.078   3.963 -21.181  1.00  0.00    -0.195 NA
HETATM    2  C1  UNL     1     -19.980   3.775 -21.523  1.00  0.00     0.092 C
HETATM    3  C2  UNL     1     -18.611   3.519 -21.973  1.00  0.00     0.256 C
ENDROOT
BRANCH   3   4
HETATM    4  N2  UNL     1     -18.214   4.603 -22.814  1.00  0.00    -0.301 N
ATOM      5  H2  UNL     1     -18.358   4.469 -23.816  1.00  0.00     0.183 HD
BRANCH   4   6
HETATM    6  N3  UNL     1     -17.659   5.814 -22.437  1.00  0.00    -0.212 N
HETATM    7  C3  UNL     1     -16.402   6.027 -22.040  1.00  0.00     0.161 A
HETATM    8  N4  UNL     1     -16.261   7.342 -21.723  1.00  0.00    -0.281 N
HETATM    9  N5  UNL     1     -17.378   7.963 -21.904  1.00  0.00    -0.273 N
ATOM     10  H4  UNL     1     -15.399   7.774 -21.389  1.00  0.00     0.188 HD
HETATM   11  C8  UNL     1     -18.256   7.028 -22.348  1.00  0.00     0.213 A
ATOM     12  H5  UNL     1     -17.564   8.954 -21.747  1.00  0.00     0.189 HD
HETATM   13  S2  UNL     1     -19.781   7.397 -22.673  1.00  0.00    -0.037 SA
BRANCH   7  14
HETATM   14  C4  UNL     1     -15.276   5.106 -21.921  1.00  0.00     0.052 A
HETATM   15  C5  UNL     1     -14.743   4.305 -22.903  1.00  0.00     0.023 A
HETATM   16  C6  UNL     1     -13.709   3.527 -22.578  1.00  0.00     0.009 A
HETATM   17  C7  UNL     1     -13.247   3.575 -21.293  1.00  0.00     0.050 A
HETATM   18  S1  UNL     1     -14.289   4.719 -20.586  1.00  0.00    -0.098 SA
ENDBRANCH   7  14
ENDBRANCH   4   6
ENDBRANCH   3   4
BRANCH   3  19
HETATM   19  C9  UNL     1     -18.608   2.218 -22.768  1.00  0.00     0.054 A
HETATM   20  C10 UNL     1     -19.789   1.578 -23.082  1.00  0.00     0.079 A
HETATM   21  S3  UNL     1     -19.227   0.223 -23.943  1.00  0.00    -0.087 SA
HETATM   22  C11 UNL     1     -17.552   0.527 -23.864  1.00  0.00     0.051 A
HETATM   23  N6  UNL     1     -17.510   1.660 -23.177  1.00  0.00    -0.354 N
ATOM     24  H6  UNL     1     -16.611   2.095 -22.969  1.00  0.00     0.166 HD
BRANCH  22  25
HETATM   25  C12 UNL     1     -16.363  -0.227 -24.395  1.00  0.00     0.069 C
BRANCH  25  26
HETATM   26  C13 UNL     1     -15.338  -0.416 -23.297  1.00  0.00    -0.009 C
HETATM   27  C14 UNL     1     -15.208  -1.877 -23.019  1.00  0.00     0.005 C
HETATM   28  C15 UNL     1     -13.930  -2.525 -23.435  1.00  0.00     0.000 C
HETATM   29  C16 UNL     1     -12.815  -1.681 -22.790  1.00  0.00     0.000 C
HETATM   30  C17 UNL     1     -12.795  -0.404 -23.568  1.00  0.00     0.000 C
HETATM   31  C18 UNL     1     -14.082   0.332 -23.546  1.00  0.00     0.005 C
ENDBRANCH  25  26
ENDBRANCH  22  25
ENDBRANCH   3  19
TORSDOF 6
ENDMDL