MODEL 1
REMARK VINA RESULT: -8.644882457      0.000      0.000
REMARK  7 active torsions:
REMARK  status: ('A' for Active; 'I' for Inactive)
REMARK    1  A    between atoms: N1_2  and  C1_4
REMARK    2  A    between atoms: C6_9  and  C7_10
REMARK    3  A    between atoms: C9_12  and  O3_13
REMARK    4  A    between atoms: N2_15  and  C10_16
REMARK    5  A    between atoms: C16_22  and  N3_23
REMARK    6  A    between atoms: C17_25  and  C18_26
REMARK    7  A    between atoms: C18_26  and  N4_27
ROOT
HETATM    1  C7  UNL     1     -19.832   1.754 -23.790  1.00  0.00     0.025 A
HETATM    2  C8  UNL     1     -20.116   0.387 -23.648  1.00  0.00     0.072 A
HETATM    3  C9  UNL     1     -18.951  -0.346 -23.629  1.00  0.00     0.144 A
HETATM    4  N2  UNL     1     -17.933   0.557 -23.759  1.00  0.00    -0.308 N
HETATM    5  C16 UNL     1     -18.446   1.795 -23.853  1.00  0.00     0.120 A
ENDROOT
BRANCH   5   6
HETATM    6  N3  UNL     1     -17.696   3.015 -23.987  1.00  0.00    -0.353 N
HETATM    7  C17 UNL     1     -17.039   3.496 -22.969  1.00  0.00     0.092 C
ATOM      8  H3  UNL     1     -17.677   3.505 -24.881  1.00  0.00     0.166 HD
BRANCH   7   9
HETATM    9  C18 UNL     1     -16.288   4.750 -23.166  1.00  0.00     0.317 C
BRANCH   9  10
HETATM   10  N4  UNL     1     -15.013   4.708 -22.457  1.00  0.00     0.093 N
HETATM   11  C19 UNL     1     -15.246   4.785 -21.025  1.00  0.00     0.273 C
HETATM   12  C20 UNL     1     -13.936   4.757 -20.303  1.00  0.00     0.030 C
HETATM   13  C21 UNL     1     -13.204   3.465 -20.598  1.00  0.00     0.003 C
HETATM   14  C22 UNL     1     -13.012   3.351 -22.082  1.00  0.00     0.030 C
HETATM   15  C23 UNL     1     -14.368   3.467 -22.748  1.00  0.00     0.273 C
ENDBRANCH   9  10
ENDBRANCH   7   9
ENDBRANCH   5   6
BRANCH   1  16
HETATM   16  C6  UNL     1     -20.818   2.817 -23.871  1.00  0.00     0.011 A
HETATM   17  C1  UNL     1     -20.979   3.715 -22.862  1.00  0.00     0.114 A
HETATM   18  C2  UNL     1     -21.947   4.720 -23.002  1.00  0.00     0.037 A
HETATM   19  C3  UNL     1     -22.736   4.826 -24.125  1.00  0.00     0.002 A
HETATM   20  C4  UNL     1     -22.575   3.922 -25.143  1.00  0.00     0.001 A
HETATM   21  C5  UNL     1     -21.628   2.934 -25.012  1.00  0.00     0.015 A
BRANCH  17  22
HETATM   22  N1  UNL     1     -20.207   3.654 -21.688  1.00  0.00    -0.115 N
HETATM   23  O1  UNL     1     -20.077   2.691 -20.933  1.00  0.00    -0.532 OA
HETATM   24  O2  UNL     1     -19.512   4.813 -21.344  1.00  0.00    -0.532 OA
ENDBRANCH  17  22
ENDBRANCH   1  16
BRANCH   4  25
HETATM   25  C10 UNL     1     -16.549   0.156 -23.801  1.00  0.00     0.093 C
HETATM   26  C11 UNL     1     -16.395  -1.265 -24.311  1.00  0.00     0.026 C
HETATM   27  C12 UNL     1     -15.560  -2.136 -23.417  1.00  0.00     0.002 C
HETATM   28  C13 UNL     1     -14.225  -1.520 -23.153  1.00  0.00     0.000 C
HETATM   29  C14 UNL     1     -14.377  -0.089 -22.756  1.00  0.00     0.002 C
HETATM   30  C15 UNL     1     -15.839   0.287 -22.479  1.00  0.00     0.026 C
ENDBRANCH   4  25
BRANCH   3  31
HETATM   31  O3  UNL     1     -18.857  -1.732 -23.501  1.00  0.00    -0.346 OA
ATOM     32  H3  UNL     1     -18.917  -2.363 -24.209  1.00  0.00     0.219 HD
ENDBRANCH   3  31
TORSDOF 7
ENDMDL