MODEL 3
REMARK VINA RESULT: -8.938745691      1.709      2.630
REMARK  8 active torsions:
REMARK  status: ('A' for Active; 'I' for Inactive)
REMARK    1  A    between atoms: C4_4  and  C5_5
REMARK    2  A    between atoms: C5_5  and  C6_6
REMARK    3  A    between atoms: C6_6  and  C7_7
REMARK    4  A    between atoms: C7_7  and  C8_8
REMARK    5  A    between atoms: C7_7  and  C13_14
REMARK    6  A    between atoms: C8_8  and  C9_9
REMARK    7  A    between atoms: C13_14  and  C14_15
REMARK    8  A    between atoms: C21_25  and  O5_26
ROOT
HETATM    1  C14 UNL     1     -15.524   4.011 -21.996  1.00  0.00     0.337 C
HETATM    2  O2  UNL     1     -16.745   4.761 -21.967  1.00  0.00    -0.175 OA
HETATM    3  O3  UNL     1     -16.506   5.899 -22.545  1.00  0.00    -0.059 OA
HETATM    4  O4  UNL     1     -15.655   6.671 -21.936  1.00  0.00    -0.145 OA
HETATM    5  C15 UNL     1     -15.644   6.548 -20.565  1.00  0.00     0.309 C
HETATM    6  C16 UNL     1     -16.960   6.780 -19.904  1.00  0.00     0.099 C
HETATM    7  C17 UNL     1     -17.897   7.696 -20.592  1.00  0.00     0.012 C
HETATM    8  C18 UNL     1     -17.399   9.033 -20.982  1.00  0.00     0.041 C
HETATM    9  C19 UNL     1     -16.323   9.599 -20.156  1.00  0.00    -0.026 A
HETATM   10  C20 UNL     1     -15.918  10.663 -19.522  1.00  0.00     0.048 A
HETATM   11  C21 UNL     1     -14.693  10.011 -19.075  1.00  0.00     0.093 A
HETATM   12  C22 UNL     1     -15.106   8.923 -19.723  1.00  0.00     0.072 A
HETATM   13  N1  UNL     1     -14.728   7.566 -20.023  1.00  0.00    -0.329 N
ATOM     14  H1  UNL     1     -13.761   7.291 -19.848  1.00  0.00     0.165 HD
HETATM   15  O6  UNL     1     -15.159   5.288 -20.189  1.00  0.00    -0.173 OA
HETATM   16  O7  UNL     1     -14.622   4.744 -21.237  1.00  0.00    -0.200 OA
ENDROOT
BRANCH   1  17
HETATM   17  C13 UNL     1     -15.860   2.676 -21.479  1.00  0.00     0.071 C
BRANCH  17  18
HETATM   18  C7  UNL     1     -15.750   1.485 -22.326  1.00  0.00    -0.005 C
BRANCH  18  19
HETATM   19  C6  UNL     1     -15.891   1.711 -23.775  1.00  0.00     0.009 C
BRANCH  19  20
HETATM   20  C5  UNL     1     -16.707   0.762 -24.571  1.00  0.00     0.028 C
BRANCH  20  21
HETATM   21  C4  UNL     1     -18.121   0.913 -24.091  1.00  0.00    -0.025 C
HETATM   22  C2  UNL     1     -18.918  -0.104 -23.831  1.00  0.00    -0.091 C
HETATM   23  C1  UNL     1     -18.351  -1.464 -24.036  1.00  0.00     0.042 C
HETATM   24  C3  UNL     1     -20.312   0.064 -23.356  1.00  0.00     0.042 C
ENDBRANCH  20  21
ENDBRANCH  19  20
ENDBRANCH  18  19
BRANCH  18  25
HETATM   25  C8  UNL     1     -14.732   0.446 -21.909  1.00  0.00     0.045 C
BRANCH  25  26
HETATM   26  C9  UNL     1     -13.389   0.663 -22.495  1.00  0.00    -0.034 A
HETATM   27  C10 UNL     1     -12.764  -0.083 -23.458  1.00  0.00     0.033 A
HETATM   28  C11 UNL     1     -11.530   0.485 -23.694  1.00  0.00     0.142 A
HETATM   29  O1  UNL     1     -11.451   1.510 -22.904  1.00  0.00    -0.334 OA
HETATM   30  C12 UNL     1     -12.515   1.671 -22.169  1.00  0.00     0.148 A
ENDBRANCH  25  26
ENDBRANCH  18  25
ENDBRANCH  17  18
ENDBRANCH   1  17
BRANCH  11  31
HETATM   31  O5  UNL     1     -13.600  10.346 -18.328  1.00  0.00    -0.358 OA
ATOM     32  H5  UNL     1     -12.888  10.972 -18.380  1.00  0.00     0.217 HD
ENDBRANCH  11  31
TORSDOF 8
ENDMDL