MODEL 4
REMARK VINA RESULT: -6.966757071      2.777      4.786
REMARK  9 active torsions:
REMARK  status: ('A' for Active; 'I' for Inactive)
REMARK    1  A    between atoms: C2_2  and  C3_3
REMARK    2  A    between atoms: C3_3  and  C4_4
REMARK    3  A    between atoms: C4_4  and  C5_5
REMARK    4  A    between atoms: C5_5  and  C6_6
REMARK    5  A    between atoms: C6_6  and  C7_7
REMARK    6  A    between atoms: C7_7  and  O2_9
REMARK    7  A    between atoms: O2_9  and  N1_10
REMARK    8  A    between atoms: C13_17  and  O3_18
REMARK    9  A    between atoms: C14_21  and  O5_22
ROOT
HETATM    1  N1  UNL     1     -21.285   0.795 -23.539  1.00  0.00    -0.265 N
ATOM      2  H1  UNL     1     -21.617  -0.155 -23.709  1.00  0.00     0.194 HD
HETATM    3  C8  UNL     1     -22.175   1.623 -23.822  1.00  0.00     0.020 C
HETATM    4  C9  UNL     1     -23.478   1.032 -24.327  1.00  0.00     0.070 C
HETATM    5  C10 UNL     1     -24.667   1.840 -23.859  1.00  0.00     0.005 C
HETATM    6  C11 UNL     1     -25.376   2.524 -24.982  1.00  0.00     0.021 C
HETATM    7  C12 UNL     1     -25.712   0.996 -23.212  1.00  0.00     0.028 A
HETATM    8  C13 UNL     1     -26.378  -0.213 -23.207  1.00  0.00     0.193 A
HETATM    9  O4  UNL     1     -27.282  -0.214 -22.267  1.00  0.00    -0.263 OA
HETATM   10  C14 UNL     1     -27.250   0.942 -21.641  1.00  0.00     0.200 A
HETATM   11  C15 UNL     1     -26.265   1.752 -22.201  1.00  0.00     0.080 A
HETATM   12  C16 UNL     1     -25.555   3.050 -22.169  1.00  0.00     0.171 C
HETATM   13  O6  UNL     1     -26.042   4.106 -21.784  1.00  0.00    -0.292 OA
HETATM   14  C17 UNL     1     -24.230   2.644 -22.703  1.00  0.00     0.083 C
HETATM   15  C18 UNL     1     -23.174   3.625 -22.794  1.00  0.00    -0.024 C
HETATM   16  C19 UNL     1     -22.482   3.674 -21.407  1.00  0.00     0.016 C
HETATM   17  C20 UNL     1     -23.510   5.045 -23.082  1.00  0.00     0.016 C
HETATM   18  C21 UNL     1     -22.049   3.087 -23.712  1.00  0.00     0.001 C
HETATM   19  C22 UNL     1     -20.705   3.507 -23.175  1.00  0.00     0.022 C
HETATM   20  C23 UNL     1     -22.160   3.749 -25.093  1.00  0.00     0.022 C
ENDROOT
BRANCH   1  21
HETATM   21  O2  UNL     1     -20.058   0.774 -23.092  1.00  0.00    -0.200 OA
BRANCH  21  22
HETATM   22  C7  UNL     1     -18.916   0.312 -23.724  1.00  0.00     0.281 C
HETATM   23  O1  UNL     1     -18.047   1.133 -24.060  1.00  0.00    -0.263 OA
BRANCH  22  24
HETATM   24  C6  UNL     1     -18.770  -1.148 -23.983  1.00  0.00     0.113 C
BRANCH  24  25
HETATM   25  C5  UNL     1     -17.298  -1.410 -24.312  1.00  0.00     0.010 C
BRANCH  25  26
HETATM   26  C4  UNL     1     -16.527  -1.987 -23.172  1.00  0.00     0.000 C
BRANCH  26  27
HETATM   27  C3  UNL     1     -15.442  -1.060 -22.679  1.00  0.00    -0.000 C
BRANCH  27  28
HETATM   28  C2  UNL     1     -14.159  -1.263 -23.484  1.00  0.00    -0.005 C
HETATM   29  C1  UNL     1     -13.584  -2.636 -23.241  1.00  0.00     0.005 C
ENDBRANCH  27  28
ENDBRANCH  26  27
ENDBRANCH  25  26
ENDBRANCH  24  25
ENDBRANCH  22  24
ENDBRANCH  21  22
ENDBRANCH   1  21
BRANCH   8  30
HETATM   30  O3  UNL     1     -26.111  -1.246 -24.075  1.00  0.00    -0.340 OA
ATOM     31  H3  UNL     1     -26.756  -1.882 -24.363  1.00  0.00     0.220 HD
ENDBRANCH   8  30
BRANCH  10  32
HETATM   32  O5  UNL     1     -28.051   1.370 -20.565  1.00  0.00    -0.340 OA
ATOM     33  H5  UNL     1     -27.856   2.038 -19.918  1.00  0.00     0.220 HD
ENDBRANCH  10  32
TORSDOF 9
ENDMDL