MODEL 3
REMARK VINA RESULT: -7.725775057      3.736      5.856
REMARK  8 active torsions:
REMARK  status: ('A' for Active; 'I' for Inactive)
REMARK    1  A    between atoms: C3_3  and  C4_4
REMARK    2  A    between atoms: C8_10  and  C9_11
REMARK    3  A    between atoms: C9_11  and  S1_12
REMARK    4  A    between atoms: C9_11  and  C12_21
REMARK    5  A    between atoms: S1_12  and  C10_13
REMARK    6  A    between atoms: C12_21  and  C14_24
REMARK    7  A    between atoms: C14_24  and  O2_26
REMARK    8  A    between atoms: O2_26  and  C15_27
ROOT
HETATM    1  C12 UNL     1     -16.985   7.050 -20.929  1.00  0.00     0.212 C
HETATM    2  C13 UNL     1     -18.238   7.102 -21.875  1.00  0.00     0.075 C
HETATM    3  N4  UNL     1     -19.179   7.126 -22.543  1.00  0.00    -0.196 NA
ENDROOT
BRANCH   1   4
HETATM    4  C9  UNL     1     -16.230   5.876 -21.467  1.00  0.00     0.132 C
BRANCH   4   5
HETATM    5  C8  UNL     1     -17.002   4.624 -21.683  1.00  0.00     0.032 A
HETATM    6  C2  UNL     1     -16.940   3.812 -22.771  1.00  0.00    -0.026 A
HETATM    7  C1  UNL     1     -16.082   3.969 -23.982  1.00  0.00     0.051 C
HETATM    8  C3  UNL     1     -17.803   2.733 -22.563  1.00  0.00    -0.011 A
HETATM    9  C7  UNL     1     -18.357   2.967 -21.305  1.00  0.00     0.100 A
HETATM   10  N1  UNL     1     -17.882   4.080 -20.797  1.00  0.00    -0.367 N
ATOM     11  H1  UNL     1     -18.130   4.472 -19.888  1.00  0.00     0.165 HD
BRANCH   8  12
HETATM   12  C4  UNL     1     -18.247   1.668 -23.497  1.00  0.00    -0.075 C
HETATM   13  C5  UNL     1     -19.708   1.436 -23.575  1.00  0.00     0.044 C
HETATM   14  C6  UNL     1     -17.301   0.553 -23.721  1.00  0.00     0.044 C
ENDBRANCH   8  12
ENDBRANCH   4   5
BRANCH   4  15
HETATM   15  S1  UNL     1     -14.910   5.550 -20.245  1.00  0.00    -0.090 SA
BRANCH  15  16
HETATM   16  C10 UNL     1     -13.981   4.074 -20.547  1.00  0.00     0.130 A
HETATM   17  N2  UNL     1     -13.586   3.033 -19.852  1.00  0.00    -0.287 N
HETATM   18  N3  UNL     1     -12.819   2.148 -20.360  1.00  0.00    -0.283 N
ATOM     19  H2  UNL     1     -13.898   2.929 -18.886  1.00  0.00     0.188 HD
HETATM   20  C11 UNL     1     -12.411   2.283 -21.614  1.00  0.00     0.159 A
ATOM     21  H3  UNL     1     -12.524   1.343 -19.806  1.00  0.00     0.188 HD
HETATM   22  S2  UNL     1     -11.411   1.291 -22.487  1.00  0.00    -0.051 SA
HETATM   23  S3  UNL     1     -13.160   3.726 -22.069  1.00  0.00    -0.033 SA
ENDBRANCH  15  16
ENDBRANCH   4  15
ENDBRANCH   1   4
BRANCH   1  24
HETATM   24  C14 UNL     1     -16.456   8.405 -21.230  1.00  0.00     0.279 C
HETATM   25  O1  UNL     1     -15.994   8.620 -22.412  1.00  0.00    -0.264 OA
BRANCH  24  26
HETATM   26  O2  UNL     1     -16.403   9.494 -20.407  1.00  0.00    -0.310 OA
BRANCH  26  27
HETATM   27  C15 UNL     1     -15.175   9.957 -19.845  1.00  0.00     0.060 C
HETATM   28  C16 UNL     1     -15.540  10.829 -18.660  1.00  0.00     0.045 C
HETATM   29  C17 UNL     1     -14.256   8.893 -19.356  1.00  0.00     0.045 C
HETATM   30  C18 UNL     1     -14.440  10.853 -20.807  1.00  0.00     0.045 C
ENDBRANCH  26  27
ENDBRANCH  24  26
ENDBRANCH   1  24
TORSDOF 8
ENDMDL