MODEL 4
REMARK VINA RESULT: -8.032236172      1.269      2.196
REMARK  7 active torsions:
REMARK  status: ('A' for Active; 'I' for Inactive)
REMARK    1  A    between atoms: C3_4  and  C4_5
REMARK    2  A    between atoms: C4_5  and  C5_7
REMARK    3  A    between atoms: C10_16  and  S2_17
REMARK    4  A    between atoms: S2_17  and  C11_18
REMARK    5  A    between atoms: C11_18  and  C12_19
REMARK    6  A    between atoms: C12_19  and  C13_20
REMARK    7  A    between atoms: C19_28  and  N4_29
ROOT
HETATM    1  N1  UNL     1     -23.096  -1.079 -24.273  1.00  0.00    -0.191 NA
HETATM    2  C1  UNL     1     -22.516  -0.068 -24.054  1.00  0.00     0.102 C
HETATM    3  C2  UNL     1     -21.821   1.215 -23.804  1.00  0.00     0.082 A
HETATM    4  C3  UNL     1     -22.612   2.334 -23.685  1.00  0.00     0.079 A
HETATM    5  S1  UNL     1     -21.480   3.585 -23.461  1.00  0.00    -0.066 SA
HETATM    6  C9  UNL     1     -20.043   2.671 -23.521  1.00  0.00     0.092 A
HETATM    7  N2  UNL     1     -18.716   3.009 -23.419  1.00  0.00    -0.330 N
ATOM      8  H2  UNL     1     -18.453   3.983 -23.272  1.00  0.00     0.168 HD
HETATM    9  C10 UNL     1     -17.764   2.069 -23.510  1.00  0.00     0.146 A
HETATM   10  N3  UNL     1     -18.162   0.821 -23.701  1.00  0.00    -0.323 N
ATOM     11  H3  UNL     1     -17.438   0.106 -23.772  1.00  0.00     0.169 HD
HETATM   12  C19 UNL     1     -19.463   0.410 -23.812  1.00  0.00     0.115 A
HETATM   13  C20 UNL     1     -20.475   1.390 -23.717  1.00  0.00     0.064 A
ENDROOT
BRANCH   4  14
HETATM   14  C4  UNL     1     -24.092   2.447 -23.711  1.00  0.00     0.202 C
HETATM   15  O1  UNL     1     -24.728   2.371 -22.630  1.00  0.00    -0.286 OA
BRANCH  14  16
HETATM   16  C5  UNL     1     -24.805   2.637 -24.949  1.00  0.00     0.040 A
HETATM   17  C6  UNL     1     -26.157   2.866 -25.167  1.00  0.00     0.042 A
HETATM   18  C7  UNL     1     -26.365   2.979 -26.527  1.00  0.00     0.142 A
HETATM   19  O2  UNL     1     -25.211   2.830 -27.117  1.00  0.00    -0.334 OA
HETATM   20  C8  UNL     1     -24.263   2.627 -26.241  1.00  0.00     0.156 A
ENDBRANCH  14  16
ENDBRANCH   4  14
BRANCH  12  21
HETATM   21  N4  UNL     1     -19.602  -0.819 -23.984  1.00  0.00    -0.385 N
ATOM     22  H42 UNL     1     -18.871  -1.528 -24.043  1.00  0.00     0.157 HD
ATOM     23  H41 UNL     1     -20.570  -1.123 -24.077  1.00  0.00     0.157 HD
ENDBRANCH  12  21
BRANCH   9  24
HETATM   24  S2  UNL     1     -16.026   2.462 -23.407  1.00  0.00    -0.094 SA
BRANCH  24  25
HETATM   25  C11 UNL     1     -15.362   1.813 -21.879  1.00  0.00     0.082 C
BRANCH  25  26
HETATM   26  C12 UNL     1     -14.672   0.477 -22.060  1.00  0.00     0.015 C
BRANCH  26  27
HETATM   27  C13 UNL     1     -14.575   0.101 -23.523  1.00  0.00    -0.014 C
HETATM   28  C14 UNL     1     -13.143  -0.096 -23.960  1.00  0.00     0.005 C
HETATM   29  C15 UNL     1     -12.442  -1.147 -23.147  1.00  0.00     0.000 C
HETATM   30  C16 UNL     1     -13.207  -2.364 -22.857  1.00  0.00     0.000 C
HETATM   31  C17 UNL     1     -14.644  -2.388 -23.148  1.00  0.00     0.000 C
HETATM   32  C18 UNL     1     -15.255  -1.214 -23.814  1.00  0.00     0.005 C
ENDBRANCH  26  27
ENDBRANCH  25  26
ENDBRANCH  24  25
ENDBRANCH   9  24
TORSDOF 7
ENDMDL