MODEL 3
REMARK VINA RESULT: -7.253158337      2.688      3.867
REMARK  10 active torsions:
REMARK  status: ('A' for Active; 'I' for Inactive)
REMARK    1  A    between atoms: C2_2  and  C3_3
REMARK    2  A    between atoms: C3_3  and  C4_4
REMARK    3  A    between atoms: C4_4  and  O1_5
REMARK    4  A    between atoms: O1_5  and  C5_6
REMARK    5  A    between atoms: C5_6  and  O3_8
REMARK    6  A    between atoms: O3_8  and  N1_9
REMARK    7  A    between atoms: N1_9  and  C6_11
REMARK    8  A    between atoms: C6_11  and  C7_15
REMARK    9  A    between atoms: C8_16  and  C9_17
REMARK   10  A    between atoms: C14_24  and  N3_25
ROOT
HETATM    1  C7  UNL     1     -17.587   3.624 -22.808  1.00  0.00     0.055 A
HETATM    2  C8  UNL     1     -18.426   2.596 -23.054  1.00  0.00     0.004 A
HETATM    3  C13 UNL     1     -19.762   2.798 -22.681  1.00  0.00     0.065 A
HETATM    4  S2  UNL     1     -19.785   4.335 -22.024  1.00  0.00    -0.083 SA
HETATM    5  C14 UNL     1     -18.138   4.750 -22.208  1.00  0.00     0.087 A
ENDROOT
BRANCH   1   6
HETATM    6  C6  UNL     1     -16.181   3.714 -23.322  1.00  0.00     0.133 C
HETATM    7  N2  UNL     1     -15.989   3.704 -24.593  1.00  0.00    -0.383 N
ATOM      8  H22 UNL     1     -15.032   3.765 -24.942  1.00  0.00     0.157 HD
ATOM      9  H21 UNL     1     -16.830   3.716 -25.169  1.00  0.00     0.157 HD
BRANCH   6  10
HETATM   10  N1  UNL     1     -15.020   3.698 -22.527  1.00  0.00    -0.239 N
ATOM     11  H1  UNL     1     -14.166   4.104 -22.912  1.00  0.00     0.196 HD
BRANCH  10  12
HETATM   12  O3  UNL     1     -14.975   3.165 -21.258  1.00  0.00    -0.173 OA
BRANCH  12  13
HETATM   13  C5  UNL     1     -13.971   2.215 -20.993  1.00  0.00     0.428 C
HETATM   14  O2  UNL     1     -13.150   2.453 -20.070  1.00  0.00    -0.227 OA
BRANCH  13  15
HETATM   15  O1  UNL     1     -13.860   1.052 -21.698  1.00  0.00    -0.296 OA
BRANCH  15  16
HETATM   16  C4  UNL     1     -12.825   0.737 -22.592  1.00  0.00     0.185 C
BRANCH  16  17
HETATM   17  C3  UNL     1     -13.184  -0.268 -23.637  1.00  0.00     0.053 C
BRANCH  17  18
HETATM   18  C2  UNL     1     -12.912  -1.633 -23.131  1.00  0.00    -0.035 C
HETATM   19  C1  UNL     1     -13.769  -2.620 -23.245  1.00  0.00     0.007 C
ENDBRANCH  17  18
ENDBRANCH  16  17
ENDBRANCH  15  16
ENDBRANCH  13  15
ENDBRANCH  12  13
ENDBRANCH  10  12
ENDBRANCH   6  10
ENDBRANCH   1   6
BRANCH   2  20
HETATM   20  C9  UNL     1     -18.114   1.185 -23.471  1.00  0.00     0.016 A
HETATM   21  C10 UNL     1     -16.937   0.506 -23.478  1.00  0.00     0.020 A
HETATM   22  C11 UNL     1     -16.964  -0.798 -23.787  1.00  0.00     0.008 A
HETATM   23  C12 UNL     1     -18.176  -1.360 -24.073  1.00  0.00     0.050 A
HETATM   24  S1  UNL     1     -19.236  -0.031 -23.898  1.00  0.00    -0.101 SA
ENDBRANCH   2  20
BRANCH   5  25
HETATM   25  N3  UNL     1     -17.534   5.986 -21.810  1.00  0.00    -0.374 N
HETATM   26  C15 UNL     1     -16.784   6.185 -20.598  1.00  0.00     0.124 C
HETATM   27  C16 UNL     1     -17.360   7.400 -19.871  1.00  0.00     0.024 C
HETATM   28  C17 UNL     1     -18.721   7.793 -20.447  1.00  0.00    -0.015 C
HETATM   29  C18 UNL     1     -19.146   9.023 -19.644  1.00  0.00     0.010 C
HETATM   30  C19 UNL     1     -18.601   8.164 -21.898  1.00  0.00     0.024 C
HETATM   31  C20 UNL     1     -17.736   7.138 -22.660  1.00  0.00     0.124 C
ENDBRANCH   5  25
TORSDOF 10
ENDMDL