MODEL 2
REMARK VINA RESULT: -9.539292540      3.509      6.407
REMARK  7 active torsions:
REMARK  status: ('A' for Active; 'I' for Inactive)
REMARK    1  A    between atoms: C2_2  and  C3_3
REMARK    2  A    between atoms: C2_2  and  C14_16
REMARK    3  A    between atoms: C3_3  and  C4_4
REMARK    4  A    between atoms: C8_8  and  C9_9
REMARK    5  A    between atoms: C9_9  and  C10_10
REMARK    6  A    between atoms: C10_10  and  O1_13
REMARK    7  A    between atoms: C17_19  and  N1_20
ROOT
HETATM    1  C14 UNL     1     -16.538   1.835 -22.889  1.00  0.00    -0.042 A
HETATM    2  C15 UNL     1     -15.181   1.605 -22.746  1.00  0.00     0.027 A
HETATM    3  C16 UNL     1     -14.619   0.381 -23.041  1.00  0.00     0.054 A
HETATM    4  C17 UNL     1     -13.343  -0.140 -23.003  1.00  0.00     0.248 A
HETATM    5  O4  UNL     1     -13.411  -1.390 -23.406  1.00  0.00    -0.212 OA
HETATM    6  N2  UNL     1     -14.630  -1.722 -23.702  1.00  0.00    -0.257 N
ATOM      7  H2  UNL     1     -14.932  -2.637 -24.036  1.00  0.00     0.195 HD
HETATM    8  C18 UNL     1     -15.417  -0.676 -23.499  1.00  0.00     0.086 A
HETATM    9  C19 UNL     1     -16.761  -0.422 -23.631  1.00  0.00     0.080 A
HETATM   10  C20 UNL     1     -17.600  -1.439 -24.077  1.00  0.00     0.301 A
HETATM   11  O5  UNL     1     -17.122  -2.548 -24.349  1.00  0.00    -0.259 OA
HETATM   12  O6  UNL     1     -18.893  -1.234 -24.210  1.00  0.00    -0.287 OA
HETATM   13  C21 UNL     1     -19.473  -0.110 -23.949  1.00  0.00     0.147 A
HETATM   14  C22 UNL     1     -18.726   0.955 -23.502  1.00  0.00     0.038 A
HETATM   15  C23 UNL     1     -17.347   0.792 -23.343  1.00  0.00    -0.009 A
ENDROOT
BRANCH   1  16
HETATM   16  C2  UNL     1     -17.131   3.152 -22.597  1.00  0.00     0.019 C
HETATM   17  C1  UNL     1     -16.830   3.473 -21.123  1.00  0.00     0.015 C
BRANCH  16  18
HETATM   18  C3  UNL     1     -16.392   4.264 -23.358  1.00  0.00     0.036 C
BRANCH  18  19
HETATM   19  C4  UNL     1     -16.015   5.347 -22.432  1.00  0.00    -0.023 C
HETATM   20  C5  UNL     1     -16.757   6.322 -22.030  1.00  0.00    -0.083 C
HETATM   21  C6  UNL     1     -16.412   7.413 -21.112  1.00  0.00     0.034 C
HETATM   22  C13 UNL     1     -18.169   6.589 -22.405  1.00  0.00     0.038 C
HETATM   23  C7  UNL     1     -17.615   7.420 -20.205  1.00  0.00     0.009 C
HETATM   24  C8  UNL     1     -18.795   7.034 -21.115  1.00  0.00    -0.007 C
BRANCH  24  25
HETATM   25  C9  UNL     1     -19.664   8.238 -21.177  1.00  0.00     0.041 C
BRANCH  25  26
HETATM   26  C10 UNL     1     -20.936   8.256 -20.447  1.00  0.00     0.051 C
HETATM   27  C11 UNL     1     -21.030   9.312 -19.400  1.00  0.00     0.045 C
HETATM   28  C12 UNL     1     -22.142   8.389 -21.381  1.00  0.00     0.045 C
BRANCH  26  29
HETATM   29  O1  UNL     1     -21.069   7.002 -19.813  1.00  0.00    -0.391 OA
ATOM     30  H1  UNL     1     -21.297   6.372 -20.486  1.00  0.00     0.210 HD
ENDBRANCH  26  29
ENDBRANCH  25  26
ENDBRANCH  24  25
ENDBRANCH  18  19
ENDBRANCH  16  18
ENDBRANCH   1  16
BRANCH   4  31
HETATM   31  N1  UNL     1     -12.157   0.542 -22.603  1.00  0.00    -0.087 N
HETATM   32  O2  UNL     1     -11.140   0.496 -23.347  1.00  0.00    -0.530 OA
HETATM   33  O3  UNL     1     -12.078   1.249 -21.436  1.00  0.00    -0.530 OA
ENDBRANCH   4  31
TORSDOF 7
ENDMDL