MODEL 1
REMARK VINA RESULT: -4.613174342      0.000      0.000
REMARK  8 active torsions:
REMARK  status: ('A' for Active; 'I' for Inactive)
REMARK    1  A    between atoms: C2_2  and  N1_3
REMARK    2  A    between atoms: N1_3  and  C5_6
REMARK    3  A    between atoms: C5_6  and  N2_7
REMARK    4  A    between atoms: C6_9  and  C7_10
REMARK    5  A    between atoms: C7_10  and  C8_11
REMARK    6  A    between atoms: C8_11  and  N3_12
REMARK    7  A    between atoms: C11_15  and  N4_16
REMARK    8  A    between atoms: C12_20  and  N5_21
ROOT
HETATM    1  N3  UNL     1       2.590  26.908  14.910  1.00  0.00     0.121 N
HETATM    2  C9  UNL     1       3.469  26.582  13.774  1.00  0.00     0.277 C
HETATM    3  C10 UNL     1       4.601  25.820  14.488  1.00  0.00     0.067 C
HETATM    4  C11 UNL     1       3.805  24.889  15.350  1.00  0.00     0.245 C
HETATM    5  C12 UNL     1       2.654  25.788  15.778  1.00  0.00     0.447 C
ENDROOT
BRANCH   1   6
HETATM    6  C8  UNL     1       3.025  28.179  15.490  1.00  0.00     0.280 C
BRANCH   6   7
HETATM    7  C7  UNL     1       3.042  29.308  14.553  1.00  0.00     0.074 C
BRANCH   7   8
HETATM    8  C6  UNL     1       4.389  29.749  14.169  1.00  0.00     0.059 C
HETATM    9  N2  UNL     1       5.666  29.327  14.391  1.00  0.00    -0.380 N
ATOM     10  H2  UNL     1       6.013  28.572  13.800  1.00  0.00     0.160 HD
BRANCH   9  11
HETATM   11  C5  UNL     1       6.547  29.833  15.357  1.00  0.00     0.358 C
BRANCH  11  12
HETATM   12  N1  UNL     1       7.291  28.659  15.930  1.00  0.00    -0.059 N
HETATM   13  C3  UNL     1       6.345  28.181  16.988  1.00  0.00     0.274 C
HETATM   14  C4  UNL     1       8.493  28.914  16.586  1.00  0.00     0.274 C
BRANCH  12  15
HETATM   15  C2  UNL     1       7.425  27.678  14.901  1.00  0.00     0.234 C
HETATM   16  C1  UNL     1       7.937  26.349  15.430  1.00  0.00     0.035 C
ENDBRANCH  12  15
ENDBRANCH  11  12
ENDBRANCH   9  11
ENDBRANCH   7   8
ENDBRANCH   6   7
ENDBRANCH   1   6
BRANCH   5  17
HETATM   17  N5  UNL     1       1.441  24.991  15.505  1.00  0.00    -0.045 N
ATOM     18  H53 UNL     1       0.577  25.529  15.575  1.00  0.00     0.277 HD
ATOM     19  H52 UNL     1       1.342  24.724  14.526  1.00  0.00     0.277 HD
ATOM     20  H51 UNL     1       1.478  24.195  16.141  1.00  0.00     0.277 HD
ENDBRANCH   5  17
BRANCH   4  21
HETATM   21  N4  UNL     1       4.545  24.345  16.467  1.00  0.00    -0.071 N
ATOM     22  H43 UNL     1       5.521  24.638  16.427  1.00  0.00     0.274 HD
ATOM     23  H42 UNL     1       4.265  24.799  17.337  1.00  0.00     0.274 HD
ATOM     24  H41 UNL     1       4.478  23.331  16.555  1.00  0.00     0.274 HD
ENDBRANCH   4  21
TORSDOF 8
ENDMDL