MODEL 5
REMARK VINA RESULT: -5.644508607      2.571      4.521
REMARK  7 active torsions:
REMARK  status: ('A' for Active; 'I' for Inactive)
REMARK    1  A    between atoms: S1_2  and  N1_4
REMARK    2  A    between atoms: S1_2  and  N3_14
REMARK    3  A    between atoms: N1_4  and  C1_6
REMARK    4  A    between atoms: C1_6  and  C2_7
REMARK    5  A    between atoms: C2_7  and  N2_8
REMARK    6  A    between atoms: N2_8  and  C3_11
REMARK    7  A    between atoms: N3_14  and  C6_16
ROOT
HETATM    1  N1  UNL     1       2.966  25.450  15.562  1.00  0.00    -0.301 N
ATOM      2  H1  UNL     1       2.188  24.995  16.038  1.00  0.00     0.173 HD
ENDROOT
BRANCH   1   3
HETATM    3  S1  UNL     1       4.604  24.896  15.608  1.00  0.00     0.315 S
HETATM    4  O1  UNL     1       4.992  24.562  14.216  1.00  0.00    -0.183 OA
HETATM    5  O2  UNL     1       4.691  23.676  16.437  1.00  0.00    -0.183 OA
BRANCH   3   6
HETATM    6  N3  UNL     1       5.564  26.116  16.319  1.00  0.00    -0.294 N
ATOM      7  H3  UNL     1       5.454  26.351  17.306  1.00  0.00     0.174 HD
BRANCH   6   8
HETATM    8  C6  UNL     1       6.506  26.789  15.528  1.00  0.00     0.142 C
HETATM    9  C7  UNL     1       7.124  28.051  16.034  1.00  0.00     0.195 C
HETATM   10  O3  UNL     1       8.376  27.510  15.698  1.00  0.00    -0.387 OA
HETATM   11  C8  UNL     1       7.879  26.223  15.430  1.00  0.00     0.195 C
ENDBRANCH   6   8
ENDBRANCH   3   6
ENDBRANCH   1   3
BRANCH   1  12
HETATM   12  C1  UNL     1       2.852  26.626  14.770  1.00  0.00     0.161 C
BRANCH  12  13
HETATM   13  C2  UNL     1       2.821  27.863  15.603  1.00  0.00     0.253 C
BRANCH  13  14
HETATM   14  N2  UNL     1       3.669  28.921  15.202  1.00  0.00    -0.069 N
ATOM     15  H22 UNL     1       3.528  29.738  15.795  1.00  0.00     0.277 HD
ATOM     16  H21 UNL     1       4.640  28.709  15.430  1.00  0.00     0.277 HD
BRANCH  14  17
HETATM   17  C3  UNL     1       3.541  29.275  13.813  1.00  0.00     0.186 A
HETATM   18  C4  UNL     1       2.401  30.133  13.409  1.00  0.00     0.035 A
HETATM   19  C5  UNL     1       3.836  30.679  13.388  1.00  0.00     0.035 A
ENDBRANCH  14  17
ENDBRANCH  13  14
ENDBRANCH  12  13
ENDBRANCH   1  12
TORSDOF 7
ENDMDL