MODEL 4
REMARK VINA RESULT: -5.464383294      3.224      4.450
REMARK  9 active torsions:
REMARK  status: ('A' for Active; 'I' for Inactive)
REMARK    1  A    between atoms: N1_1  and  C1_4
REMARK    2  A    between atoms: N3_9  and  C3_10
REMARK    3  A    between atoms: C3_10  and  C4_11
REMARK    4  A    between atoms: C4_11  and  C5_12
REMARK    5  A    between atoms: C5_12  and  N4_13
REMARK    6  A    between atoms: N5_18  and  C7_19
REMARK    7  A    between atoms: C7_19  and  C8_20
REMARK    8  A    between atoms: C8_20  and  C9_21
REMARK    9  A    between atoms: C9_21  and  C10_22
ROOT
HETATM    1  C1  UNL     1       6.986  26.383  15.525  1.00  0.00     0.682 A
HETATM    2  N2  UNL     1       7.397  27.649  15.704  1.00  0.00    -0.141 N
ATOM      3  H2  UNL     1       8.358  27.819  16.001  1.00  0.00     0.189 HD
HETATM    4  C2  UNL     1       6.576  28.704  15.503  1.00  0.00     0.341 A
HETATM    5  O1  UNL     1       7.017  29.885  15.688  1.00  0.00    -0.246 OA
HETATM    6  N3  UNL     1       5.303  28.500  15.111  1.00  0.00    -0.294 N
HETATM    7  C6  UNL     1       4.914  27.226  14.938  1.00  0.00     0.207 A
HETATM    8  N5  UNL     1       5.711  26.167  15.131  1.00  0.00    -0.179 N
ENDROOT
BRANCH   6   9
HETATM    9  C3  UNL     1       4.416  29.637  14.894  1.00  0.00     0.136 C
BRANCH   9  10
HETATM   10  C4  UNL     1       3.101  29.086  14.390  1.00  0.00     0.048 C
BRANCH  10  11
HETATM   11  C5  UNL     1       2.415  30.039  13.445  1.00  0.00     0.231 C
BRANCH  11  12
HETATM   12  N4  UNL     1       3.268  31.136  13.055  1.00  0.00    -0.079 N
ATOM     13  H43 UNL     1       4.093  31.190  13.651  1.00  0.00     0.274 HD
ATOM     14  H42 UNL     1       3.724  30.947  12.162  1.00  0.00     0.274 HD
ATOM     15  H41 UNL     1       2.771  32.026  13.032  1.00  0.00     0.274 HD
ENDBRANCH  11  12
ENDBRANCH  10  11
ENDBRANCH   9  10
ENDBRANCH   6   9
BRANCH   8  16
HETATM   16  C7  UNL     1       5.198  24.855  14.919  1.00  0.00     0.148 C
BRANCH  16  17
HETATM   17  C8  UNL     1       4.323  24.334  16.018  1.00  0.00     0.023 C
BRANCH  17  18
HETATM   18  C9  UNL     1       2.942  23.973  15.568  1.00  0.00     0.033 C
BRANCH  18  19
HETATM   19  C10 UNL     1       2.157  25.287  15.454  1.00  0.00     0.222 C
HETATM   20  F1  UNL     1       0.848  25.062  15.132  1.00  0.00    -0.255 F
ENDBRANCH  18  19
ENDBRANCH  17  18
ENDBRANCH  16  17
ENDBRANCH   8  16
BRANCH   1  21
HETATM   21  N1  UNL     1       7.816  25.423  15.733  1.00  0.00    -0.234 N
ATOM     22  H12 UNL     1       8.544  25.474  16.445  1.00  0.00     0.174 HD
ATOM     23  H11 UNL     1       7.746  24.577  15.167  1.00  0.00     0.174 HD
ENDBRANCH   1  21
TORSDOF 9
ENDMDL