MODEL 1
REMARK VINA RESULT: -6.005260762      0.000      0.000
REMARK  9 active torsions:
REMARK  status: ('A' for Active; 'I' for Inactive)
REMARK    1  A    between atoms: N1_1  and  C1_5
REMARK    2  A    between atoms: C1_5  and  C2_6
REMARK    3  A    between atoms: C2_6  and  C3_7
REMARK    4  A    between atoms: C3_7  and  C4_8
REMARK    5  A    between atoms: C4_8  and  N2_9
REMARK    6  A    between atoms: C7_12  and  N3_13
REMARK    7  A    between atoms: C9_18  and  N4_19
REMARK    8  A    between atoms: N4_19  and  C10_22
REMARK    9  A    between atoms: C10_22  and  C11_23
ROOT
HETATM    1  N2  UNL     1       4.690  26.579  16.611  1.00  0.00     0.097 N
HETATM    2  C5  UNL     1       5.481  25.978  15.578  1.00  0.00     0.281 C
HETATM    3  C6  UNL     1       4.508  26.032  14.421  1.00  0.00     0.079 C
HETATM    4  C7  UNL     1       3.224  25.618  15.123  1.00  0.00     0.226 C
HETATM    5  C8  UNL     1       3.492  26.913  15.903  1.00  0.00     0.284 C
HETATM    6  C9  UNL     1       4.009  27.450  14.585  1.00  0.00     0.229 C
ENDROOT
BRANCH   1   7
HETATM    7  C4  UNL     1       5.218  27.687  17.281  1.00  0.00     0.273 C
BRANCH   7   8
HETATM    8  C3  UNL     1       6.643  28.041  17.016  1.00  0.00     0.032 C
BRANCH   8   9
HETATM    9  C2  UNL     1       6.810  29.182  16.054  1.00  0.00     0.029 C
BRANCH   9  10
HETATM   10  C1  UNL     1       8.155  29.150  15.360  1.00  0.00     0.229 C
BRANCH  10  11
HETATM   11  N1  UNL     1       8.480  27.860  14.816  1.00  0.00    -0.079 N
ATOM     12  H13 UNL     1       7.730  27.521  14.214  1.00  0.00     0.274 HD
ATOM     13  H12 UNL     1       9.228  27.935  14.127  1.00  0.00     0.274 HD
ATOM     14  H11 UNL     1       8.712  27.170  15.532  1.00  0.00     0.274 HD
ENDBRANCH  10  11
ENDBRANCH   9  10
ENDBRANCH   8   9
ENDBRANCH   7   8
ENDBRANCH   1   7
BRANCH   4  15
HETATM   15  N3  UNL     1       3.460  24.416  15.871  1.00  0.00    -0.072 N
ATOM     16  H33 UNL     1       3.549  23.597  15.269  1.00  0.00     0.274 HD
ATOM     17  H32 UNL     1       4.393  24.393  16.283  1.00  0.00     0.274 HD
ATOM     18  H31 UNL     1       2.725  24.305  16.569  1.00  0.00     0.274 HD
ENDBRANCH   4  15
BRANCH   6  19
HETATM   19  N4  UNL     1       3.073  27.913  13.627  1.00  0.00    -0.062 N
ATOM     20  H42 UNL     1       3.443  27.890  12.678  1.00  0.00     0.278 HD
ATOM     21  H41 UNL     1       2.299  27.261  13.493  1.00  0.00     0.278 HD
BRANCH  19  22
HETATM   22  C10 UNL     1       2.624  29.233  14.016  1.00  0.00     0.301 C
BRANCH  22  23
HETATM   23  C11 UNL     1       3.400  30.310  13.376  1.00  0.00     0.258 C
HETATM   24  O1  UNL     1       2.829  31.239  12.856  1.00  0.00    -0.305 OA
ENDBRANCH  22  23
ENDBRANCH  19  22
ENDBRANCH   6  19
TORSDOF 9
ENDMDL