MODEL 4
REMARK VINA RESULT: -4.823774264      1.702      3.737
REMARK  7 active torsions:
REMARK  status: ('A' for Active; 'I' for Inactive)
REMARK    1  A    between atoms: C2_2  and  C3_3
REMARK    2  A    between atoms: C3_3  and  N1_4
REMARK    3  A    between atoms: C6_8  and  N2_9
REMARK    4  A    between atoms: N2_9  and  C7_12
REMARK    5  A    between atoms: C7_12  and  C8_13
REMARK    6  A    between atoms: C8_13  and  C9_14
REMARK    7  A    between atoms: C9_14  and  N3_15
ROOT
HETATM    1  N2  UNL     1       4.533  29.068  14.592  1.00  0.00    -0.047 N
ATOM      2  H21 UNL     1       4.532  29.783  13.863  1.00  0.00     0.280 HD
ATOM      3  H22 UNL     1       4.748  28.249  14.024  1.00  0.00     0.280 HD
ENDROOT
BRANCH   1   4
HETATM    4  C6  UNL     1       3.224  28.947  15.194  1.00  0.00     0.338 C
HETATM    5  O1  UNL     1       2.356  28.627  14.131  1.00  0.00    -0.356 OA
HETATM    6  C5  UNL     1       3.050  27.765  13.262  1.00  0.00     0.190 C
HETATM    7  C4  UNL     1       3.684  26.594  14.000  1.00  0.00     0.143 C
HETATM    8  N1  UNL     1       3.198  26.531  15.337  1.00  0.00    -0.403 N
HETATM    9  C11 UNL     1       3.188  27.723  16.093  1.00  0.00     0.178 C
BRANCH   8  10
HETATM   10  C3  UNL     1       2.066  25.647  15.488  1.00  0.00     0.143 C
BRANCH  10  11
HETATM   11  C2  UNL     1       2.591  24.257  15.443  1.00  0.00    -0.018 C
HETATM   12  C1  UNL     1       3.823  24.041  15.824  1.00  0.00     0.008 C
ENDBRANCH  10  11
ENDBRANCH   8  10
ENDBRANCH   1   4
BRANCH   1  13
HETATM   13  C7  UNL     1       5.580  29.317  15.548  1.00  0.00     0.237 C
BRANCH  13  14
HETATM   14  C8  UNL     1       6.932  29.524  14.896  1.00  0.00     0.047 C
BRANCH  14  15
HETATM   15  C9  UNL     1       8.005  29.030  15.871  1.00  0.00     0.123 C
BRANCH  15  16
HETATM   16  N3  UNL     1       8.371  27.733  15.528  1.00  0.00    -0.367 N
HETATM   17  C10 UNL     1       7.933  26.631  15.533  1.00  0.00     0.196 C
HETATM   18  N4  UNL     1       6.616  26.281  15.991  1.00  0.00    -0.067 NA
HETATM   19  N5  UNL     1       8.715  25.519  15.058  1.00  0.00    -0.067 NA
ATOM     20  H3  UNL     1       9.319  27.727  15.153  1.00  0.00     0.161 HD
ENDBRANCH  15  16
ENDBRANCH  14  15
ENDBRANCH  13  14
ENDBRANCH   1  13
TORSDOF 7
ENDMDL