MODEL 2
REMARK VINA RESULT: -5.123646416      2.067      5.305
REMARK  8 active torsions:
REMARK  status: ('A' for Active; 'I' for Inactive)
REMARK    1  A    between atoms: N1_1  and  C1_5
REMARK    2  A    between atoms: C1_5  and  C2_6
REMARK    3  A    between atoms: C2_6  and  C3_7
REMARK    4  A    between atoms: C3_7  and  C4_8
REMARK    5  A    between atoms: C4_8  and  N2_9
REMARK    6  A    between atoms: N2_9  and  C5_12
REMARK    7  A    between atoms: C7_17  and  C8_18
REMARK    8  A    between atoms: N4_21  and  C11_22
ROOT
HETATM    1  C5  UNL     1       7.330  27.713  15.914  1.00  0.00     0.213 C
HETATM    2  C6  UNL     1       7.812  26.498  15.171  1.00  0.00     0.265 C
HETATM    3  N3  UNL     1       6.914  25.466  15.610  1.00  0.00    -0.067 N
ATOM      4  H31 UNL     1       7.198  25.002  16.472  1.00  0.00     0.277 HD
ATOM      5  H32 UNL     1       6.920  24.630  15.026  1.00  0.00     0.277 HD
HETATM    6  C7  UNL     1       5.642  26.120  15.687  1.00  0.00     0.210 C
HETATM    7  C12 UNL     1       5.852  27.509  16.137  1.00  0.00     0.069 C
ENDROOT
BRANCH   1   8
HETATM    8  N2  UNL     1       7.635  28.887  15.109  1.00  0.00    -0.069 N
ATOM      9  H22 UNL     1       7.806  28.665  14.129  1.00  0.00     0.277 HD
ATOM     10  H21 UNL     1       8.551  29.285  15.316  1.00  0.00     0.277 HD
BRANCH   8  11
HETATM   11  C4  UNL     1       6.554  29.828  15.297  1.00  0.00     0.233 C
BRANCH  11  12
HETATM   12  C3  UNL     1       5.530  29.827  14.213  1.00  0.00     0.029 C
BRANCH  12  13
HETATM   13  C2  UNL     1       4.158  29.405  14.655  1.00  0.00     0.029 C
BRANCH  13  14
HETATM   14  C1  UNL     1       3.118  29.815  13.663  1.00  0.00     0.229 C
BRANCH  14  15
HETATM   15  N1  UNL     1       3.467  31.114  13.065  1.00  0.00    -0.079 N
ATOM     16  H13 UNL     1       2.859  31.863  13.399  1.00  0.00     0.274 HD
ATOM     17  H12 UNL     1       4.354  31.471  13.420  1.00  0.00     0.274 HD
ATOM     18  H11 UNL     1       3.464  31.047  12.047  1.00  0.00     0.274 HD
ENDBRANCH  14  15
ENDBRANCH  13  14
ENDBRANCH  12  13
ENDBRANCH  11  12
ENDBRANCH   8  11
ENDBRANCH   1   8
BRANCH   6  19
HETATM   19  C8  UNL     1       4.591  25.350  16.398  1.00  0.00     0.118 A
HETATM   20  C9  UNL     1       4.710  23.865  16.453  1.00  0.00     0.047 A
HETATM   21  C10 UNL     1       3.491  23.765  15.580  1.00  0.00     0.127 A
HETATM   22  N4  UNL     1       3.379  25.218  15.658  1.00  0.00    -0.352 N
BRANCH  22  23
HETATM   23  C11 UNL     1       2.364  26.074  15.154  1.00  0.00     0.351 C
HETATM   24  O1  UNL     1       2.497  26.458  13.941  1.00  0.00    -0.284 OA
ENDBRANCH  22  23
ENDBRANCH   6  19
TORSDOF 8
ENDMDL