MODEL 2
REMARK VINA RESULT: -5.833650325      1.449      2.157
REMARK  11 active torsions:
REMARK  status: ('A' for Active; 'I' for Inactive)
REMARK    1  A    between atoms: C2_2  and  C3_3
REMARK    2  A    between atoms: C3_3  and  N1_4
REMARK    3  A    between atoms: N1_4  and  C4_6
REMARK    4  A    between atoms: C4_6  and  C5_12
REMARK    5  A    between atoms: N2_7  and  N3_9
REMARK    6  A    between atoms: C6_16  and  C7_17
REMARK    7  A    between atoms: N5_18  and  C8_20
REMARK    8  A    between atoms: C8_20  and  C9_21
REMARK    9  A    between atoms: C9_21  and  N6_22
REMARK   10  A    between atoms: N6_22  and  N7_24
REMARK   11  A    between atoms: N7_24  and  N8_25
ROOT
HETATM    1  C5  UNL     1       4.473  26.493  15.603  1.00  0.00     0.290 A
HETATM    2  N4  UNL     1       4.902  25.791  16.815  1.00  0.00    -0.050 N
ATOM      3  H41 UNL     1       5.658  25.150  17.054  1.00  0.00     0.279 HD
ATOM      4  H42 UNL     1       4.542  25.016  17.372  1.00  0.00     0.279 HD
HETATM    5  C6  UNL     1       4.726  27.252  16.815  1.00  0.00     0.262 A
ENDROOT
BRANCH   1   6
HETATM    6  C4  UNL     1       3.095  26.235  15.137  1.00  0.00     0.125 C
HETATM    7  N2  UNL     1       2.439  25.267  15.639  1.00  0.00    -0.294 N
ATOM      8  H2  UNL     1       2.912  24.712  16.352  1.00  0.00     0.187 HD
BRANCH   6   9
HETATM    9  N1  UNL     1       2.535  27.068  14.144  1.00  0.00    -0.373 N
ATOM     10  H1  UNL     1       1.590  26.889  13.806  1.00  0.00     0.161 HD
BRANCH   9  11
HETATM   11  C3  UNL     1       3.306  28.188  13.597  1.00  0.00     0.147 C
BRANCH  11  12
HETATM   12  C2  UNL     1       2.743  29.476  14.072  1.00  0.00    -0.018 C
HETATM   13  C1  UNL     1       2.662  30.552  13.303  1.00  0.00     0.008 C
ENDBRANCH  11  12
ENDBRANCH   9  11
ENDBRANCH   6   9
BRANCH   7  14
HETATM   14  N3  UNL     1       1.156  24.898  15.315  1.00  0.00    -0.344 N
ATOM     15  H32 UNL     1       0.547  24.676  16.103  1.00  0.00     0.176 HD
ATOM     16  H31 UNL     1       0.766  24.828  14.375  1.00  0.00     0.176 HD
ENDBRANCH   7  14
ENDBRANCH   1   6
BRANCH   5  17
HETATM   17  C7  UNL     1       5.928  28.066  17.029  1.00  0.00     0.091 C
HETATM   18  N5  UNL     1       6.416  28.854  16.153  1.00  0.00    -0.398 N
ATOM     19  H5  UNL     1       5.937  28.916  15.254  1.00  0.00     0.158 HD
BRANCH  18  20
HETATM   20  C8  UNL     1       7.570  29.646  16.338  1.00  0.00     0.141 C
BRANCH  20  21
HETATM   21  C9  UNL     1       8.829  29.035  15.774  1.00  0.00     0.175 C
BRANCH  21  22
HETATM   22  N6  UNL     1       8.569  28.060  14.747  1.00  0.00    -0.251 N
ATOM     23  H6  UNL     1       8.582  28.344  13.768  1.00  0.00     0.197 HD
BRANCH  22  24
HETATM   24  N7  UNL     1       8.332  26.892  15.036  1.00  0.00    -0.249 NA
BRANCH  24  25
HETATM   25  N8  UNL     1       8.291  25.745  15.465  1.00  0.00    -0.261 N
ATOM     26  H82 UNL     1       9.291  25.645  15.291  1.00  0.00     0.193 HD
ATOM     27  H81 UNL     1       8.062  24.828  15.849  1.00  0.00     0.193 HD
ENDBRANCH  24  25
ENDBRANCH  22  24
ENDBRANCH  21  22
ENDBRANCH  20  21
ENDBRANCH  18  20
ENDBRANCH   5  17
TORSDOF 11
ENDMDL