MODEL 4
REMARK VINA RESULT: -4.837801811      1.437      3.885
REMARK  7 active torsions:
REMARK  status: ('A' for Active; 'I' for Inactive)
REMARK    1  A    between atoms: C4_8  and  C5_9
REMARK    2  A    between atoms: C5_9  and  N3_10
REMARK    3  A    between atoms: N3_10  and  C6_12
REMARK    4  A    between atoms: C6_12  and  C7_13
REMARK    5  A    between atoms: C7_13  and  C8_14
REMARK    6  A    between atoms: C8_14  and  C9_15
REMARK    7  A    between atoms: C9_15  and  N4_16
ROOT
HETATM    1  N3  UNL     1       7.855  26.905  14.980  1.00  0.00    -0.417 N
ATOM      2  H3  UNL     1       8.069  27.021  13.990  1.00  0.00     0.153 HD
ENDROOT
BRANCH   1   3
HETATM    3  C5  UNL     1       7.060  25.823  15.466  1.00  0.00     0.179 C
BRANCH   3   4
HETATM    4  C4  UNL     1       5.628  26.163  15.454  1.00  0.00     0.435 C
HETATM    5  N1  UNL     1       4.707  25.159  15.041  1.00  0.00     0.118 N
HETATM    6  C1  UNL     1       4.594  24.052  15.968  1.00  0.00     0.312 C
HETATM    7  C2  UNL     1       3.431  25.890  15.181  1.00  0.00     0.302 C
HETATM    8  C3  UNL     1       3.674  26.651  16.460  1.00  0.00     0.265 C
HETATM    9  N2  UNL     1       5.098  26.591  16.729  1.00  0.00    -0.040 N
ATOM     10  H22 UNL     1       5.504  27.451  17.098  1.00  0.00     0.279 HD
ATOM     11  H21 UNL     1       5.364  26.011  17.524  1.00  0.00     0.279 HD
ENDBRANCH   3   4
ENDBRANCH   1   3
BRANCH   1  12
HETATM   12  C6  UNL     1       8.327  27.804  15.965  1.00  0.00     0.114 C
BRANCH  12  13
HETATM   13  C7  UNL     1       7.921  29.211  15.742  1.00  0.00     0.021 C
BRANCH  13  14
HETATM   14  C8  UNL     1       6.477  29.506  15.576  1.00  0.00     0.025 C
BRANCH  14  15
HETATM   15  C9  UNL     1       6.094  30.029  14.242  1.00  0.00     0.169 C
BRANCH  15  16
HETATM   16  N4  UNL     1       4.639  29.954  14.071  1.00  0.00    -0.235 N
HETATM   17  N5  UNL     1       3.920  30.610  13.190  1.00  0.00    -0.294 N
HETATM   18  C10 UNL     1       2.623  30.306  13.305  1.00  0.00     0.127 A
ATOM     19  H5  UNL     1       4.301  31.265  12.507  1.00  0.00     0.187 HD
HETATM   20  C11 UNL     1       2.550  29.398  14.334  1.00  0.00     0.127 A
HETATM   21  N6  UNL     1       3.807  29.224  14.758  1.00  0.00    -0.294 N
ATOM     22  H6  UNL     1       4.078  28.602  15.520  1.00  0.00     0.187 HD
ENDBRANCH  15  16
ENDBRANCH  14  15
ENDBRANCH  13  14
ENDBRANCH  12  13
ENDBRANCH   1  12
TORSDOF 7
ENDMDL