MODEL 1
REMARK VINA RESULT: -5.983376802      0.000      0.000
REMARK  8 active torsions:
REMARK  status: ('A' for Active; 'I' for Inactive)
REMARK    1  A    between atoms: N1_2  and  C4_5
REMARK    2  A    between atoms: C4_5  and  C5_6
REMARK    3  A    between atoms: C5_6  and  N2_7
REMARK    4  A    between atoms: N2_7  and  C6_10
REMARK    5  A    between atoms: C6_10  and  C7_11
REMARK    6  A    between atoms: C7_11  and  C8_12
REMARK    7  A    between atoms: C8_12  and  N3_13
REMARK    8  A    between atoms: N3_13  and  C9_15
ROOT
HETATM    1  C8  UNL     1       6.524  29.625  15.170  1.00  0.00     0.140 C
ENDROOT
BRANCH   1   2
HETATM    2  C7  UNL     1       7.270  28.821  16.243  1.00  0.00     0.048 C
BRANCH   2   3
HETATM    3  C6  UNL     1       8.266  27.881  15.615  1.00  0.00     0.234 C
BRANCH   3   4
HETATM    4  N2  UNL     1       7.694  26.825  14.845  1.00  0.00    -0.073 N
ATOM      5  H22 UNL     1       8.421  26.296  14.362  1.00  0.00     0.277 HD
ATOM      6  H21 UNL     1       7.192  27.199  14.039  1.00  0.00     0.277 HD
BRANCH   4   7
HETATM    7  C5  UNL     1       6.848  25.945  15.611  1.00  0.00     0.260 C
BRANCH   7   8
HETATM    8  C4  UNL     1       5.664  25.547  14.800  1.00  0.00     0.263 C
BRANCH   8   9
HETATM    9  N1  UNL     1       4.431  25.535  15.566  1.00  0.00    -0.077 N
HETATM   10  C1  UNL     1       4.539  26.347  16.765  1.00  0.00     0.271 C
HETATM   11  C2  UNL     1       4.162  24.152  15.921  1.00  0.00     0.271 C
HETATM   12  C3  UNL     1       3.286  26.006  14.823  1.00  0.00     0.271 C
ENDBRANCH   8   9
ENDBRANCH   7   8
ENDBRANCH   4   7
ENDBRANCH   3   4
ENDBRANCH   2   3
ENDBRANCH   1   2
BRANCH   1  13
HETATM   13  N3  UNL     1       5.178  29.138  15.053  1.00  0.00    -0.223 N
ATOM     14  H3  UNL     1       4.953  28.310  15.606  1.00  0.00     0.177 HD
BRANCH  13  15
HETATM   15  C9  UNL     1       4.235  29.609  14.348  1.00  0.00     0.709 A
HETATM   16  N4  UNL     1       4.170  30.447  13.320  1.00  0.00    -0.115 N
HETATM   17  N5  UNL     1       2.898  30.596  12.954  1.00  0.00    -0.213 N
ATOM     18  H4  UNL     1       4.968  30.905  12.880  1.00  0.00     0.207 HD
HETATM   19  N6  UNL     1       2.154  29.864  13.735  1.00  0.00    -0.213 N
ATOM     20  H5  UNL     1       2.562  31.183  12.190  1.00  0.00     0.210 HD
HETATM   21  N7  UNL     1       2.937  29.250  14.596  1.00  0.00    -0.115 N
ATOM     22  H6  UNL     1       1.138  29.781  13.688  1.00  0.00     0.210 HD
ATOM     23  H7  UNL     1       2.629  28.611  15.328  1.00  0.00     0.207 HD
ENDBRANCH  13  15
ENDBRANCH   1  13
TORSDOF 8
ENDMDL