MODEL 5
REMARK VINA RESULT: -4.768714127      1.891      4.692
REMARK  8 active torsions:
REMARK  status: ('A' for Active; 'I' for Inactive)
REMARK    1  A    between atoms: N1_2  and  C2_3
REMARK    2  A    between atoms: N1_2  and  C4_9
REMARK    3  A    between atoms: C2_3  and  C3_4
REMARK    4  A    between atoms: C3_4  and  N2_5
REMARK    5  A    between atoms: C4_9  and  C5_10
REMARK    6  A    between atoms: C5_10  and  N3_11
REMARK    7  A    between atoms: C8_14  and  C9_15
REMARK    8  A    between atoms: C9_15  and  N4_16
ROOT
HETATM    1  N3  UNL     1       4.143  26.909  16.701  1.00  0.00    -0.291 NA
HETATM    2  C6  UNL     1       4.186  25.747  15.880  1.00  0.00     0.095 C
HETATM    3  C7  UNL     1       2.830  25.823  15.168  1.00  0.00     0.022 C
HETATM    4  C8  UNL     1       2.669  27.315  14.982  1.00  0.00     0.018 C
HETATM    5  C11 UNL     1       3.785  27.964  15.781  1.00  0.00     0.101 C
ENDROOT
BRANCH   1   6
HETATM    6  C5  UNL     1       5.223  27.157  17.567  1.00  0.00     0.076 C
BRANCH   6   7
HETATM    7  C4  UNL     1       6.131  28.261  17.170  1.00  0.00     0.096 C
BRANCH   7   8
HETATM    8  N1  UNL     1       6.720  28.181  15.895  1.00  0.00    -0.392 N
HETATM    9  C1  UNL     1       7.454  26.955  15.657  1.00  0.00     0.148 C
BRANCH   8  10
HETATM   10  C2  UNL     1       7.323  29.331  15.335  1.00  0.00     0.148 C
BRANCH  10  11
HETATM   11  C3  UNL     1       8.760  29.404  15.888  1.00  0.00     0.249 C
BRANCH  11  12
HETATM   12  N2  UNL     1       9.711  29.468  14.797  1.00  0.00    -0.078 N
ATOM     13  H23 UNL     1       9.546  28.738  14.104  1.00  0.00     0.274 HD
ATOM     14  H22 UNL     1       9.554  30.279  14.199  1.00  0.00     0.274 HD
ATOM     15  H21 UNL     1      10.664  29.441  15.160  1.00  0.00     0.274 HD
ENDBRANCH  11  12
ENDBRANCH  10  11
ENDBRANCH   8  10
ENDBRANCH   7   8
ENDBRANCH   6   7
ENDBRANCH   1   6
BRANCH   4  16
HETATM   16  C9  UNL     1       2.783  27.589  13.489  1.00  0.00     0.127 C
BRANCH  16  17
HETATM   17  N4  UNL     1       3.540  28.799  13.277  1.00  0.00    -0.366 N
HETATM   18  C10 UNL     1       3.021  29.961  13.260  1.00  0.00     0.196 C
HETATM   19  N5  UNL     1       1.633  30.143  13.452  1.00  0.00    -0.067 NA
HETATM   20  N6  UNL     1       3.866  31.069  13.045  1.00  0.00    -0.067 NA
ATOM     21  H4  UNL     1       4.547  28.719  13.133  1.00  0.00     0.161 HD
ENDBRANCH  16  17
ENDBRANCH   4  16
TORSDOF 8
ENDMDL