MODEL 3
REMARK VINA RESULT: -8.810722133      6.339     12.007
REMARK  13 active torsions:
REMARK  status: ('A' for Active; 'I' for Inactive)
REMARK       I    between atoms: C2_2  and  N1_4
REMARK    1  A    between atoms: N1_4  and  C3_6
REMARK    2  A    between atoms: C4_7  and  N2_8
REMARK    3  A    between atoms: N2_8  and  N3_9
REMARK    4  A    between atoms: N2_8  and  C5_13
REMARK    5  A    between atoms: N3_9  and  O2_11
REMARK    6  A    between atoms: C5_13  and  O3_14
REMARK    7  A    between atoms: C5_13  and  N4_16
REMARK    8  A    between atoms: N4_16  and  O4_18
REMARK    9  A    between atoms: C6_24  and  N7_25
REMARK   10  A    between atoms: N7_25  and  C7_27
REMARK   11  A    between atoms: C7_27  and  O5_28
REMARK   12  A    between atoms: C7_27  and  C8_30
REMARK   13  A    between atoms: C9_33  and  C10_34
ROOT
HETATM    1  C3  UNL     1      -1.004 -35.443 -10.928  1.00  0.00     0.111 A
HETATM    2  C4  UNL     1      -0.890 -34.809 -12.197  1.00  0.00     0.176 A
HETATM    3  N5  UNL     1      -1.698 -33.810 -12.538  1.00  0.00    -0.280 N
ATOM      4  H5  UNL     1      -1.580 -33.384 -13.457  1.00  0.00     0.188 HD
HETATM    5  N6  UNL     1      -2.648 -33.339 -11.748  1.00  0.00    -0.282 N
ATOM      6  H6  UNL     1      -3.243 -32.570 -12.055  1.00  0.00     0.188 HD
HETATM    7  C6  UNL     1      -2.815 -33.885 -10.545  1.00  0.00     0.149 A
HETATM    8  C12 UNL     1      -1.979 -34.953 -10.133  1.00  0.00     0.122 A
HETATM    9  N12 UNL     1      -2.258 -35.497  -8.845  1.00  0.00    -0.096 NA
ENDROOT
BRANCH   7  10
HETATM   10  N7  UNL     1      -3.716 -33.503  -9.756  1.00  0.00    -0.317 N
ATOM     11  H7  UNL     1      -4.361 -34.264  -9.542  1.00  0.00     0.169 HD
BRANCH  10  12
HETATM   12  C7  UNL     1      -4.083 -32.333  -9.090  1.00  0.00     0.187 C
BRANCH  12  13
HETATM   13  O5  UNL     1      -3.236 -31.241  -9.175  1.00  0.00    -0.343 OA
ATOM     14  H5  UNL     1      -3.201 -30.643  -8.438  1.00  0.00     0.219 HD
ENDBRANCH  12  13
BRANCH  12  15
HETATM   15  C8  UNL     1      -4.622 -32.534  -7.723  1.00  0.00     0.174 A
HETATM   16  N8  UNL     1      -4.034 -33.448  -6.937  1.00  0.00    -0.319 N
HETATM   17  C9  UNL     1      -4.499 -33.699  -5.693  1.00  0.00     0.200 A
ATOM     18  H8  UNL     1      -3.224 -33.961  -7.283  1.00  0.00     0.169 HD
HETATM   19  N9  UNL     1      -5.547 -33.049  -5.223  1.00  0.00    -0.170 N
HETATM   20  C11 UNL     1      -6.161 -32.128  -5.985  1.00  0.00     0.679 A
ATOM     21  H9  UNL     1      -5.891 -33.246  -4.283  1.00  0.00     0.186 HD
HETATM   22  N10 UNL     1      -7.209 -31.445  -5.611  1.00  0.00    -0.234 N
HETATM   23  N11 UNL     1      -5.692 -31.871  -7.243  1.00  0.00    -0.172 N
ATOM     24 2H10 UNL     1      -7.559 -31.637  -4.672  1.00  0.00     0.174 HD
ATOM     25 1H10 UNL     1      -7.675 -30.745  -6.189  1.00  0.00     0.174 HD
ATOM     26  H11 UNL     1      -6.156 -31.172  -7.824  1.00  0.00     0.186 HD
BRANCH  17  27
HETATM   27  C10 UNL     1      -3.781 -34.715  -4.885  1.00  0.00     0.245 C
HETATM   28  O6  UNL     1      -4.410 -35.514  -4.163  1.00  0.00    -0.642 OA
HETATM   29  O7  UNL     1      -2.408 -34.742  -4.954  1.00  0.00    -0.642 OA
ENDBRANCH  17  27
ENDBRANCH  12  15
ENDBRANCH  10  12
ENDBRANCH   7  10
BRANCH   1  30
HETATM   30  N1  UNL     1      -0.138 -36.490 -10.644  1.00  0.00    -0.323 N
HETATM   31  C2  UNL     1       1.196 -36.499 -10.210  1.00  0.00     0.218 C
HETATM   32  C1  UNL     1       1.893 -37.804  -9.964  1.00  0.00     0.117 C
HETATM   33  O1  UNL     1       1.881 -35.482 -10.000  1.00  0.00    -0.274 OA
ATOM     34  H1  UNL     1      -0.543 -37.417 -10.773  1.00  0.00     0.169 HD
ENDBRANCH   1  30
BRANCH   2  35
HETATM   35  N2  UNL     1       0.118 -35.324 -13.055  1.00  0.00    -0.178 N
BRANCH  35  36
HETATM   36  N3  UNL     1       1.371 -34.724 -13.074  1.00  0.00    -0.198 N
ATOM     37  H3  UNL     1       1.392 -33.705 -13.043  1.00  0.00     0.216 HD
BRANCH  36  38
HETATM   38  O2  UNL     1       2.460 -35.299 -13.125  1.00  0.00    -0.274 OA
ATOM     39  H2  UNL     1       3.191 -35.181 -12.530  1.00  0.00     0.246 HD
ENDBRANCH  36  38
ENDBRANCH  35  36
BRANCH  35  40
HETATM   40  C5  UNL     1      -0.137 -36.419 -13.888  1.00  0.00     0.266 C
BRANCH  40  41
HETATM   41  O3  UNL     1      -1.230 -37.232 -13.705  1.00  0.00    -0.330 OA
ATOM     42  H3  UNL     1      -1.592 -37.753 -14.412  1.00  0.00     0.221 HD
ENDBRANCH  40  41
BRANCH  40  43
HETATM   43  N4  UNL     1       0.648 -36.735 -14.886  1.00  0.00    -0.231 N
ATOM     44  H4  UNL     1       0.470 -36.427 -15.843  1.00  0.00     0.198 HD
BRANCH  43  45
HETATM   45  O4  UNL     1       1.742 -37.519 -14.549  1.00  0.00    -0.287 OA
ATOM     46  H4  UNL     1       2.403 -37.602 -15.227  1.00  0.00     0.244 HD
ENDBRANCH  43  45
ENDBRANCH  40  43
ENDBRANCH  35  40
ENDBRANCH   2  35
TORSDOF 13
ENDMDL