MODEL 2
REMARK VINA RESULT: -8.300486415      2.808      3.772
REMARK  12 active torsions:
REMARK  status: ('A' for Active; 'I' for Inactive)
REMARK    1  A    between atoms: C2_7  and  C3_8
REMARK    2  A    between atoms: C4_11  and  C5_12
REMARK       I    between atoms: C5_12  and  N5_14
REMARK    3  A    between atoms: N5_14  and  C6_16
REMARK    4  A    between atoms: C6_16  and  N6_17
REMARK    5  A    between atoms: C6_16  and  C7_21
REMARK       I    between atoms: C7_21  and  N7_23
REMARK    6  A    between atoms: N7_23  and  N8_25
REMARK    7  A    between atoms: N8_25  and  C8_26
REMARK    8  A    between atoms: C8_26  and  N9_27
REMARK    9  A    between atoms: C8_26  and  C9_31
REMARK   10  A    between atoms: C10_33  and  O4_34
REMARK   11  A    between atoms: C11_36  and  O5_37
REMARK   12  A    between atoms: C12_39  and  O6_40
ROOT
HETATM    1  C6  UNL     1      -1.996 -35.051  -7.008  1.00  0.00     0.378 C
ENDROOT
BRANCH   1   2
HETATM    2  N5  UNL     1      -1.882 -35.111  -8.445  1.00  0.00    -0.319 N
HETATM    3  C5  UNL     1      -0.648 -35.008  -9.090  1.00  0.00     0.289 C
HETATM    4  O1  UNL     1       0.397 -34.859  -8.384  1.00  0.00    -0.264 OA
ATOM      5  H5  UNL     1      -2.726 -35.231  -9.005  1.00  0.00     0.165 HD
BRANCH   3   6
HETATM    6  C4  UNL     1      -0.534 -35.064 -10.560  1.00  0.00     0.197 A
HETATM    7  N4  UNL     1       0.192 -35.948 -11.279  1.00  0.00    -0.312 N
HETATM    8  C3  UNL     1       0.046 -35.674 -12.605  1.00  0.00     0.219 A
ATOM      9  H4  UNL     1       0.760 -36.700 -10.890  1.00  0.00     0.170 HD
HETATM   10  O7  UNL     1      -0.769 -34.630 -12.647  1.00  0.00    -0.214 OA
HETATM   11  N10 UNL     1      -1.113 -34.266 -11.460  1.00  0.00    -0.238 N
ATOM     12  H10 UNL     1      -1.734 -33.487 -11.241  1.00  0.00     0.197 HD
BRANCH   8  13
HETATM   13  C2  UNL     1       0.652 -36.372 -13.731  1.00  0.00     0.191 A
HETATM   14  N3  UNL     1       1.619 -37.298 -13.655  1.00  0.00    -0.265 N
HETATM   15  N2  UNL     1       1.889 -37.699 -14.904  1.00  0.00    -0.225 N
ATOM     16  H3  UNL     1       2.068 -37.635 -12.803  1.00  0.00     0.190 HD
HETATM   17  N1  UNL     1       1.124 -37.055 -15.751  1.00  0.00    -0.223 N
ATOM     18  H2  UNL     1       2.585 -38.400 -15.158  1.00  0.00     0.210 HD
HETATM   19  C1  UNL     1       1.047 -37.145 -17.198  1.00  0.00     0.202 C
HETATM   20  N11 UNL     1       0.366 -36.241 -15.034  1.00  0.00    -0.263 N
ATOM     21  H11 UNL     1      -0.334 -35.607 -15.417  1.00  0.00     0.190 HD
ENDBRANCH   8  13
ENDBRANCH   3   6
ENDBRANCH   1   2
BRANCH   1  22
HETATM   22  N6  UNL     1      -1.574 -36.320  -6.469  1.00  0.00    -0.049 N
ATOM     23  H63 UNL     1      -1.547 -37.057  -7.173  1.00  0.00     0.277 HD
ATOM     24  H62 UNL     1      -0.585 -36.332  -6.219  1.00  0.00     0.277 HD
ATOM     25  H61 UNL     1      -2.180 -36.550  -5.681  1.00  0.00     0.277 HD
ENDBRANCH   1  22
BRANCH   1  26
HETATM   26  C7  UNL     1      -3.399 -34.733  -6.591  1.00  0.00     0.283 C
HETATM   27  O2  UNL     1      -4.203 -34.209  -7.399  1.00  0.00    -0.268 OA
HETATM   28  N7  UNL     1      -3.801 -35.031  -5.270  1.00  0.00    -0.268 N
ATOM     29  H7  UNL     1      -3.122 -35.463  -4.643  1.00  0.00     0.185 HD
BRANCH  28  30
HETATM   30  N8  UNL     1      -5.073 -34.765  -4.783  1.00  0.00    -0.098 NA
BRANCH  30  31
HETATM   31  C8  UNL     1      -5.096 -33.530  -3.967  1.00  0.00     0.355 C
BRANCH  31  32
HETATM   32  N9  UNL     1      -6.071 -32.636  -4.559  1.00  0.00    -0.053 N
ATOM     33  H93 UNL     1      -5.681 -31.726  -4.801  1.00  0.00     0.276 HD
ATOM     34  H92 UNL     1      -6.349 -32.917  -5.499  1.00  0.00     0.276 HD
ATOM     35  H91 UNL     1      -6.858 -32.574  -3.914  1.00  0.00     0.276 HD
ENDBRANCH  31  32
BRANCH  31  36
HETATM   36  C9  UNL     1      -5.394 -33.855  -2.560  1.00  0.00     0.139 A
HETATM   37  O3  UNL     1      -5.877 -35.043  -2.162  1.00  0.00    -0.284 OA
HETATM   38  C10 UNL     1      -6.049 -35.054  -0.877  1.00  0.00     0.220 A
HETATM   39  C11 UNL     1      -5.674 -33.839  -0.360  1.00  0.00     0.160 A
HETATM   40  C12 UNL     1      -5.252 -33.071  -1.458  1.00  0.00     0.137 A
BRANCH  38  41
HETATM   41  O4  UNL     1      -6.541 -36.146  -0.146  1.00  0.00    -0.339 OA
ATOM     42  H4  UNL     1      -6.865 -36.098   0.746  1.00  0.00     0.220 HD
ENDBRANCH  38  41
BRANCH  39  43
HETATM   43  O5  UNL     1      -5.701 -33.435   0.958  1.00  0.00    -0.354 OA
ATOM     44  H5  UNL     1      -4.969 -33.352   1.558  1.00  0.00     0.218 HD
ENDBRANCH  39  43
BRANCH  40  45
HETATM   45  O6  UNL     1      -4.806 -31.791  -1.298  1.00  0.00    -0.356 OA
ATOM     46  H6  UNL     1      -3.933 -31.417  -1.305  1.00  0.00     0.218 HD
ENDBRANCH  40  45
ENDBRANCH  31  36
ENDBRANCH  30  31
ENDBRANCH  28  30
ENDBRANCH   1  26
TORSDOF 12
ENDMDL