MODEL 3
REMARK VINA RESULT: -7.792778119      1.607      2.795
REMARK  14 active torsions:
REMARK  status: ('A' for Active; 'I' for Inactive)
REMARK       I    between atoms: C2_2  and  N1_4
REMARK    1  A    between atoms: C4_6  and  C5_7
REMARK       I    between atoms: C5_7  and  N2_9
REMARK    2  A    between atoms: N2_9  and  N3_11
REMARK       I    between atoms: N3_11  and  C6_13
REMARK    3  A    between atoms: C6_13  and  C7_15
REMARK    4  A    between atoms: C7_15  and  N4_16
REMARK    5  A    between atoms: C7_15  and  C8_20
REMARK    6  A    between atoms: C8_20  and  N5_21
REMARK    7  A    between atoms: C9_25  and  N7_26
REMARK    8  A    between atoms: N7_26  and  O4_27
REMARK    9  A    between atoms: N7_26  and  N8_29
REMARK   10  A    between atoms: N8_29  and  N9_31
REMARK   11  A    between atoms: C10_34  and  N10_35
REMARK   12  A    between atoms: N10_35  and  O5_37
REMARK   13  A    between atoms: C11_39  and  O6_40
REMARK   14  A    between atoms: C12_42  and  O7_43
ROOT
HETATM    1  C7  UNL     1      -5.088 -32.905   0.399  1.00  0.00     0.295 C
ENDROOT
BRANCH   1   2
HETATM    2  C6  UNL     1      -5.028 -33.417  -0.957  1.00  0.00     0.268 C
HETATM    3  N3  UNL     1      -5.039 -32.585  -2.104  1.00  0.00    -0.265 N
ATOM      4  H3  UNL     1      -5.102 -31.574  -1.987  1.00  0.00     0.190 HD
HETATM    5  O3  UNL     1      -4.952 -34.684  -1.155  1.00  0.00    -0.269 OA
BRANCH   3   6
HETATM    6  N2  UNL     1      -4.967 -33.116  -3.377  1.00  0.00    -0.263 N
HETATM    7  C5  UNL     1      -5.857 -33.151  -4.411  1.00  0.00     0.274 C
HETATM    8  O2  UNL     1      -7.027 -32.662  -4.346  1.00  0.00    -0.266 OA
ATOM      9  H2  UNL     1      -4.077 -33.569  -3.585  1.00  0.00     0.190 HD
BRANCH   7  10
HETATM   10  C4  UNL     1      -5.416 -33.798  -5.680  1.00  0.00     0.087 A
HETATM   11  C3  UNL     1      -5.768 -33.449  -6.943  1.00  0.00     0.122 A
HETATM   12  N1  UNL     1      -5.205 -34.259  -7.860  1.00  0.00    -0.270 N
HETATM   13  C2  UNL     1      -5.353 -34.152  -9.272  1.00  0.00     0.226 C
HETATM   14  C12 UNL     1      -4.477 -35.146  -7.164  1.00  0.00     0.184 A
HETATM   15  C1  UNL     1      -4.742 -35.062 -10.240  1.00  0.00     0.118 C
HETATM   16  O1  UNL     1      -6.055 -33.211  -9.727  1.00  0.00    -0.273 OA
HETATM   17  C11 UNL     1      -4.593 -34.878  -5.801  1.00  0.00     0.134 A
BRANCH  14  18
HETATM   18  O7  UNL     1      -3.729 -36.163  -7.696  1.00  0.00    -0.344 OA
ATOM     19  H7  UNL     1      -3.334 -36.877  -7.209  1.00  0.00     0.219 HD
ENDBRANCH  14  18
BRANCH  17  20
HETATM   20  O6  UNL     1      -3.959 -35.617  -4.779  1.00  0.00    -0.356 OA
ATOM     21  H6  UNL     1      -4.018 -36.549  -4.600  1.00  0.00     0.218 HD
ENDBRANCH  17  20
ENDBRANCH   7  10
ENDBRANCH   3   6
ENDBRANCH   1   2
BRANCH   1  22
HETATM   22  N4  UNL     1      -5.408 -33.962   1.356  1.00  0.00    -0.065 N
ATOM     23  H43 UNL     1      -4.564 -34.359   1.769  1.00  0.00     0.275 HD
ATOM     24  H42 UNL     1      -5.834 -33.583   2.202  1.00  0.00     0.275 HD
ATOM     25  H41 UNL     1      -5.992 -34.683   0.933  1.00  0.00     0.275 HD
ENDBRANCH   1  22
BRANCH   1  26
HETATM   26  C8  UNL     1      -6.010 -31.739   0.512  1.00  0.00     0.183 C
BRANCH  26  27
HETATM   27  N5  UNL     1      -5.282 -30.517   0.904  1.00  0.00    -0.282 N
HETATM   28  S1  UNL     1      -4.763 -30.164   2.506  1.00  0.00     0.072 SA
HETATM   29  N6  UNL     1      -4.013 -28.702   2.203  1.00  0.00    -0.292 N
HETATM   30  C9  UNL     1      -4.174 -28.522   0.903  1.00  0.00     0.207 A
ATOM     31  H6  UNL     1      -3.539 -28.089   2.867  1.00  0.00     0.177 HD
HETATM   32  C10 UNL     1      -4.848 -29.480   0.202  1.00  0.00     0.184 A
BRANCH  30  33
HETATM   33  N7  UNL     1      -3.593 -27.320   0.319  1.00  0.00    -0.128 N
BRANCH  33  34
HETATM   34  O4  UNL     1      -2.865 -27.345  -0.832  1.00  0.00    -0.265 OA
ATOM     35  H4  UNL     1      -1.927 -27.189  -0.846  1.00  0.00     0.247 HD
ENDBRANCH  33  34
BRANCH  33  36
HETATM   36  N8  UNL     1      -3.768 -26.223   0.902  1.00  0.00    -0.221 N
ATOM     37  H8  UNL     1      -4.747 -26.001   1.087  1.00  0.00     0.210 HD
BRANCH  36  38
HETATM   38  N9  UNL     1      -2.909 -25.290   1.326  1.00  0.00    -0.329 N
ATOM     39  H92 UNL     1      -2.281 -25.633   2.053  1.00  0.00     0.178 HD
ATOM     40  H91 UNL     1      -2.774 -24.316   1.055  1.00  0.00     0.178 HD
ENDBRANCH  36  38
ENDBRANCH  33  36
ENDBRANCH  30  33
BRANCH  32  41
HETATM   41  N10 UNL     1      -5.002 -29.344  -1.080  1.00  0.00    -0.249 N
ATOM     42  H10 UNL     1      -5.815 -28.828  -1.418  1.00  0.00     0.196 HD
BRANCH  41  43
HETATM   43  O5  UNL     1      -4.151 -29.844  -1.978  1.00  0.00    -0.288 OA
ATOM     44  H5  UNL     1      -3.461 -29.332  -2.384  1.00  0.00     0.244 HD
ENDBRANCH  41  43
ENDBRANCH  32  41
ENDBRANCH  26  27
ENDBRANCH   1  26
TORSDOF 14
ENDMDL