MODEL 3
REMARK VINA RESULT: -8.539018375      8.566     10.048
REMARK  9 active torsions:
REMARK  status: ('A' for Active; 'I' for Inactive)
REMARK    1  A    between atoms: N1_1  and  C1_4
REMARK    2  A    between atoms: C2_9  and  C3_10
REMARK    3  A    between atoms: C4_17  and  N8_18
REMARK    4  A    between atoms: N9_20  and  N10_22
REMARK       I    between atoms: N10_22  and  C5_24
REMARK    5  A    between atoms: C5_24  and  C6_26
REMARK    6  A    between atoms: C6_26  and  C7_34
REMARK    7  A    between atoms: N11_27  and  N12_29
REMARK    8  A    between atoms: N12_29  and  N13_31
REMARK    9  A    between atoms: C9_40  and  O3_41
ROOT
HETATM    1  N8  UNL     1      -3.908 -30.891 -10.290  1.00  0.00    -0.269 N
ATOM      2  H8  UNL     1      -4.324 -31.577  -9.659  1.00  0.00     0.190 HD
HETATM    3  N9  UNL     1      -4.056 -31.046 -11.518  1.00  0.00    -0.238 N
ATOM      4  H9  UNL     1      -4.590 -31.860 -11.824  1.00  0.00     0.208 HD
ENDROOT
BRANCH   3   5
HETATM    5  N10 UNL     1      -3.554 -30.203 -12.509  1.00  0.00    -0.250 N
HETATM    6  C5  UNL     1      -4.420 -29.722 -13.541  1.00  0.00     0.290 C
HETATM    7  O2  UNL     1      -5.609 -30.135 -13.438  1.00  0.00    -0.264 OA
ATOM      8  H10 UNL     1      -2.571 -29.931 -12.498  1.00  0.00     0.192 HD
BRANCH   6   9
HETATM    9  C6  UNL     1      -4.015 -28.855 -14.607  1.00  0.00     0.136 C
HETATM   10  N11 UNL     1      -3.476 -29.379 -15.622  1.00  0.00    -0.281 N
ATOM     11  H11 UNL     1      -3.261 -28.613 -16.261  1.00  0.00     0.188 HD
BRANCH  10  12
HETATM   12  N12 UNL     1      -3.078 -30.462 -16.203  1.00  0.00    -0.249 N
ATOM     13  H12 UNL     1      -2.721 -31.227 -15.632  1.00  0.00     0.207 HD
BRANCH  12  14
HETATM   14  N13 UNL     1      -3.121 -30.620 -17.617  1.00  0.00    -0.331 N
ATOM     15 2H13 UNL     1      -4.011 -30.882 -18.041  1.00  0.00     0.178 HD
ATOM     16 1H13 UNL     1      -2.299 -30.481 -18.204  1.00  0.00     0.178 HD
ENDBRANCH  12  14
ENDBRANCH  10  12
BRANCH   9  17
HETATM   17  C7  UNL     1      -4.179 -27.355 -14.619  1.00  0.00     0.082 A
HETATM   18  C8  UNL     1      -3.069 -26.593 -15.048  1.00  0.00     0.120 A
HETATM   19  N14 UNL     1      -1.782 -27.054 -15.483  1.00  0.00    -0.092 NA
HETATM   20  S1  UNL     1      -3.631 -25.000 -14.925  1.00  0.00     0.003 SA
HETATM   21  N15 UNL     1      -5.166 -25.282 -14.366  1.00  0.00    -0.305 N
HETATM   22  C9  UNL     1      -5.248 -26.628 -14.274  1.00  0.00     0.161 A
ATOM     23  H15 UNL     1      -5.886 -24.595 -14.144  1.00  0.00     0.176 HD
BRANCH  22  24
HETATM   24  O3  UNL     1      -6.391 -27.082 -13.846  1.00  0.00    -0.345 OA
ATOM     25  H3  UNL     1      -7.253 -26.829 -14.156  1.00  0.00     0.219 HD
ENDBRANCH  22  24
ENDBRANCH   9  17
ENDBRANCH   6   9
ENDBRANCH   3   5
BRANCH   1  26
HETATM   26  C4  UNL     1      -3.186 -29.803  -9.727  1.00  0.00     0.156 A
HETATM   27  C2  UNL     1      -3.627 -28.517  -9.512  1.00  0.00     0.158 A
HETATM   28  N3  UNL     1      -2.648 -27.780  -8.962  1.00  0.00    -0.169 N
HETATM   29  O1  UNL     1      -2.296 -26.612  -8.506  1.00  0.00    -0.146 OA
HETATM   30  C10 UNL     1      -1.580 -28.611  -8.829  1.00  0.00     0.183 A
HETATM   31  N2  UNL     1      -1.071 -26.625  -8.084  1.00  0.00    -0.222 N
HETATM   32  C1  UNL     1      -0.572 -27.853  -8.262  1.00  0.00     0.168 A
ATOM     33  H2  UNL     1      -0.571 -25.831  -7.684  1.00  0.00     0.198 HD
HETATM   34  N16 UNL     1      -1.895 -29.844  -9.290  1.00  0.00    -0.320 N
ATOM     35  H16 UNL     1      -1.279 -30.656  -9.309  1.00  0.00     0.169 HD
BRANCH  27  36
HETATM   36  C3  UNL     1      -4.952 -28.011  -9.828  1.00  0.00     0.165 A
HETATM   37  N4  UNL     1      -5.328 -27.276 -10.889  1.00  0.00    -0.268 N
HETATM   38  N5  UNL     1      -6.620 -27.017 -10.812  1.00  0.00    -0.007 NA
ATOM     39  H4  UNL     1      -4.709 -26.967 -11.639  1.00  0.00     0.185 HD
HETATM   40  N6  UNL     1      -7.103 -27.570  -9.715  1.00  0.00    -0.007 NA
HETATM   41  N7  UNL     1      -6.086 -28.172  -9.123  1.00  0.00    -0.268 N
ATOM     42  H7  UNL     1      -6.153 -28.689  -8.247  1.00  0.00     0.185 HD
ENDBRANCH  27  36
BRANCH  32  43
HETATM   43  N1  UNL     1       0.618 -28.270  -7.968  1.00  0.00    -0.381 N
ATOM     44  H12 UNL     1       1.482 -27.739  -8.079  1.00  0.00     0.157 HD
ATOM     45  H11 UNL     1       0.879 -29.178  -7.585  1.00  0.00     0.157 HD
ENDBRANCH  32  43
ENDBRANCH   1  26
TORSDOF 9
ENDMDL