MODEL 3
REMARK VINA RESULT: -8.310065351      3.351      6.261
REMARK  10 active torsions:
REMARK  status: ('A' for Active; 'I' for Inactive)
REMARK    1  A    between atoms: N1_4  and  N2_6
REMARK    2  A    between atoms: N2_6  and  C4_8
REMARK    3  A    between atoms: C5_11  and  N4_12
REMARK    4  A    between atoms: C6_18  and  C8_20
REMARK    5  A    between atoms: N6_23  and  N7_24
REMARK    6  A    between atoms: N7_24  and  C9_26
REMARK    7  A    between atoms: C10_29  and  C11_30
REMARK    8  A    between atoms: C11_30  and  O3_31
REMARK    9  A    between atoms: C11_30  and  N9_33
REMARK   10  A    between atoms: C13_42  and  N14_43
ROOT
HETATM    1  N7  UNL     1      -0.092 -35.142 -12.331  1.00  0.00    -0.112 N
ATOM      2  H7  UNL     1       0.375 -34.245 -12.465  1.00  0.00     0.206 HD
ENDROOT
BRANCH   1   3
HETATM    3  N6  UNL     1      -0.426 -35.319 -11.012  1.00  0.00    -0.068 N
HETATM    4  C4  UNL     1       0.611 -35.666 -10.074  1.00  0.00     0.715 C
HETATM    5  N3  UNL     1       0.549 -35.152  -8.879  1.00  0.00    -0.177 N
HETATM    6  C5  UNL     1      -0.550 -34.275  -8.558  1.00  0.00     0.399 C
ATOM      7  H3  UNL     1       1.264 -35.364  -8.184  1.00  0.00     0.181 HD
HETATM    8  N5  UNL     1      -1.763 -34.677  -9.109  1.00  0.00    -0.343 N
HETATM    9  C6  UNL     1      -1.719 -35.047 -10.513  1.00  0.00     0.228 C
ATOM     10  H5  UNL     1      -2.625 -34.708  -8.564  1.00  0.00     0.160 HD
HETATM   11  C7  UNL     1      -2.098 -33.617 -11.163  1.00  0.00     0.078 C
BRANCH   4  12
HETATM   12  N2  UNL     1       1.685 -36.519 -10.402  1.00  0.00    -0.131 N
ATOM     13  H2  UNL     1       2.407 -36.214 -11.055  1.00  0.00     0.205 HD
BRANCH  12  14
HETATM   14  N1  UNL     1       1.748 -37.762  -9.834  1.00  0.00    -0.295 N
HETATM   15  C2  UNL     1       2.281 -38.782 -10.444  1.00  0.00    -0.004 C
HETATM   16  C1  UNL     1       2.266 -40.048  -9.673  1.00  0.00     0.064 C
HETATM   17  C3  UNL     1       2.857 -38.740 -11.800  1.00  0.00     0.064 C
ATOM     18  H1  UNL     1       1.364 -37.896  -8.899  1.00  0.00     0.186 HD
ENDBRANCH  12  14
ENDBRANCH   4  12
BRANCH   6  19
HETATM   19  N4  UNL     1      -0.662 -34.152  -7.107  1.00  0.00    -0.040 N
ATOM     20  H43 UNL     1      -1.505 -34.598  -6.744  1.00  0.00     0.279 HD
ATOM     21  H42 UNL     1       0.026 -34.723  -6.616  1.00  0.00     0.279 HD
ATOM     22  H41 UNL     1      -0.603 -33.167  -6.846  1.00  0.00     0.279 HD
ENDBRANCH   6  19
BRANCH   9  23
HETATM   23  C8  UNL     1      -2.845 -35.897 -10.780  1.00  0.00     0.226 C
HETATM   24  O1  UNL     1      -2.865 -36.649 -11.806  1.00  0.00    -0.645 OA
HETATM   25  O2  UNL     1      -4.015 -35.971  -9.971  1.00  0.00    -0.645 OA
ENDBRANCH   9  23
ENDBRANCH   1   3
BRANCH   1  26
HETATM   26  C9  UNL     1      -0.200 -35.815 -13.526  1.00  0.00     0.713 A
HETATM   27  N8  UNL     1      -1.247 -35.950 -14.352  1.00  0.00    -0.173 N
HETATM   28  C10 UNL     1      -1.218 -36.634 -15.508  1.00  0.00     0.165 A
ATOM     29  H8  UNL     1      -2.124 -35.504 -14.085  1.00  0.00     0.185 HD
HETATM   30  N13 UNL     1      -0.062 -37.208 -15.851  1.00  0.00    -0.175 N
HETATM   31  C13 UNL     1       1.021 -37.135 -15.102  1.00  0.00     0.692 A
ATOM     32  H13 UNL     1      -0.014 -37.724 -16.729  1.00  0.00     0.185 HD
HETATM   33  N15 UNL     1       0.938 -36.452 -13.962  1.00  0.00    -0.021 N
ATOM     34  H15 UNL     1       1.772 -36.398 -13.376  1.00  0.00     0.203 HD
BRANCH  28  35
HETATM   35  C11 UNL     1      -2.341 -36.798 -16.455  1.00  0.00     0.332 C
BRANCH  35  36
HETATM   36  O3  UNL     1      -1.939 -36.873 -17.793  1.00  0.00    -0.367 OA
ATOM     37  H3  UNL     1      -2.290 -36.176 -18.335  1.00  0.00     0.212 HD
ENDBRANCH  35  36
BRANCH  35  38
HETATM   38  N9  UNL     1      -3.046 -38.052 -16.139  1.00  0.00    -0.163 N
HETATM   39  N10 UNL     1      -2.890 -39.283 -16.548  1.00  0.00    -0.206 N
HETATM   40  N11 UNL     1      -3.890 -39.659 -15.792  1.00  0.00    -0.209 N
ATOM     41  H10 UNL     1      -2.254 -39.755 -17.191  1.00  0.00     0.212 HD
HETATM   42  N12 UNL     1      -4.041 -38.415 -15.380  1.00  0.00    -0.202 N
ATOM     43  H11 UNL     1      -4.358 -40.545 -15.602  1.00  0.00     0.211 HD
HETATM   44  C12 UNL     1      -4.968 -37.779 -14.454  1.00  0.00     0.203 C
ENDBRANCH  35  38
ENDBRANCH  28  35
BRANCH  31  45
HETATM   45  N14 UNL     1       2.110 -37.730 -15.521  1.00  0.00    -0.234 N
ATOM     46 2H14 UNL     1       2.572 -38.488 -15.019  1.00  0.00     0.174 HD
ATOM     47 1H14 UNL     1       2.528 -37.417 -16.397  1.00  0.00     0.174 HD
ENDBRANCH  31  45
ENDBRANCH   1  26
TORSDOF 10
ENDMDL