MODEL 3
REMARK VINA RESULT: -7.974556037      3.155      9.383
REMARK  11 active torsions:
REMARK  status: ('A' for Active; 'I' for Inactive)
REMARK    1  A    between atoms: C2_2  and  O1_3
REMARK    2  A    between atoms: O1_3  and  C3_4
REMARK    3  A    between atoms: C4_9  and  N3_10
REMARK    4  A    between atoms: N3_10  and  N4_12
REMARK    5  A    between atoms: C5_15  and  N5_16
REMARK    6  A    between atoms: C6_19  and  C7_20
REMARK    7  A    between atoms: C7_20  and  O4_21
REMARK    8  A    between atoms: C7_20  and  C8_23
REMARK    9  A    between atoms: C8_23  and  N6_24
REMARK   10  A    between atoms: C9_29  and  C10_30
REMARK   11  A    between atoms: C12_35  and  N11_36
ROOT
HETATM    1  N6  UNL     1      -1.960 -34.478 -10.660  1.00  0.00    -0.212 N
HETATM    2  N7  UNL     1      -1.627 -33.277 -10.282  1.00  0.00    -0.224 N
ATOM      3  H7  UNL     1      -1.120 -32.608 -10.860  1.00  0.00     0.210 HD
HETATM    4  N8  UNL     1      -2.034 -33.039  -9.046  1.00  0.00    -0.268 N
ATOM      5  H8  UNL     1      -1.898 -32.175  -8.522  1.00  0.00     0.190 HD
HETATM    6  C9  UNL     1      -2.671 -34.161  -8.598  1.00  0.00     0.154 A
HETATM    7  N14 UNL     1      -2.596 -35.017  -9.633  1.00  0.00    -0.265 N
ATOM      8  H14 UNL     1      -2.981 -35.962  -9.627  1.00  0.00     0.190 HD
ENDROOT
BRANCH   1   9
HETATM    9  C8  UNL     1      -1.735 -35.209 -11.917  1.00  0.00     0.236 C
BRANCH   9  10
HETATM   10  C7  UNL     1      -0.322 -35.247 -12.240  1.00  0.00     0.081 C
BRANCH  10  11
HETATM   11  C6  UNL     1       0.624 -36.276 -12.440  1.00  0.00     0.084 A
HETATM   12  C3  UNL     1       0.948 -36.629 -13.767  1.00  0.00     0.172 A
HETATM   13  N1  UNL     1       1.852 -37.582 -14.027  1.00  0.00    -0.278 N
HETATM   14  N2  UNL     1       2.483 -38.240 -13.083  1.00  0.00    -0.280 N
ATOM     15  H1  UNL     1       2.059 -37.807 -15.000  1.00  0.00     0.189 HD
HETATM   16  C4  UNL     1       2.240 -37.974 -11.768  1.00  0.00     0.169 A
ATOM     17  H2  UNL     1       3.163 -38.958 -13.334  1.00  0.00     0.188 HD
HETATM   18  C5  UNL     1       1.294 -36.973 -11.484  1.00  0.00     0.166 A
BRANCH  12  19
HETATM   19  O1  UNL     1       0.350 -36.008 -14.861  1.00  0.00    -0.334 OA
BRANCH  19  20
HETATM   20  C2  UNL     1      -0.234 -36.751 -15.911  1.00  0.00     0.173 C
HETATM   21  C1  UNL     1       0.546 -36.649 -17.190  1.00  0.00     0.034 C
ENDBRANCH  19  20
ENDBRANCH  12  19
BRANCH  16  22
HETATM   22  N3  UNL     1       2.858 -38.641 -10.906  1.00  0.00    -0.289 N
ATOM     23  H3  UNL     1       3.665 -38.130 -10.548  1.00  0.00     0.188 HD
BRANCH  22  24
HETATM   24  N4  UNL     1       2.744 -39.845 -10.327  1.00  0.00    -0.344 N
ATOM     25  H42 UNL     1       3.668 -40.202 -10.083  1.00  0.00     0.176 HD
ATOM     26  H41 UNL     1       1.991 -40.484 -10.072  1.00  0.00     0.176 HD
ENDBRANCH  22  24
ENDBRANCH  16  22
BRANCH  18  27
HETATM   27  N5  UNL     1       1.088 -36.760 -10.113  1.00  0.00    -0.111 N
HETATM   28  O2  UNL     1       0.647 -37.662  -9.339  1.00  0.00    -0.532 OA
HETATM   29  O3  UNL     1       1.364 -35.527  -9.579  1.00  0.00    -0.532 OA
ENDBRANCH  18  27
ENDBRANCH  10  11
BRANCH  10  30
HETATM   30  O4  UNL     1       0.182 -34.028 -12.375  1.00  0.00    -0.362 OA
ATOM     31  H4  UNL     1       1.129 -34.011 -12.437  1.00  0.00     0.217 HD
ENDBRANCH  10  30
ENDBRANCH   9  10
ENDBRANCH   1   9
BRANCH   6  32
HETATM   32  C10 UNL     1      -3.276 -34.332  -7.281  1.00  0.00     0.096 A
HETATM   33  C11 UNL     1      -2.537 -34.746  -6.193  1.00  0.00     0.149 A
HETATM   34  N9  UNL     1      -1.161 -35.005  -6.369  1.00  0.00    -0.081 NA
HETATM   35  N10 UNL     1      -3.073 -34.912  -4.972  1.00  0.00    -0.178 N
HETATM   36  C12 UNL     1      -4.367 -34.672  -4.789  1.00  0.00     0.678 A
ATOM     37  H10 UNL     1      -2.492 -35.220  -4.193  1.00  0.00     0.185 HD
HETATM   38  N12 UNL     1      -5.120 -34.267  -5.826  1.00  0.00    -0.176 N
HETATM   39  C13 UNL     1      -4.617 -34.089  -7.062  1.00  0.00     0.132 A
ATOM     40  H12 UNL     1      -6.112 -34.087  -5.671  1.00  0.00     0.186 HD
HETATM   41  N13 UNL     1      -5.329 -33.703  -8.060  1.00  0.00    -0.384 N
ATOM     42 2H13 UNL     1      -4.947 -33.569  -8.996  1.00  0.00     0.157 HD
ATOM     43 1H13 UNL     1      -6.319 -33.524  -7.897  1.00  0.00     0.157 HD
BRANCH  36  44
HETATM   44  N11 UNL     1      -4.899 -34.833  -3.599  1.00  0.00    -0.234 N
ATOM     45 2H11 UNL     1      -4.553 -35.557  -2.969  1.00  0.00     0.174 HD
ATOM     46 1H11 UNL     1      -5.665 -34.229  -3.300  1.00  0.00     0.174 HD
ENDBRANCH  36  44
ENDBRANCH   6  32
TORSDOF 11
ENDMDL