MODEL 5
REMARK VINA RESULT: -8.197947520      0.740      1.472
REMARK  9 active torsions:
REMARK  status: ('A' for Active; 'I' for Inactive)
REMARK    1  A    between atoms: N1_2  and  N2_4
REMARK       I    between atoms: N2_4  and  C2_6
REMARK    2  A    between atoms: C2_6  and  C3_8
REMARK    3  A    between atoms: N3_10  and  C5_11
REMARK    4  A    between atoms: C6_12  and  C7_13
REMARK    5  A    between atoms: C8_19  and  N6_20
REMARK    6  A    between atoms: N6_20  and  N7_22
REMARK    7  A    between atoms: N9_27  and  C9_28
REMARK    8  A    between atoms: C11_38  and  C12_39
REMARK    9  A    between atoms: C12_39  and  O4_41
ROOT
HETATM    1  C5  UNL     1      -4.078 -33.177  -7.488  1.00  0.00     0.115 A
HETATM    2  C6  UNL     1      -5.217 -32.450  -7.349  1.00  0.00     0.112 A
HETATM    3  N8  UNL     1      -5.670 -32.641  -6.077  1.00  0.00    -0.287 N
ATOM      4  H8  UNL     1      -6.511 -32.216  -5.685  1.00  0.00     0.188 HD
HETATM    5  N9  UNL     1      -4.845 -33.474  -5.412  1.00  0.00    -0.234 N
HETATM    6  C11 UNL     1      -3.877 -33.816  -6.246  1.00  0.00     0.095 A
ENDROOT
BRANCH   1   7
HETATM    7  N3  UNL     1      -3.204 -33.328  -8.623  1.00  0.00    -0.246 N
HETATM    8  C4  UNL     1      -3.069 -34.425  -9.358  1.00  0.00     0.155 A
HETATM    9  C3  UNL     1      -2.176 -34.204 -10.362  1.00  0.00     0.136 A
HETATM   10  N14 UNL     1      -1.781 -32.929 -10.207  1.00  0.00    -0.279 N
HETATM   11  N13 UNL     1      -2.408 -32.424  -9.161  1.00  0.00    -0.235 N
ATOM     12  H14 UNL     1      -1.110 -32.435 -10.796  1.00  0.00     0.189 HD
ATOM     13  H13 UNL     1      -2.294 -31.470  -8.818  1.00  0.00     0.209 HD
BRANCH   9  14
HETATM   14  C2  UNL     1      -1.712 -35.180 -11.400  1.00  0.00     0.289 C
HETATM   15  N2  UNL     1      -0.713 -34.714 -12.246  1.00  0.00    -0.269 N
ATOM     16  H2  UNL     1      -0.382 -33.760 -12.101  1.00  0.00     0.190 HD
HETATM   17  O1  UNL     1      -2.281 -36.310 -11.388  1.00  0.00    -0.264 OA
BRANCH  15  18
HETATM   18  N1  UNL     1      -0.145 -35.430 -13.251  1.00  0.00    -0.338 N
HETATM   19  C1  UNL     1       1.260 -35.520 -13.217  1.00  0.00     0.167 C
ATOM     20  H1  UNL     1      -0.700 -35.874 -13.982  1.00  0.00     0.179 HD
ENDBRANCH  15  18
ENDBRANCH   9  14
ENDBRANCH   1   7
BRANCH   2  21
HETATM   21  C7  UNL     1      -5.904 -31.648  -8.337  1.00  0.00     0.134 A
HETATM   22  N4  UNL     1      -5.921 -30.313  -8.489  1.00  0.00    -0.236 N
HETATM   23  O2  UNL     1      -6.637 -29.982  -9.525  1.00  0.00    -0.155 OA
ATOM     24  H4  UNL     1      -5.440 -29.651  -7.879  1.00  0.00     0.197 HD
HETATM   25  N5  UNL     1      -7.115 -31.073 -10.087  1.00  0.00    -0.222 N
HETATM   26  C8  UNL     1      -6.678 -32.129  -9.369  1.00  0.00     0.173 A
ATOM     27  H5  UNL     1      -7.709 -31.113 -10.915  1.00  0.00     0.198 HD
BRANCH  26  28
HETATM   28  N6  UNL     1      -6.896 -33.380  -9.554  1.00  0.00    -0.289 N
ATOM     29  H6  UNL     1      -6.211 -33.922 -10.080  1.00  0.00     0.188 HD
BRANCH  28  30
HETATM   30  N7  UNL     1      -8.022 -34.025  -9.067  1.00  0.00    -0.344 N
ATOM     31  H72 UNL     1      -8.760 -33.448  -8.663  1.00  0.00     0.176 HD
ATOM     32  H71 UNL     1      -8.135 -35.039  -9.098  1.00  0.00     0.176 HD
ENDBRANCH  28  30
ENDBRANCH  26  28
ENDBRANCH   2  21
BRANCH   6  33
HETATM   33  C12 UNL     1      -2.686 -34.668  -6.022  1.00  0.00     0.168 C
HETATM   34  C13 UNL     1      -3.132 -36.139  -6.249  1.00  0.00     0.046 C
BRANCH  33  35
HETATM   35  O4  UNL     1      -2.317 -34.675  -4.634  1.00  0.00    -0.390 OA
ATOM     36  H4  UNL     1      -1.635 -35.316  -4.469  1.00  0.00     0.210 HD
ENDBRANCH  33  35
ENDBRANCH   6  33
BRANCH   5  37
HETATM   37  C9  UNL     1      -5.013 -33.776  -4.028  1.00  0.00     0.195 A
HETATM   38  N10 UNL     1      -5.280 -35.036  -3.553  1.00  0.00    -0.220 N
HETATM   39  O3  UNL     1      -5.308 -35.050  -2.263  1.00  0.00    -0.153 OA
ATOM     40  H10 UNL     1      -5.436 -35.854  -4.143  1.00  0.00     0.198 HD
HETATM   41  N11 UNL     1      -5.064 -33.821  -1.857  1.00  0.00    -0.222 N
HETATM   42  C10 UNL     1      -4.878 -33.009  -2.894  1.00  0.00     0.169 A
ATOM     43  H11 UNL     1      -5.022 -33.531  -0.880  1.00  0.00     0.198 HD
HETATM   44  N12 UNL     1      -4.629 -31.750  -2.898  1.00  0.00    -0.381 N
ATOM     45 2H12 UNL     1      -4.486 -31.128  -3.694  1.00  0.00     0.157 HD
ATOM     46 1H12 UNL     1      -4.529 -31.182  -2.057  1.00  0.00     0.157 HD
ENDBRANCH   5  37
TORSDOF 9
ENDMDL