MODEL 3
REMARK VINA RESULT: -8.353521036      3.961      7.948
REMARK  9 active torsions:
REMARK  status: ('A' for Active; 'I' for Inactive)
REMARK    1  A    between atoms: N1_2  and  C2_4
REMARK    2  A    between atoms: C3_5  and  C4_6
REMARK    3  A    between atoms: C4_6  and  S1_7
REMARK    4  A    between atoms: S1_7  and  C5_8
REMARK    5  A    between atoms: N5_13  and  C6_14
REMARK    6  A    between atoms: C8_19  and  C9_20
REMARK    7  A    between atoms: C9_20  and  N8_21
REMARK    8  A    between atoms: C9_20  and  N9_25
REMARK    9  A    between atoms: C12_35  and  N13_36
ROOT
HETATM    1  N9  UNL     1      -0.995 -27.589  -7.846  1.00  0.00    -0.293 N
ATOM      2  H9  UNL     1      -1.833 -27.745  -7.286  1.00  0.00     0.174 HD
HETATM    3  C10 UNL     1      -0.650 -26.305  -8.273  1.00  0.00     0.179 C
HETATM    4  N10 UNL     1      -0.375 -25.224  -8.634  1.00  0.00    -0.172 NA
ENDROOT
BRANCH   1   5
HETATM    5  C9  UNL     1      -0.146 -28.679  -8.212  1.00  0.00     0.358 C
BRANCH   5   6
HETATM    6  C8  UNL     1      -0.891 -29.978  -8.261  1.00  0.00     0.137 A
HETATM    7  N7  UNL     1      -0.358 -31.109  -7.767  1.00  0.00    -0.329 N
HETATM    8  C7  UNL     1      -1.003 -32.299  -7.796  1.00  0.00     0.152 A
ATOM      9  H7  UNL     1       0.573 -31.069  -7.352  1.00  0.00     0.168 HD
HETATM   10  C6  UNL     1      -2.263 -32.386  -8.350  1.00  0.00     0.165 A
HETATM   11  N6  UNL     1      -0.428 -33.469  -7.274  1.00  0.00    -0.080 NA
HETATM   12  C11 UNL     1      -2.803 -31.219  -8.855  1.00  0.00     0.278 A
HETATM   13  N11 UNL     1      -2.121 -30.061  -8.802  1.00  0.00    -0.308 N
HETATM   14  O1  UNL     1      -3.959 -31.290  -9.364  1.00  0.00    -0.265 OA
ATOM     15  H11 UNL     1      -2.550 -29.217  -9.184  1.00  0.00     0.170 HD
BRANCH  10  16
HETATM   16  N5  UNL     1      -3.010 -33.593  -8.418  1.00  0.00    -0.210 N
HETATM   17  C5  UNL     1      -3.092 -34.447  -9.480  1.00  0.00     0.178 A
HETATM   18  N2  UNL     1      -3.894 -35.445  -9.116  1.00  0.00    -0.264 N
HETATM   19  N3  UNL     1      -4.314 -35.244  -7.868  1.00  0.00    -0.006 NA
ATOM     20  H2  UNL     1      -4.148 -36.241  -9.701  1.00  0.00     0.186 HD
HETATM   21  N4  UNL     1      -3.765 -34.112  -7.459  1.00  0.00     0.001 NA
BRANCH  17  22
HETATM   22  S1  UNL     1      -2.223 -34.138 -11.007  1.00  0.00    -0.085 SA
BRANCH  22  23
HETATM   23  C4  UNL     1      -1.786 -35.694 -11.786  1.00  0.00     0.142 C
BRANCH  23  24
HETATM   24  C3  UNL     1      -0.461 -35.658 -12.435  1.00  0.00     0.066 A
HETATM   25  C2  UNL     1      -0.256 -36.325 -13.623  1.00  0.00     0.094 A
HETATM   26  C13 UNL     1       0.973 -36.282 -14.208  1.00  0.00     0.160 A
HETATM   27  N14 UNL     1       2.023 -35.607 -13.679  1.00  0.00    -0.177 N
HETATM   28  N15 UNL     1       1.188 -36.973 -15.439  1.00  0.00    -0.080 NA
HETATM   29  C12 UNL     1       1.777 -34.964 -12.505  1.00  0.00     0.677 A
ATOM     30  H14 UNL     1       2.937 -35.583 -14.130  1.00  0.00     0.185 HD
HETATM   31  N12 UNL     1       0.580 -34.984 -11.901  1.00  0.00    -0.193 N
ATOM     32  H12 UNL     1       0.455 -34.481 -11.022  1.00  0.00     0.184 HD
BRANCH  25  33
HETATM   33  N1  UNL     1      -1.289 -37.066 -14.270  1.00  0.00    -0.390 N
HETATM   34  C1  UNL     1      -2.136 -36.519 -15.300  1.00  0.00     0.146 C
ATOM     35  H1  UNL     1      -1.436 -38.036 -13.989  1.00  0.00     0.159 HD
ENDBRANCH  25  33
BRANCH  29  36
HETATM   36  N13 UNL     1       2.784 -34.321 -12.006  1.00  0.00    -0.234 N
ATOM     37 2H13 UNL     1       2.788 -34.242 -10.989  1.00  0.00     0.174 HD
ATOM     38 1H13 UNL     1       3.517 -33.928 -12.595  1.00  0.00     0.174 HD
ENDBRANCH  29  36
ENDBRANCH  23  24
ENDBRANCH  22  23
ENDBRANCH  17  22
ENDBRANCH  10  16
ENDBRANCH   5   6
BRANCH   5  39
HETATM   39  N8  UNL     1       0.977 -28.724  -7.307  1.00  0.00    -0.051 N
ATOM     40  H83 UNL     1       1.130 -27.817  -6.865  1.00  0.00     0.277 HD
ATOM     41  H82 UNL     1       0.759 -29.275  -6.478  1.00  0.00     0.277 HD
ATOM     42  H81 UNL     1       1.827 -29.060  -7.760  1.00  0.00     0.277 HD
ENDBRANCH   5  39
ENDBRANCH   1   5
TORSDOF 9
ENDMDL