MODEL 4
REMARK VINA RESULT: -8.227308762      5.927     10.861
REMARK  9 active torsions:
REMARK  status: ('A' for Active; 'I' for Inactive)
REMARK    1  A    between atoms: C1_4  and  C2_5
REMARK    2  A    between atoms: N3_8  and  C4_9
REMARK    3  A    between atoms: C4_9  and  C5_10
REMARK    4  A    between atoms: C5_10  and  C6_12
REMARK    5  A    between atoms: N6_17  and  C7_18
REMARK    6  A    between atoms: C9_22  and  N8_23
REMARK    7  A    between atoms: C14_33  and  N11_34
REMARK    8  A    between atoms: N11_34  and  N12_36
REMARK    9  A    between atoms: C15_43  and  N15_44
ROOT
HETATM    1  C6  UNL     1       0.186 -35.294  -9.347  1.00  0.00     0.186 A
HETATM    2  N4  UNL     1       1.495 -35.502  -9.697  1.00  0.00    -0.265 N
ATOM      3  H4  UNL     1       2.307 -35.444  -9.083  1.00  0.00     0.190 HD
HETATM    4  N5  UNL     1       1.498 -35.792 -10.983  1.00  0.00    -0.218 N
ATOM      5  H5  UNL     1       2.341 -35.996 -11.520  1.00  0.00     0.210 HD
HETATM    6  N6  UNL     1       0.275 -35.787 -11.497  1.00  0.00    -0.160 N
HETATM    7  N13 UNL     1      -0.505 -35.482 -10.482  1.00  0.00    -0.257 N
ATOM      8  H13 UNL     1      -1.519 -35.398 -10.551  1.00  0.00     0.191 HD
ENDROOT
BRANCH   6   9
HETATM    9  C7  UNL     1      -0.115 -36.060 -12.836  1.00  0.00     0.192 A
HETATM   10  N7  UNL     1      -1.393 -35.748 -13.214  1.00  0.00    -0.343 N
HETATM   11  C8  UNL     1      -1.809 -35.971 -14.478  1.00  0.00     0.138 A
ATOM     12  H7  UNL     1      -2.036 -35.344 -12.535  1.00  0.00     0.167 HD
HETATM   13  C9  UNL     1      -0.978 -36.515 -15.433  1.00  0.00     0.120 A
HETATM   14  N10 UNL     1       0.263 -36.811 -15.039  1.00  0.00    -0.323 N
HETATM   15  C14 UNL     1       0.725 -36.605 -13.779  1.00  0.00     0.169 A
ATOM     16  H10 UNL     1       0.900 -37.217 -15.724  1.00  0.00     0.169 HD
BRANCH  13  17
HETATM   17  N8  UNL     1      -1.396 -36.753 -16.769  1.00  0.00    -0.363 N
HETATM   18  C10 UNL     1      -2.822 -36.927 -17.086  1.00  0.00     0.152 C
HETATM   19  C11 UNL     1      -3.025 -38.365 -17.459  1.00  0.00     0.252 C
HETATM   20  N9  UNL     1      -1.784 -38.924 -17.915  1.00  0.00    -0.072 N
HETATM   21  C12 UNL     1      -0.984 -38.035 -18.720  1.00  0.00     0.252 C
ATOM     22  H92 UNL     1      -1.241 -39.272 -17.125  1.00  0.00     0.277 HD
ATOM     23  H91 UNL     1      -1.952 -39.797 -18.413  1.00  0.00     0.277 HD
HETATM   24  C13 UNL     1      -0.507 -36.836 -17.904  1.00  0.00     0.152 C
ENDBRANCH  13  17
BRANCH  15  25
HETATM   25  N11 UNL     1       2.052 -36.923 -13.381  1.00  0.00    -0.289 N
ATOM     26  H11 UNL     1       2.691 -36.199 -13.053  1.00  0.00     0.188 HD
BRANCH  25  27
HETATM   27  N12 UNL     1       2.452 -38.257 -13.453  1.00  0.00    -0.344 N
ATOM     28 2H12 UNL     1       1.981 -38.899 -14.091  1.00  0.00     0.176 HD
ATOM     29 1H12 UNL     1       3.220 -38.557 -12.852  1.00  0.00     0.176 HD
ENDBRANCH  25  27
ENDBRANCH  15  25
ENDBRANCH   6   9
BRANCH   1  30
HETATM   30  C5  UNL     1      -0.287 -34.958  -7.999  1.00  0.00     0.215 C
HETATM   31  O1  UNL     1      -0.095 -33.814  -7.550  1.00  0.00    -0.287 OA
BRANCH  30  32
HETATM   32  C4  UNL     1      -0.978 -35.974  -7.199  1.00  0.00     0.237 C
BRANCH  32  33
HETATM   33  N3  UNL     1      -2.406 -35.644  -7.149  1.00  0.00    -0.269 N
HETATM   34  C3  UNL     1      -3.013 -35.091  -6.056  1.00  0.00     0.148 A
HETATM   35  C2  UNL     1      -4.348 -34.909  -6.321  1.00  0.00     0.066 A
HETATM   36  N2  UNL     1      -2.363 -34.751  -4.836  1.00  0.00    -0.080 NA
HETATM   37  C15 UNL     1      -4.535 -35.373  -7.622  1.00  0.00     0.129 A
HETATM   38  N14 UNL     1      -3.344 -35.795  -8.057  1.00  0.00    -0.281 N
ATOM     39  H14 UNL     1      -3.182 -36.189  -8.984  1.00  0.00     0.189 HD
BRANCH  35  40
HETATM   40  C1  UNL     1      -5.384 -34.349  -5.449  1.00  0.00     0.099 C
HETATM   41  N1  UNL     1      -5.418 -34.712  -4.222  1.00  0.00    -0.407 N
ATOM     42  H12 UNL     1      -4.731 -35.380  -3.873  1.00  0.00     0.155 HD
ATOM     43  H11 UNL     1      -6.139 -34.322  -3.615  1.00  0.00     0.155 HD
ENDBRANCH  35  40
BRANCH  37  44
HETATM   44  N15 UNL     1      -5.646 -35.378  -8.260  1.00  0.00    -0.384 N
ATOM     45 2H15 UNL     1      -6.540 -35.757  -7.949  1.00  0.00     0.157 HD
ATOM     46 1H15 UNL     1      -5.796 -34.998  -9.195  1.00  0.00     0.157 HD
ENDBRANCH  37  44
ENDBRANCH  32  33
ENDBRANCH  30  32
ENDBRANCH   1  30
TORSDOF 9
ENDMDL