MODEL 5
REMARK VINA RESULT: -8.546053688      3.659      6.958
REMARK  9 active torsions:
REMARK  status: ('A' for Active; 'I' for Inactive)
REMARK       I    between atoms: N1_2  and  C3_4
REMARK    1  A    between atoms: C3_4  and  C4_6
REMARK    2  A    between atoms: C4_6  and  N2_7
REMARK    3  A    between atoms: C5_10  and  C6_11
REMARK    4  A    between atoms: C7_14  and  C8_15
REMARK    5  A    between atoms: N7_19  and  C9_20
REMARK    6  A    between atoms: C10_26  and  N10_27
REMARK    7  A    between atoms: C11_32  and  O3_33
REMARK    8  A    between atoms: C12_35  and  O4_36
REMARK    9  A    between atoms: C13_38  and  O5_39
ROOT
HETATM    1  C6  UNL     1      -3.837 -33.304  -7.533  1.00  0.00     0.116 A
HETATM    2  N4  UNL     1      -4.044 -33.596  -6.211  1.00  0.00    -0.345 N
ATOM      3  H4  UNL     1      -3.410 -34.252  -5.755  1.00  0.00     0.166 HD
HETATM    4  C7  UNL     1      -5.036 -33.063  -5.489  1.00  0.00     0.116 A
HETATM    5  C11 UNL     1      -5.933 -32.161  -6.064  1.00  0.00     0.132 A
HETATM    6  C12 UNL     1      -5.731 -31.864  -7.392  1.00  0.00     0.137 A
HETATM    7  C13 UNL     1      -4.684 -32.431  -8.136  1.00  0.00     0.132 A
ENDROOT
BRANCH   4   8
HETATM    8  C8  UNL     1      -5.207 -33.408  -4.083  1.00  0.00     0.164 A
HETATM    9  N5  UNL     1      -5.522 -34.623  -3.629  1.00  0.00    -0.265 N
HETATM   10  N6  UNL     1      -5.601 -34.594  -2.300  1.00  0.00     0.004 NA
ATOM     11  H5  UNL     1      -5.678 -35.446  -4.211  1.00  0.00     0.186 HD
HETATM   12  N7  UNL     1      -5.331 -33.350  -1.934  1.00  0.00    -0.156 N
HETATM   13  N11 UNL     1      -5.088 -32.610  -3.004  1.00  0.00    -0.261 N
ATOM     14  H11 UNL     1      -4.854 -31.618  -3.010  1.00  0.00     0.190 HD
BRANCH  12  15
HETATM   15  C9  UNL     1      -5.311 -32.894  -0.576  1.00  0.00     0.210 A
HETATM   16  N8  UNL     1      -5.295 -31.630  -0.117  1.00  0.00    -0.219 N
HETATM   17  O2  UNL     1      -5.280 -31.631   1.201  1.00  0.00    -0.153 OA
ATOM     18  H8  UNL     1      -5.294 -30.794  -0.702  1.00  0.00     0.198 HD
HETATM   19  N9  UNL     1      -5.286 -32.863   1.606  1.00  0.00    -0.222 N
HETATM   20  C10 UNL     1      -5.306 -33.685   0.551  1.00  0.00     0.170 A
ATOM     21  H9  UNL     1      -5.276 -33.160   2.582  1.00  0.00     0.198 HD
BRANCH  20  22
HETATM   22  N10 UNL     1      -5.317 -34.957   0.556  1.00  0.00    -0.381 N
ATOM     23 2H10 UNL     1      -4.950 -35.582   1.273  1.00  0.00     0.157 HD
ATOM     24 1H10 UNL     1      -5.706 -35.545  -0.181  1.00  0.00     0.157 HD
ENDBRANCH  20  22
ENDBRANCH  12  15
ENDBRANCH   4   8
BRANCH   5  25
HETATM   25  O3  UNL     1      -6.961 -31.607  -5.324  1.00  0.00    -0.356 OA
ATOM     26  H3  UNL     1      -7.803 -31.416  -5.720  1.00  0.00     0.218 HD
ENDBRANCH   5  25
BRANCH   1  27
HETATM   27  C5  UNL     1      -2.720 -33.940  -8.240  1.00  0.00     0.164 C
HETATM   28  N3  UNL     1      -2.667 -34.512  -9.381  1.00  0.00    -0.267 N
HETATM   29  N2  UNL     1      -1.376 -34.994  -9.681  1.00  0.00    -0.207 N
ATOM     30  H3  UNL     1      -3.468 -34.609 -10.005  1.00  0.00     0.190 HD
HETATM   31  N13 UNL     1      -0.551 -34.526  -8.670  1.00  0.00    -0.002 NA
HETATM   32  N12 UNL     1      -1.380 -34.024  -7.691  1.00  0.00    -0.265 N
ATOM     33  H12 UNL     1      -1.101 -33.758  -6.747  1.00  0.00     0.186 HD
BRANCH  29  34
HETATM   34  C4  UNL     1      -1.019 -35.807 -10.821  1.00  0.00     0.270 C
BRANCH  34  35
HETATM   35  C3  UNL     1       0.031 -35.168 -11.626  1.00  0.00     0.240 C
HETATM   36  N1  UNL     1       1.345 -35.709 -11.593  1.00  0.00    -0.359 N
HETATM   37  C1  UNL     1       2.385 -35.072 -12.397  1.00  0.00     0.152 C
HETATM   38  C2  UNL     1       1.623 -36.865 -10.774  1.00  0.00     0.152 C
HETATM   39  O1  UNL     1      -0.229 -34.169 -12.327  1.00  0.00    -0.271 OA
ENDBRANCH  34  35
ENDBRANCH  29  34
ENDBRANCH   1  27
BRANCH   6  40
HETATM   40  O4  UNL     1      -6.572 -30.981  -8.038  1.00  0.00    -0.356 OA
ATOM     41  H4  UNL     1      -6.337 -30.063  -8.107  1.00  0.00     0.218 HD
ENDBRANCH   6  40
BRANCH   7  42
HETATM   42  O5  UNL     1      -4.558 -32.077  -9.449  1.00  0.00    -0.356 OA
ATOM     43  H5  UNL     1      -5.309 -31.934 -10.012  1.00  0.00     0.218 HD
ENDBRANCH   7  42
TORSDOF 9
ENDMDL