MODEL 3
REMARK VINA RESULT: -7.232562687      4.215      8.141
REMARK  14 active torsions:
REMARK  status: ('A' for Active; 'I' for Inactive)
REMARK    1  A    between atoms: N1_1  and  C1_4
REMARK    2  A    between atoms: C2_9  and  S1_10
REMARK    3  A    between atoms: S1_10  and  C3_11
REMARK    4  A    between atoms: C3_11  and  C4_12
REMARK    5  A    between atoms: C4_12  and  C5_14
REMARK    6  A    between atoms: C5_14  and  N6_20
REMARK    7  A    between atoms: N4_15  and  N5_17
REMARK    8  A    between atoms: N6_20  and  C6_22
REMARK    9  A    between atoms: C8_24  and  O2_25
REMARK   10  A    between atoms: C12_31  and  N7_32
REMARK   11  A    between atoms: C13_36  and  O3_37
REMARK   12  A    between atoms: C13_36  and  C14_39
REMARK   13  A    between atoms: C14_39  and  O4_40
REMARK   14  A    between atoms: N8_42  and  N9_43
ROOT
HETATM    1  C5  UNL     1       0.092 -35.448 -10.153  1.00  0.00     0.163 C
HETATM    2  N4  UNL     1       0.930 -35.454  -9.195  1.00  0.00    -0.289 N
ATOM      3  H4  UNL     1       0.645 -35.056  -8.300  1.00  0.00     0.188 HD
ENDROOT
BRANCH   1   4
HETATM    4  C4  UNL     1       0.452 -35.999 -11.428  1.00  0.00     0.203 C
HETATM    5  O1  UNL     1       1.013 -37.125 -11.540  1.00  0.00    -0.288 OA
BRANCH   4   6
HETATM    6  C3  UNL     1       0.165 -35.239 -12.668  1.00  0.00     0.169 C
BRANCH   6   7
HETATM    7  S1  UNL     1      -0.698 -36.276 -13.878  1.00  0.00    -0.082 SA
BRANCH   7   8
HETATM    8  C2  UNL     1       0.339 -36.524 -15.330  1.00  0.00     0.198 A
HETATM    9  N3  UNL     1       0.053 -36.263 -16.606  1.00  0.00    -0.263 N
HETATM   10  N2  UNL     1       1.099 -36.597 -17.344  1.00  0.00    -0.129 N
ATOM     11  H3  UNL     1      -0.823 -35.873 -16.954  1.00  0.00     0.189 HD
HETATM   12  C1  UNL     1       2.073 -37.078 -16.551  1.00  0.00     0.713 A
ATOM     13  H2  UNL     1       1.158 -36.505 -18.358  1.00  0.00     0.205 HD
HETATM   14  N8  UNL     1       1.575 -37.023 -15.300  1.00  0.00    -0.068 N
BRANCH  12  15
HETATM   15  N1  UNL     1       3.255 -37.513 -16.889  1.00  0.00    -0.231 N
ATOM     16  H12 UNL     1       3.716 -37.366 -17.787  1.00  0.00     0.174 HD
ATOM     17  H11 UNL     1       3.914 -38.060 -16.334  1.00  0.00     0.174 HD
ENDBRANCH  12  15
BRANCH  14  18
HETATM   18  N9  UNL     1       2.284 -37.437 -14.150  1.00  0.00    -0.322 N
ATOM     19  H92 UNL     1       2.868 -36.849 -13.555  1.00  0.00     0.178 HD
ATOM     20  H91 UNL     1       2.280 -38.392 -13.792  1.00  0.00     0.178 HD
ENDBRANCH  14  18
ENDBRANCH   7   8
ENDBRANCH   6   7
ENDBRANCH   4   6
ENDBRANCH   1   4
BRANCH   1  21
HETATM   21  N6  UNL     1      -1.191 -34.900  -9.958  1.00  0.00    -0.360 N
ATOM     22  H6  UNL     1      -1.942 -35.262 -10.545  1.00  0.00     0.162 HD
BRANCH  21  23
HETATM   23  C6  UNL     1      -1.537 -33.891  -9.022  1.00  0.00     0.159 C
HETATM   24  C7  UNL     1      -2.349 -34.539  -7.924  1.00  0.00     0.014 A
HETATM   25  C8  UNL     1      -1.915 -34.994  -6.721  1.00  0.00     0.081 A
HETATM   26  C10 UNL     1      -3.675 -34.669  -8.198  1.00  0.00    -0.004 A
HETATM   27  C9  UNL     1      -2.860 -35.542  -5.898  1.00  0.00     0.087 A
HETATM   28  S2  UNL     1      -4.296 -35.412  -6.801  1.00  0.00    -0.103 SA
HETATM   29  C11 UNL     1      -4.233 -34.184  -9.520  1.00  0.00     0.083 C
HETATM   30  C12 UNL     1      -3.713 -32.796  -9.695  1.00  0.00     0.227 C
HETATM   31  C13 UNL     1      -2.227 -32.682  -9.565  1.00  0.00     0.132 C
BRANCH  25  32
HETATM   32  O2  UNL     1      -0.559 -34.935  -6.277  1.00  0.00    -0.360 OA
ATOM     33  H2  UNL     1      -0.187 -35.501  -5.611  1.00  0.00     0.217 HD
ENDBRANCH  25  32
BRANCH  30  34
HETATM   34  N7  UNL     1      -4.415 -31.950  -8.716  1.00  0.00    -0.072 N
ATOM     35  H73 UNL     1      -5.022 -31.254  -9.148  1.00  0.00     0.274 HD
ATOM     36  H72 UNL     1      -5.138 -32.450  -8.199  1.00  0.00     0.274 HD
ATOM     37  H71 UNL     1      -3.701 -31.540  -8.113  1.00  0.00     0.274 HD
ENDBRANCH  30  34
BRANCH  31  38
HETATM   38  O3  UNL     1      -1.716 -32.311 -10.784  1.00  0.00    -0.383 OA
ATOM     39  H3  UNL     1      -2.318 -32.510 -11.492  1.00  0.00     0.210 HD
ENDBRANCH  31  38
BRANCH  31  40
HETATM   40  C14 UNL     1      -1.950 -31.529  -8.599  1.00  0.00     0.206 C
BRANCH  40  41
HETATM   41  O4  UNL     1      -1.087 -30.588  -9.192  1.00  0.00    -0.398 OA
ATOM     42  H4  UNL     1      -0.542 -30.176  -8.532  1.00  0.00     0.209 HD
ENDBRANCH  40  41
ENDBRANCH  31  40
ENDBRANCH  21  23
ENDBRANCH   1  21
BRANCH   2  43
HETATM   43  N5  UNL     1       2.215 -35.978  -9.306  1.00  0.00    -0.344 N
ATOM     44  H52 UNL     1       2.504 -36.318 -10.223  1.00  0.00     0.176 HD
ATOM     45  H51 UNL     1       2.866 -36.034  -8.523  1.00  0.00     0.176 HD
ENDBRANCH   2  43
TORSDOF 14
ENDMDL