MODEL 3
REMARK VINA RESULT: -7.803246945      2.295      7.913
REMARK  12 active torsions:
REMARK  status: ('A' for Active; 'I' for Inactive)
REMARK    1  A    between atoms: N1_1  and  C1_4
REMARK    2  A    between atoms: C2_7  and  C3_8
REMARK    3  A    between atoms: C3_8  and  O1_9
REMARK    4  A    between atoms: O1_9  and  C4_10
REMARK    5  A    between atoms: C4_10  and  C5_12
REMARK    6  A    between atoms: N5_17  and  C6_18
REMARK    7  A    between atoms: C7_19  and  O3_20
REMARK    8  A    between atoms: C9_28  and  N8_29
REMARK    9  A    between atoms: N8_29  and  O5_31
REMARK   10  A    between atoms: C10_33  and  C11_34
REMARK   11  A    between atoms: C11_34  and  O6_35
REMARK   12  A    between atoms: C11_34  and  O7_37
ROOT
HETATM    1  C5  UNL     1      -2.176 -33.415 -10.323  1.00  0.00     0.154 A
HETATM    2  N3  UNL     1      -3.307 -34.083 -10.719  1.00  0.00    -0.278 N
ATOM      3  H3  UNL     1      -3.603 -34.224 -11.685  1.00  0.00     0.189 HD
HETATM    4  N4  UNL     1      -3.946 -34.511  -9.657  1.00  0.00    -0.234 N
ATOM      5  H4  UNL     1      -4.820 -35.038  -9.679  1.00  0.00     0.209 HD
HETATM    6  N5  UNL     1      -3.305 -34.167  -8.557  1.00  0.00    -0.231 N
HETATM    7  C10 UNL     1      -2.196 -33.482  -8.958  1.00  0.00     0.124 A
ENDROOT
BRANCH   1   8
HETATM    8  C4  UNL     1      -1.255 -32.810 -11.241  1.00  0.00     0.313 C
HETATM    9  O2  UNL     1      -1.278 -31.612 -11.552  1.00  0.00    -0.257 OA
BRANCH   8  10
HETATM   10  O1  UNL     1      -0.251 -33.581 -11.851  1.00  0.00    -0.313 OA
BRANCH  10  11
HETATM   11  C3  UNL     1      -0.538 -34.866 -12.350  1.00  0.00     0.220 C
BRANCH  11  12
HETATM   12  C2  UNL     1       0.460 -35.811 -11.911  1.00  0.00     0.133 C
HETATM   13  N2  UNL     1       0.780 -36.885 -12.872  1.00  0.00    -0.343 N
HETATM   14  C1  UNL     1       2.244 -37.243 -12.601  1.00  0.00     0.172 C
ATOM     15  H2  UNL     1       0.159 -37.300 -13.567  1.00  0.00     0.164 HD
HETATM   16  N9  UNL     1       2.297 -36.438 -11.518  1.00  0.00    -0.344 N
HETATM   17  C12 UNL     1       1.933 -35.115 -11.974  1.00  0.00     0.167 C
HETATM   18  C13 UNL     1       2.109 -36.352 -10.145  1.00  0.00     0.207 C
HETATM   19  C14 UNL     1       0.523 -36.171 -10.476  1.00  0.00     0.176 C
HETATM   20  O8  UNL     1      -0.264 -36.326  -9.645  1.00  0.00    -0.293 OA
BRANCH  14  21
HETATM   21  N1  UNL     1       2.903 -38.050 -13.265  1.00  0.00    -0.371 N
ATOM     22  H12 UNL     1       3.155 -39.036 -13.333  1.00  0.00     0.159 HD
ATOM     23  H11 UNL     1       3.424 -37.816 -14.110  1.00  0.00     0.159 HD
ENDBRANCH  14  21
ENDBRANCH  11  12
ENDBRANCH  10  11
ENDBRANCH   8  10
ENDBRANCH   1   8
BRANCH   7  24
HETATM   24  C11 UNL     1      -1.208 -32.951  -8.026  1.00  0.00     0.310 C
BRANCH  24  25
HETATM   25  O6  UNL     1      -0.021 -33.664  -7.990  1.00  0.00    -0.366 OA
ATOM     26  H6  UNL     1       0.263 -33.905  -7.115  1.00  0.00     0.213 HD
ENDBRANCH  24  25
BRANCH  24  27
HETATM   27  O7  UNL     1      -0.862 -31.650  -8.461  1.00  0.00    -0.366 OA
ATOM     28  H7  UNL     1      -1.649 -31.118  -8.435  1.00  0.00     0.213 HD
ENDBRANCH  24  27
ENDBRANCH   7  24
BRANCH   6  29
HETATM   29  C6  UNL     1      -3.667 -34.439  -7.215  1.00  0.00     0.154 A
HETATM   30  C7  UNL     1      -4.647 -33.717  -6.565  1.00  0.00     0.177 A
HETATM   31  N6  UNL     1      -4.969 -34.007  -5.272  1.00  0.00    -0.287 N
HETATM   32  C8  UNL     1      -4.353 -34.991  -4.594  1.00  0.00     0.327 A
ATOM     33  H6  UNL     1      -5.696 -33.463  -4.807  1.00  0.00     0.172 HD
HETATM   34  O4  UNL     1      -4.650 -35.263  -3.390  1.00  0.00    -0.247 OA
HETATM   35  N7  UNL     1      -3.397 -35.701  -5.213  1.00  0.00    -0.291 N
HETATM   36  C9  UNL     1      -3.055 -35.440  -6.492  1.00  0.00     0.162 A
ATOM     37  H7  UNL     1      -2.922 -36.450  -4.710  1.00  0.00     0.172 HD
BRANCH  30  38
HETATM   38  O3  UNL     1      -5.290 -32.707  -7.238  1.00  0.00    -0.344 OA
ATOM     39  H3  UNL     1      -6.058 -32.307  -6.846  1.00  0.00     0.219 HD
ENDBRANCH  30  38
BRANCH  36  40
HETATM   40  N8  UNL     1      -2.124 -36.145  -7.072  1.00  0.00    -0.251 N
ATOM     41  H8  UNL     1      -2.346 -36.624  -7.945  1.00  0.00     0.196 HD
BRANCH  40  42
HETATM   42  O5  UNL     1      -0.871 -36.269  -6.564  1.00  0.00    -0.288 OA
ATOM     43  H5  UNL     1      -0.247 -35.553  -6.553  1.00  0.00     0.244 HD
ENDBRANCH  40  42
ENDBRANCH  36  40
ENDBRANCH   6  29
TORSDOF 12
ENDMDL