MODEL 1
REMARK VINA RESULT: -7.712438718      0.000      0.000
REMARK  15 active torsions:
REMARK  status: ('A' for Active; 'I' for Inactive)
REMARK       I    between atoms: C2_2  and  N1_4
REMARK    1  A    between atoms: N1_4  and  C3_6
REMARK    2  A    between atoms: C4_8  and  O3_9
REMARK    3  A    between atoms: C4_8  and  C11_23
REMARK    4  A    between atoms: O3_9  and  C5_10
REMARK    5  A    between atoms: C5_10  and  C7_12
REMARK    6  A    between atoms: C9_14  and  N2_15
REMARK    7  A    between atoms: C10_19  and  O4_20
REMARK    8  A    between atoms: C11_23  and  O6_25
REMARK    9  A    between atoms: C13_28  and  O8_29
REMARK   10  A    between atoms: C13_28  and  O9_31
REMARK   11  A    between atoms: O9_31  and  C14_32
REMARK   12  A    between atoms: C14_32  and  C15_34
REMARK   13  A    between atoms: C15_34  and  O11_35
REMARK   14  A    between atoms: C15_34  and  O12_37
REMARK   15  A    between atoms: C16_39  and  N3_40
ROOT
HETATM    1  C3  UNL     1      -1.397 -33.724  -8.689  1.00  0.00     0.268 C
HETATM    2  O2  UNL     1      -1.180 -34.327  -9.886  1.00  0.00    -0.303 OA
HETATM    3  C4  UNL     1      -1.441 -35.668  -9.976  1.00  0.00     0.316 C
HETATM    4  O7  UNL     1      -2.030 -36.253  -8.928  1.00  0.00    -0.266 OA
HETATM    5  C13 UNL     1      -2.857 -35.580  -8.086  1.00  0.00     0.325 C
HETATM    6  C16 UNL     1      -2.612 -34.129  -7.930  1.00  0.00     0.324 C
ENDROOT
BRANCH   3   7
HETATM    7  O3  UNL     1      -0.298 -36.413 -10.277  1.00  0.00    -0.323 OA
BRANCH   7   8
HETATM    8  C5  UNL     1       0.855 -35.758 -10.501  1.00  0.00     0.152 C
HETATM    9  C6  UNL     1       0.976 -35.322 -11.972  1.00  0.00     0.042 C
BRANCH   8  10
HETATM   10  C7  UNL     1       1.985 -36.772 -10.272  1.00  0.00     0.155 C
HETATM   11  C8  UNL     1       1.627 -37.759  -9.189  1.00  0.00     0.072 C
HETATM   12  C9  UNL     1       2.614 -38.868  -9.496  1.00  0.00     0.240 C
HETATM   13  C10 UNL     1       2.822 -38.717 -10.968  1.00  0.00     0.287 C
HETATM   14  O5  UNL     1       2.108 -37.601 -11.380  1.00  0.00    -0.351 OA
BRANCH  12  15
HETATM   15  N2  UNL     1       2.126 -40.167  -9.106  1.00  0.00    -0.070 N
ATOM     16  H23 UNL     1       1.595 -40.114  -8.238  1.00  0.00     0.274 HD
ATOM     17  H22 UNL     1       1.386 -40.484  -9.733  1.00  0.00     0.274 HD
ATOM     18  H21 UNL     1       2.871 -40.861  -9.039  1.00  0.00     0.274 HD
ENDBRANCH  12  15
BRANCH  13  19
HETATM   19  O4  UNL     1       2.430 -39.800 -11.719  1.00  0.00    -0.369 OA
ATOM     20  H4  UNL     1       3.136 -40.381 -11.979  1.00  0.00     0.212 HD
ENDBRANCH  13  19
ENDBRANCH   8  10
ENDBRANCH   7   8
ENDBRANCH   3   7
BRANCH   3  21
HETATM   21  C11 UNL     1      -2.311 -35.887 -11.227  1.00  0.00     0.207 C
HETATM   22  C12 UNL     1      -3.019 -34.608 -11.614  1.00  0.00     0.048 C
BRANCH  21  23
HETATM   23  O6  UNL     1      -3.240 -36.876 -11.098  1.00  0.00    -0.388 OA
ATOM     24  H6  UNL     1      -3.522 -37.256 -11.921  1.00  0.00     0.210 HD
ENDBRANCH  21  23
ENDBRANCH   3  21
BRANCH   1  25
HETATM   25  N1  UNL     1      -1.485 -32.270  -8.884  1.00  0.00    -0.333 N
HETATM   26  C2  UNL     1      -0.671 -31.339  -8.202  1.00  0.00     0.215 C
HETATM   27  C1  UNL     1      -0.763 -29.878  -8.402  1.00  0.00     0.117 C
HETATM   28  O1  UNL     1       0.174 -31.776  -7.385  1.00  0.00    -0.274 OA
ATOM     29  H1  UNL     1      -2.173 -31.914  -9.549  1.00  0.00     0.165 HD
ENDBRANCH   1  25
BRANCH   5  30
HETATM   30  O8  UNL     1      -4.189 -35.788  -8.477  1.00  0.00    -0.341 OA
ATOM     31  H8  UNL     1      -4.603 -34.950  -8.643  1.00  0.00     0.215 HD
ENDBRANCH   5  30
BRANCH   5  32
HETATM   32  O9  UNL     1      -2.737 -36.216  -6.830  1.00  0.00    -0.252 OA
BRANCH  32  33
HETATM   33  C14 UNL     1      -2.991 -35.598  -5.635  1.00  0.00     0.318 C
HETATM   34  O10 UNL     1      -2.038 -35.139  -4.955  1.00  0.00    -0.259 OA
BRANCH  33  35
HETATM   35  C15 UNL     1      -4.397 -35.453  -5.112  1.00  0.00     0.356 C
BRANCH  35  36
HETATM   36  O11 UNL     1      -5.119 -34.583  -5.891  1.00  0.00    -0.363 OA
ATOM     37  H11 UNL     1      -5.236 -34.933  -6.766  1.00  0.00     0.213 HD
ENDBRANCH  35  36
BRANCH  35  38
HETATM   38  O12 UNL     1      -4.399 -35.130  -3.758  1.00  0.00    -0.363 OA
ATOM     39  H12 UNL     1      -3.662 -35.527  -3.310  1.00  0.00     0.213 HD
ENDBRANCH  35  38
ENDBRANCH  33  35
ENDBRANCH  32  33
ENDBRANCH   5  32
BRANCH   6  40
HETATM   40  N3  UNL     1      -3.771 -33.286  -8.243  1.00  0.00    -0.063 N
ATOM     41  H33 UNL     1      -3.869 -32.529  -7.567  1.00  0.00     0.275 HD
ATOM     42  H32 UNL     1      -3.608 -32.734  -9.084  1.00  0.00     0.275 HD
ATOM     43  H31 UNL     1      -4.633 -33.825  -8.319  1.00  0.00     0.275 HD
ENDBRANCH   6  40
TORSDOF 15
ENDMDL