MODEL 2
REMARK VINA RESULT: -6.983099160      2.118      2.389
REMARK  12 active torsions:
REMARK  status: ('A' for Active; 'I' for Inactive)
REMARK    1  A    between atoms: C2_2  and  O1_3
REMARK    2  A    between atoms: C2_2  and  C3_5
REMARK    3  A    between atoms: C3_5  and  N1_6
REMARK    4  A    between atoms: C3_5  and  O2_10
REMARK    5  A    between atoms: C3_5  and  C4_12
REMARK    6  A    between atoms: C4_12  and  O3_13
REMARK    7  A    between atoms: C4_12  and  N2_15
REMARK    8  A    between atoms: N2_15  and  C5_17
REMARK    9  A    between atoms: C6_18  and  C7_19
REMARK   10  A    between atoms: C7_19  and  O4_20
REMARK   11  A    between atoms: C8_22  and  C9_23
REMARK   12  A    between atoms: C11_29  and  C13_31
ROOT
HETATM    1  C5  UNL     1      -2.045 -33.745  -8.852  1.00  0.00     0.153 C
HETATM    2  C6  UNL     1      -2.341 -34.316  -7.502  1.00  0.00     0.022 C
HETATM    3  C8  UNL     1      -3.551 -33.986  -7.094  1.00  0.00     0.155 C
HETATM    4  O7  UNL     1      -4.103 -33.196  -8.133  1.00  0.00    -0.310 OA
HETATM    5  C10 UNL     1      -3.494 -33.654  -9.327  1.00  0.00     0.307 C
HETATM    6  O8  UNL     1      -3.699 -32.728 -10.292  1.00  0.00    -0.329 OA
HETATM    7  C11 UNL     1      -3.474 -31.434  -9.953  1.00  0.00     0.192 C
HETATM    8  C12 UNL     1      -4.658 -30.814  -9.199  1.00  0.00     0.065 C
HETATM    9  C14 UNL     1      -2.215 -31.258  -9.111  1.00  0.00     0.088 A
HETATM   10  N3  UNL     1      -1.699 -30.049  -8.837  1.00  0.00    -0.311 N
ATOM     11  H3  UNL     1      -2.056 -29.141  -9.132  1.00  0.00     0.175 HD
HETATM   12  S1  UNL     1      -0.347 -30.356  -7.908  1.00  0.00     0.067 SA
HETATM   13  N4  UNL     1      -0.459 -32.026  -7.882  1.00  0.00    -0.311 N
ATOM     14  H4  UNL     1       0.171 -32.681  -7.418  1.00  0.00     0.175 HD
HETATM   15  C15 UNL     1      -1.565 -32.324  -8.610  1.00  0.00     0.081 A
ENDROOT
BRANCH   1  16
HETATM   16  N2  UNL     1      -1.218 -34.517  -9.610  1.00  0.00    -0.371 N
ATOM     17  H2  UNL     1      -0.530 -35.060  -9.088  1.00  0.00     0.157 HD
BRANCH  16  18
HETATM   18  C4  UNL     1      -1.174 -34.672 -10.977  1.00  0.00     0.281 C
BRANCH  18  19
HETATM   19  C3  UNL     1      -0.036 -35.509 -11.520  1.00  0.00     0.291 C
BRANCH  19  20
HETATM   20  C2  UNL     1       0.884 -36.082 -10.494  1.00  0.00     0.181 C
HETATM   21  C1  UNL     1       2.174 -36.563 -11.130  1.00  0.00     0.044 C
BRANCH  20  22
HETATM   22  O1  UNL     1       0.387 -37.096  -9.737  1.00  0.00    -0.391 OA
ATOM     23  H1  UNL     1       1.026 -37.799  -9.736  1.00  0.00     0.210 HD
ENDBRANCH  20  22
ENDBRANCH  19  20
BRANCH  19  24
HETATM   24  N1  UNL     1       0.782 -34.752 -12.457  1.00  0.00    -0.040 N
ATOM     25  H13 UNL     1       0.237 -34.308 -13.195  1.00  0.00     0.278 HD
ATOM     26  H12 UNL     1       1.171 -33.901 -12.051  1.00  0.00     0.278 HD
ATOM     27  H11 UNL     1       1.496 -35.386 -12.815  1.00  0.00     0.278 HD
ENDBRANCH  19  24
BRANCH  19  28
HETATM   28  O2  UNL     1      -0.577 -36.559 -12.257  1.00  0.00    -0.360 OA
ATOM     29  H2  UNL     1      -0.394 -37.371 -11.799  1.00  0.00     0.212 HD
ENDBRANCH  19  28
ENDBRANCH  18  19
BRANCH  18  30
HETATM   30  O3  UNL     1      -1.076 -33.470 -11.715  1.00  0.00    -0.372 OA
ATOM     31  H3  UNL     1      -1.584 -32.855 -11.199  1.00  0.00     0.212 HD
ENDBRANCH  18  30
ENDBRANCH  16  18
ENDBRANCH   1  16
BRANCH   2  32
HETATM   32  C7  UNL     1      -1.414 -35.144  -6.675  1.00  0.00     0.204 C
BRANCH  32  33
HETATM   33  O4  UNL     1      -0.082 -34.741  -6.767  1.00  0.00    -0.396 OA
ATOM     34  H4  UNL     1       0.432 -35.275  -7.361  1.00  0.00     0.209 HD
ENDBRANCH  32  33
ENDBRANCH   2  32
BRANCH   3  35
HETATM   35  C9  UNL     1      -4.298 -34.293  -5.863  1.00  0.00     0.234 C
HETATM   36  O5  UNL     1      -4.709 -35.495  -5.655  1.00  0.00    -0.642 OA
HETATM   37  O6  UNL     1      -4.622 -33.413  -4.866  1.00  0.00    -0.642 OA
ENDBRANCH   3  35
BRANCH   7  38
HETATM   38  C13 UNL     1      -3.336 -30.647 -11.206  1.00  0.00     0.215 C
HETATM   39  O9  UNL     1      -4.206 -29.854 -11.569  1.00  0.00    -0.645 OA
HETATM   40  O10 UNL     1      -2.176 -30.829 -11.974  1.00  0.00    -0.645 OA
ENDBRANCH   7  38
TORSDOF 12
ENDMDL