MODEL 3
REMARK VINA RESULT: -7.196882881      3.615      8.517
REMARK  12 active torsions:
REMARK  status: ('A' for Active; 'I' for Inactive)
REMARK    1  A    between atoms: C2_2  and  O1_3
REMARK    2  A    between atoms: C2_2  and  C3_5
REMARK    3  A    between atoms: C3_5  and  O2_6
REMARK    4  A    between atoms: C3_5  and  C4_8
REMARK    5  A    between atoms: N3_13  and  C5_14
REMARK    6  A    between atoms: C5_14  and  C6_15
REMARK    7  A    between atoms: C6_15  and  S1_16
REMARK    8  A    between atoms: S1_16  and  C7_17
REMARK    9  A    between atoms: C8_20  and  N5_21
REMARK       I    between atoms: N5_21  and  C9_23
REMARK   10  A    between atoms: C10_30  and  N9_31
REMARK   11  A    between atoms: C11_34  and  N10_35
REMARK   12  A    between atoms: C12_39  and  O3_40
ROOT
HETATM    1  C7  UNL     1      -4.044 -33.749  -7.560  1.00  0.00     0.118 A
HETATM    2  N4  UNL     1      -4.610 -34.044  -6.375  1.00  0.00    -0.183 N
ATOM      3  H4  UNL     1      -4.350 -34.895  -5.876  1.00  0.00     0.185 HD
HETATM    4  C8  UNL     1      -5.524 -33.201  -5.855  1.00  0.00     0.687 A
HETATM    5  N8  UNL     1      -5.862 -32.079  -6.518  1.00  0.00    -0.174 N
ATOM      6  H8  UNL     1      -6.555 -31.447  -6.118  1.00  0.00     0.186 HD
HETATM    7  C10 UNL     1      -5.296 -31.781  -7.707  1.00  0.00     0.146 A
HETATM    8  C11 UNL     1      -4.357 -32.618  -8.272  1.00  0.00     0.134 A
ENDROOT
BRANCH   1   9
HETATM    9  S1  UNL     1      -2.837 -34.871  -8.232  1.00  0.00    -0.107 SA
BRANCH   9  10
HETATM   10  C6  UNL     1      -1.334 -34.684  -7.218  1.00  0.00     0.104 C
BRANCH  10  11
HETATM   11  C5  UNL     1      -0.701 -36.032  -6.939  1.00  0.00     0.181 C
BRANCH  11  12
HETATM   12  N3  UNL     1       0.283 -36.274  -7.970  1.00  0.00    -0.217 N
HETATM   13  N2  UNL     1       0.886 -35.291  -8.637  1.00  0.00    -0.225 N
HETATM   14  N1  UNL     1       1.722 -35.828  -9.501  1.00  0.00    -0.270 N
ATOM     15  H2  UNL     1       0.727 -34.292  -8.501  1.00  0.00     0.210 HD
HETATM   16  C4  UNL     1       1.652 -37.159  -9.386  1.00  0.00     0.145 A
ATOM     17  H1  UNL     1       2.321 -35.316 -10.149  1.00  0.00     0.190 HD
HETATM   18  N14 UNL     1       0.750 -37.413  -8.426  1.00  0.00    -0.268 N
ATOM     19  H14 UNL     1       0.472 -38.339  -8.103  1.00  0.00     0.190 HD
BRANCH  16  20
HETATM   20  C3  UNL     1       2.409 -38.193 -10.150  1.00  0.00     0.216 C
BRANCH  20  21
HETATM   21  C2  UNL     1       2.631 -37.682 -11.546  1.00  0.00     0.150 C
HETATM   22  C1  UNL     1       3.391 -38.664 -12.412  1.00  0.00     0.042 C
BRANCH  21  23
HETATM   23  O1  UNL     1       1.352 -37.461 -12.098  1.00  0.00    -0.393 OA
ATOM     24  H1  UNL     1       1.247 -37.994 -12.877  1.00  0.00     0.210 HD
ENDBRANCH  21  23
ENDBRANCH  20  21
BRANCH  20  25
HETATM   25  O2  UNL     1       1.822 -39.432 -10.075  1.00  0.00    -0.385 OA
ATOM     26  H2  UNL     1       1.337 -39.597  -9.275  1.00  0.00     0.210 HD
ENDBRANCH  20  25
ENDBRANCH  16  20
ENDBRANCH  11  12
ENDBRANCH  10  11
ENDBRANCH   9  10
ENDBRANCH   1   9
BRANCH   8  27
HETATM   27  N10 UNL     1      -3.712 -32.403  -9.506  1.00  0.00    -0.215 N
HETATM   28  N11 UNL     1      -4.206 -32.780 -10.673  1.00  0.00    -0.011 NA
HETATM   29  N12 UNL     1      -3.381 -32.444 -11.650  1.00  0.00    -0.261 N
HETATM   30  C12 UNL     1      -2.308 -31.826 -11.099  1.00  0.00     0.197 A
ATOM     31  H12 UNL     1      -3.526 -32.620 -12.644  1.00  0.00     0.186 HD
HETATM   32  C13 UNL     1      -2.532 -31.806  -9.730  1.00  0.00     0.189 A
HETATM   33  N13 UNL     1      -1.727 -31.280  -8.684  1.00  0.00    -0.076 NA
BRANCH  30  34
HETATM   34  O3  UNL     1      -1.185 -31.297 -11.710  1.00  0.00    -0.343 OA
ATOM     35  H3  UNL     1      -0.717 -30.491 -11.523  1.00  0.00     0.219 HD
ENDBRANCH  30  34
ENDBRANCH   8  27
BRANCH   4  36
HETATM   36  N5  UNL     1      -6.058 -33.509  -4.707  1.00  0.00    -0.164 N
HETATM   37  C9  UNL     1      -5.224 -33.952  -3.647  1.00  0.00     0.200 C
HETATM   38  N6  UNL     1      -4.781 -35.171  -3.607  1.00  0.00    -0.373 N
HETATM   39  N7  UNL     1      -4.836 -33.087  -2.587  1.00  0.00    -0.063 NA
ATOM     40  H62 UNL     1      -5.059 -35.791  -4.367  1.00  0.00     0.158 HD
ATOM     41  H61 UNL     1      -4.182 -35.490  -2.846  1.00  0.00     0.158 HD
ATOM     42  H5  UNL     1      -7.066 -33.432  -4.571  1.00  0.00     0.187 HD
ENDBRANCH   4  36
BRANCH   7  43
HETATM   43  N9  UNL     1      -5.614 -30.693  -8.366  1.00  0.00    -0.383 N
ATOM     44  H92 UNL     1      -5.262 -29.806  -8.009  1.00  0.00     0.157 HD
ATOM     45  H91 UNL     1      -6.191 -30.726  -9.207  1.00  0.00     0.157 HD
ENDBRANCH   7  43
TORSDOF 12
ENDMDL