MODEL 5
REMARK VINA RESULT: -8.934109015      2.175      2.495
REMARK  9 active torsions:
REMARK  status: ('A' for Active; 'I' for Inactive)
REMARK    1  A    between atoms: C2_2  and  C3_4
REMARK    2  A    between atoms: C5_9  and  N2_10
REMARK    3  A    between atoms: N2_10  and  C6_12
REMARK    4  A    between atoms: C6_12  and  C7_13
REMARK    5  A    between atoms: C12_20  and  N4_21
REMARK    6  A    between atoms: C13_26  and  N6_27
REMARK    7  A    between atoms: N6_27  and  O2_29
REMARK    8  A    between atoms: O2_29  and  C14_30
REMARK    9  A    between atoms: C15_35  and  N9_36
ROOT
HETATM    1  C7  UNL     1      -2.225 -35.244  -9.478  1.00  0.00     0.030 A
HETATM    2  C8  UNL     1      -2.490 -35.304  -8.123  1.00  0.00     0.060 A
HETATM    3  C9  UNL     1      -3.486 -34.508  -7.620  1.00  0.00     0.090 A
HETATM    4  C10 UNL     1      -4.196 -33.667  -8.496  1.00  0.00     0.100 A
HETATM    5  N3  UNL     1      -5.099 -33.003  -7.782  1.00  0.00    -0.334 N
ATOM      6  H3  UNL     1      -5.765 -32.317  -8.139  1.00  0.00     0.168 HD
HETATM    7  C11 UNL     1      -4.975 -33.398  -6.514  1.00  0.00     0.174 A
HETATM    8  C12 UNL     1      -5.746 -32.944  -5.446  1.00  0.00     0.160 C
HETATM    9  N5  UNL     1      -5.971 -33.557  -4.268  1.00  0.00    -0.171 N
ATOM     10  H5  UNL     1      -6.694 -33.131  -3.688  1.00  0.00     0.186 HD
HETATM   11  C13 UNL     1      -5.379 -34.657  -3.737  1.00  0.00     0.718 C
HETATM   12  N8  UNL     1      -4.237 -35.248  -4.205  1.00  0.00    -0.020 N
ATOM     13  H8  UNL     1      -3.873 -36.012  -3.636  1.00  0.00     0.203 HD
HETATM   14  C15 UNL     1      -3.530 -34.961  -5.310  1.00  0.00     0.699 C
HETATM   15  N10 UNL     1      -3.986 -34.325  -6.392  1.00  0.00    -0.126 N
HETATM   16  C16 UNL     1      -3.910 -33.628  -9.840  1.00  0.00     0.143 A
HETATM   17  C17 UNL     1      -4.610 -32.785 -10.764  1.00  0.00     0.120 C
HETATM   18  N11 UNL     1      -5.162 -32.091 -11.512  1.00  0.00    -0.190 NA
HETATM   19  N12 UNL     1      -2.926 -34.427 -10.278  1.00  0.00    -0.348 N
ATOM     20  H12 UNL     1      -2.699 -34.413 -11.272  1.00  0.00     0.166 HD
ENDROOT
BRANCH   1  21
HETATM   21  C6  UNL     1      -1.134 -36.107 -10.069  1.00  0.00     0.173 C
BRANCH  21  22
HETATM   22  N2  UNL     1      -0.777 -35.591 -11.342  1.00  0.00    -0.389 N
ATOM     23  H2  UNL     1      -1.459 -35.488 -12.094  1.00  0.00     0.155 HD
BRANCH  22  24
HETATM   24  C5  UNL     1       0.586 -35.227 -11.507  1.00  0.00     0.309 C
HETATM   25  C4  UNL     1       1.565 -36.346 -11.351  1.00  0.00     0.289 C
HETATM   26  N1  UNL     1       1.351 -37.103 -12.579  1.00  0.00    -0.035 N
HETATM   27  C3  UNL     1       1.341 -36.017 -13.562  1.00  0.00     0.453 C
ATOM     28  H12 UNL     1       0.533 -37.712 -12.585  1.00  0.00     0.280 HD
ATOM     29  H11 UNL     1       2.018 -37.854 -12.757  1.00  0.00     0.280 HD
HETATM   30  N13 UNL     1       0.768 -34.876 -12.917  1.00  0.00    -0.017 N
ATOM     31 2H13 UNL     1       1.314 -34.024 -13.051  1.00  0.00     0.282 HD
ATOM     32 1H13 UNL     1      -0.090 -34.552 -13.364  1.00  0.00     0.282 HD
BRANCH  27  33
HETATM   33  C2  UNL     1       0.653 -36.438 -14.789  1.00  0.00     0.180 C
HETATM   34  C1  UNL     1       1.456 -36.867 -15.960  1.00  0.00     0.095 C
HETATM   35  O1  UNL     1      -0.576 -36.456 -14.904  1.00  0.00    -0.294 OA
ENDBRANCH  27  33
ENDBRANCH  22  24
ENDBRANCH  21  22
ENDBRANCH   1  21
BRANCH  14  36
HETATM   36  N9  UNL     1      -2.311 -35.342  -5.277  1.00  0.00    -0.233 N
ATOM     37  H92 UNL     1      -1.570 -34.652  -5.407  1.00  0.00     0.174 HD
ATOM     38  H91 UNL     1      -2.180 -36.340  -5.112  1.00  0.00     0.174 HD
ENDBRANCH  14  36
BRANCH   8  39
HETATM   39  N4  UNL     1      -6.299 -31.795  -5.637  1.00  0.00    -0.382 N
ATOM     40  H42 UNL     1      -7.097 -31.552  -5.051  1.00  0.00     0.157 HD
ATOM     41  H41 UNL     1      -5.867 -31.237  -6.374  1.00  0.00     0.157 HD
ENDBRANCH   8  39
BRANCH  11  42
HETATM   42  N6  UNL     1      -5.952 -35.175  -2.708  1.00  0.00    -0.086 N
ATOM     43  H6  UNL     1      -6.936 -35.443  -2.746  1.00  0.00     0.214 HD
BRANCH  42  44
HETATM   44  O2  UNL     1      -5.228 -35.363  -1.568  1.00  0.00    -0.169 OA
BRANCH  44  45
HETATM   45  C14 UNL     1      -5.748 -35.364  -0.301  1.00  0.00     0.395 C
HETATM   46  N7  UNL     1      -6.165 -36.592   0.261  1.00  0.00    -0.031 NA
HETATM   47  O3  UNL     1      -5.842 -34.280   0.328  1.00  0.00    -0.240 OA
ENDBRANCH  44  45
ENDBRANCH  42  44
ENDBRANCH  11  42
TORSDOF 9
ENDMDL