MODEL 4
REMARK VINA RESULT: -8.261948849      6.577     10.962
REMARK  14 active torsions:
REMARK  status: ('A' for Active; 'I' for Inactive)
REMARK    1  A    between atoms: N1_1  and  C1_5
REMARK    2  A    between atoms: C2_9  and  O1_10
REMARK    3  A    between atoms: C3_13  and  N3_14
REMARK    4  A    between atoms: N3_14  and  N4_15
REMARK    5  A    between atoms: N3_14  and  C4_18
REMARK    6  A    between atoms: C4_18  and  C5_19
REMARK    7  A    between atoms: C5_19  and  C6_20
REMARK    8  A    between atoms: C6_20  and  O3_21
REMARK    9  A    between atoms: C8_25  and  N5_26
REMARK       I    between atoms: N5_26  and  C9_28
REMARK   10  A    between atoms: C9_28  and  C10_30
REMARK   11  A    between atoms: C11_31  and  C12_32
REMARK   12  A    between atoms: C13_34  and  O7_35
REMARK   13  A    between atoms: C14_37  and  O8_38
REMARK   14  A    between atoms: C15_40  and  O9_41
ROOT
HETATM    1  C5  UNL     1      -4.912 -28.611 -10.904  1.00  0.00     0.201 C
HETATM    2  O4  UNL     1      -5.321 -29.215 -12.115  1.00  0.00    -0.348 OA
HETATM    3  C7  UNL     1      -5.150 -30.579 -11.926  1.00  0.00     0.225 C
HETATM    4  C8  UNL     1      -4.074 -30.703 -10.899  1.00  0.00     0.251 C
HETATM    5  O10 UNL     1      -3.828 -29.403 -10.528  1.00  0.00    -0.325 OA
ENDROOT
BRANCH   1   6
HETATM    6  C4  UNL     1      -4.427 -27.248 -11.151  1.00  0.00     0.187 C
BRANCH   6   7
HETATM    7  N3  UNL     1      -5.075 -26.459 -12.136  1.00  0.00    -0.201 NA
BRANCH   7   8
HETATM    8  C3  UNL     1      -4.125 -26.015 -13.130  1.00  0.00     0.256 C
HETATM    9  O2  UNL     1      -4.705 -25.119 -14.029  1.00  0.00    -0.306 OA
HETATM   10  C2  UNL     1      -4.123 -25.732 -15.137  1.00  0.00     0.373 C
HETATM   11  N2  UNL     1      -2.831 -25.264 -15.527  1.00  0.00     0.037 N
HETATM   12  C16 UNL     1      -3.822 -26.927 -14.262  1.00  0.00     0.264 C
HETATM   13  C1  UNL     1      -1.856 -26.061 -14.854  1.00  0.00     0.528 C
ATOM     14  H22 UNL     1      -2.706 -24.265 -15.363  1.00  0.00     0.289 HD
ATOM     15  H21 UNL     1      -2.703 -25.253 -16.538  1.00  0.00     0.289 HD
HETATM   16  O11 UNL     1      -2.481 -27.226 -14.436  1.00  0.00    -0.322 OA
BRANCH  10  17
HETATM   17  O1  UNL     1      -5.061 -25.920 -16.123  1.00  0.00    -0.341 OA
ATOM     18  H1  UNL     1      -5.978 -25.877 -15.877  1.00  0.00     0.215 HD
ENDBRANCH  10  17
BRANCH  13  19
HETATM   19  N1  UNL     1      -0.707 -26.394 -15.652  1.00  0.00    -0.027 N
ATOM     20  H13 UNL     1      -0.687 -27.396 -15.845  1.00  0.00     0.279 HD
ATOM     21  H12 UNL     1      -0.817 -26.036 -16.600  1.00  0.00     0.279 HD
ATOM     22  H11 UNL     1       0.183 -26.090 -15.258  1.00  0.00     0.279 HD
ENDBRANCH  13  19
ENDBRANCH   7   8
BRANCH   7  23
HETATM   23  N4  UNL     1      -5.683 -25.299 -11.657  1.00  0.00    -0.361 NA
ATOM     24  H42 UNL     1      -5.225 -24.428 -11.928  1.00  0.00     0.171 HD
ATOM     25  H41 UNL     1      -6.638 -25.325 -12.014  1.00  0.00     0.171 HD
ENDBRANCH   7  23
ENDBRANCH   6   7
ENDBRANCH   1   6
BRANCH   1  26
HETATM   26  C6  UNL     1      -6.001 -28.825  -9.928  1.00  0.00     0.234 C
BRANCH  26  27
HETATM   27  O3  UNL     1      -6.581 -27.646  -9.463  1.00  0.00    -0.395 OA
ATOM     28  H3  UNL     1      -7.196 -27.775  -8.750  1.00  0.00     0.209 HD
ENDBRANCH  26  27
ENDBRANCH   1  26
BRANCH   4  29
HETATM   29  N5  UNL     1      -2.880 -31.350 -11.417  1.00  0.00    -0.329 N
HETATM   30  C9  UNL     1      -2.513 -32.657 -11.020  1.00  0.00     0.243 C
HETATM   31  O5  UNL     1      -3.238 -33.265 -10.206  1.00  0.00    -0.269 OA
ATOM     32  H5  UNL     1      -2.291 -30.849 -12.082  1.00  0.00     0.165 HD
BRANCH  30  33
HETATM   33  C10 UNL     1      -1.315 -33.318 -11.530  1.00  0.00     0.077 C
HETATM   34  C11 UNL     1      -1.425 -34.427 -12.198  1.00  0.00     0.046 C
BRANCH  34  35
HETATM   35  C12 UNL     1      -0.303 -35.155 -12.744  1.00  0.00     0.114 A
HETATM   36  O6  UNL     1       0.946 -34.681 -12.550  1.00  0.00    -0.283 OA
HETATM   37  C13 UNL     1       1.825 -35.450 -13.102  1.00  0.00     0.221 A
HETATM   38  C14 UNL     1       1.218 -36.506 -13.712  1.00  0.00     0.161 A
HETATM   39  C15 UNL     1      -0.175 -36.307 -13.473  1.00  0.00     0.138 A
BRANCH  37  40
HETATM   40  O7  UNL     1       3.204 -35.191 -13.054  1.00  0.00    -0.339 OA
ATOM     41  H7  UNL     1       3.596 -34.406 -13.418  1.00  0.00     0.220 HD
ENDBRANCH  37  40
BRANCH  38  42
HETATM   42  O8  UNL     1       1.811 -37.535 -14.402  1.00  0.00    -0.354 OA
ATOM     43  H8  UNL     1       1.842 -38.454 -14.165  1.00  0.00     0.218 HD
ENDBRANCH  38  42
BRANCH  39  44
HETATM   44  O9  UNL     1      -1.090 -37.170 -13.936  1.00  0.00    -0.356 OA
ATOM     45  H9  UNL     1      -1.044 -37.829 -14.620  1.00  0.00     0.218 HD
ENDBRANCH  39  44
ENDBRANCH  34  35
ENDBRANCH  30  33
ENDBRANCH   4  29
TORSDOF 14
ENDMDL