MODEL 4
REMARK VINA RESULT: -7.321214364      4.758      8.441
REMARK  14 active torsions:
REMARK  status: ('A' for Active; 'I' for Inactive)
REMARK    1  A    between atoms: S1_2  and  C2_3
REMARK    2  A    between atoms: C3_5  and  C4_6
REMARK    3  A    between atoms: C6_9  and  C7_10
REMARK       I    between atoms: C7_10  and  N1_12
REMARK    4  A    between atoms: N1_12  and  C8_14
REMARK    5  A    between atoms: C8_14  and  C9_15
REMARK    6  A    between atoms: C9_15  and  N2_16
REMARK    7  A    between atoms: N2_16  and  C10_18
REMARK    8  A    between atoms: C10_18  and  N3_19
REMARK    9  A    between atoms: N3_19  and  O4_21
REMARK   10  A    between atoms: O4_21  and  C11_22
REMARK   11  A    between atoms: C12_30  and  O5_31
REMARK   12  A    between atoms: C13_34  and  O7_35
REMARK   13  A    between atoms: C14_37  and  O8_38
REMARK   14  A    between atoms: C15_40  and  O9_41
ROOT
HETATM    1  C4  UNL     1      -0.173 -36.445  -9.545  1.00  0.00     0.296 C
HETATM    2  O2  UNL     1      -1.488 -36.192  -9.668  1.00  0.00    -0.356 OA
HETATM    3  C5  UNL     1      -2.124 -35.438  -8.703  1.00  0.00     0.214 C
HETATM    4  C6  UNL     1      -1.632 -35.674  -7.331  1.00  0.00     0.306 C
HETATM    5  N6  UNL     1      -0.477 -34.754  -7.150  1.00  0.00    -0.010 N
ATOM      6  H61 UNL     1      -0.375 -34.392  -6.201  1.00  0.00     0.284 HD
ATOM      7  H62 UNL     1      -0.588 -33.848  -7.604  1.00  0.00     0.284 HD
HETATM    8  C12 UNL     1       0.653 -35.512  -7.615  1.00  0.00     0.470 C
HETATM    9  O6  UNL     1       0.638 -35.434  -9.016  1.00  0.00    -0.306 OA
ENDROOT
BRANCH   4  10
HETATM   10  C7  UNL     1      -2.534 -35.112  -6.207  1.00  0.00     0.251 C
HETATM   11  O3  UNL     1      -2.205 -35.174  -5.055  1.00  0.00    -0.271 OA
HETATM   12  N1  UNL     1      -3.712 -34.606  -6.769  1.00  0.00    -0.354 N
ATOM     13  H1  UNL     1      -3.719 -34.648  -7.788  1.00  0.00     0.162 HD
BRANCH  12  14
HETATM   14  C8  UNL     1      -4.903 -34.045  -6.226  1.00  0.00     0.167 C
BRANCH  14  15
HETATM   15  C9  UNL     1      -5.640 -33.461  -7.435  1.00  0.00     0.091 C
BRANCH  15  16
HETATM   16  N2  UNL     1      -5.780 -32.081  -7.466  1.00  0.00    -0.319 N
ATOM     17  H2  UNL     1      -6.371 -31.612  -6.779  1.00  0.00     0.176 HD
BRANCH  16  18
HETATM   18  C10 UNL     1      -5.176 -31.406  -8.346  1.00  0.00     0.073 C
BRANCH  18  19
HETATM   19  N3  UNL     1      -4.597 -30.419  -8.995  1.00  0.00    -0.206 N
ATOM     20  H3  UNL     1      -4.032 -30.531  -9.837  1.00  0.00     0.206 HD
BRANCH  19  21
HETATM   21  O4  UNL     1      -4.861 -29.191  -8.372  1.00  0.00    -0.196 OA
BRANCH  21  22
HETATM   22  C11 UNL     1      -5.524 -28.256  -9.205  1.00  0.00     0.250 C
HETATM   23  N4  UNL     1      -4.970 -27.649 -10.178  1.00  0.00    -0.366 N
ATOM     24  H42 UNL     1      -3.986 -27.874 -10.329  1.00  0.00     0.159 HD
ATOM     25  H41 UNL     1      -5.446 -26.976 -10.778  1.00  0.00     0.159 HD
HETATM   26  N5  UNL     1      -6.908 -27.939  -8.993  1.00  0.00    -0.055 NA
ENDBRANCH  21  22
ENDBRANCH  19  21
ENDBRANCH  18  19
ENDBRANCH  16  18
ENDBRANCH  15  16
ENDBRANCH  14  15
ENDBRANCH  12  14
ENDBRANCH   4  10
BRANCH   8  27
HETATM   27  O5  UNL     1       0.584 -36.830  -7.163  1.00  0.00    -0.349 OA
ATOM     28  H5  UNL     1       1.252 -37.364  -7.578  1.00  0.00     0.214 HD
ENDBRANCH   8  27
BRANCH   1  29
HETATM   29  C3  UNL     1       0.470 -36.733 -10.920  1.00  0.00     0.209 C
HETATM   30  O1  UNL     1       1.807 -36.528 -10.816  1.00  0.00    -0.360 OA
HETATM   31  C2  UNL     1       2.463 -36.722 -12.048  1.00  0.00     0.214 C
HETATM   32  C15 UNL     1       1.643 -36.380 -13.237  1.00  0.00     0.188 C
HETATM   33  C14 UNL     1       0.683 -35.271 -12.882  1.00  0.00     0.181 C
HETATM   34  C13 UNL     1      -0.278 -35.864 -11.883  1.00  0.00     0.183 C
BRANCH  31  35
HETATM   35  S1  UNL     1       3.100 -38.419 -12.169  1.00  0.00    -0.139 SA
HETATM   36  C1  UNL     1       3.302 -39.174 -10.537  1.00  0.00     0.092 C
ENDBRANCH  31  35
BRANCH  32  37
HETATM   37  O9  UNL     1       2.457 -36.029 -14.309  1.00  0.00    -0.389 OA
ATOM     38  H9  UNL     1       2.347 -36.642 -15.026  1.00  0.00     0.210 HD
ENDBRANCH  32  37
BRANCH  33  39
HETATM   39  O8  UNL     1       1.381 -34.258 -12.257  1.00  0.00    -0.390 OA
ATOM     40  H8  UNL     1       0.804 -33.509 -12.170  1.00  0.00     0.210 HD
ENDBRANCH  33  39
BRANCH  34  41
HETATM   41  O7  UNL     1      -1.296 -36.599 -12.518  1.00  0.00    -0.390 OA
ATOM     42  H7  UNL     1      -1.150 -36.625 -13.456  1.00  0.00     0.210 HD
ENDBRANCH  34  41
ENDBRANCH   1  29
TORSDOF 14
ENDMDL