MODEL 4
REMARK VINA RESULT: -6.972769286      2.626      5.166
REMARK  14 active torsions:
REMARK  status: ('A' for Active; 'I' for Inactive)
REMARK    1  A    between atoms: N1_1  and  C1_5
REMARK    2  A    between atoms: C1_5  and  C2_6
REMARK    3  A    between atoms: C5_9  and  N2_10
REMARK    4  A    between atoms: C6_14  and  O1_15
REMARK    5  A    between atoms: O1_15  and  C7_16
REMARK    6  A    between atoms: C8_18  and  O3_19
REMARK    7  A    between atoms: O3_19  and  C9_20
REMARK    8  A    between atoms: C10_22  and  C11_23
REMARK    9  A    between atoms: N4_25  and  O5_27
REMARK   10  A    between atoms: C12_29  and  C13_30
REMARK   11  A    between atoms: C13_30  and  O6_31
REMARK   12  A    between atoms: C14_33  and  O7_34
REMARK   13  A    between atoms: C15_36  and  N5_37
REMARK   14  A    between atoms: C17_42  and  N6_43
ROOT
HETATM    1  C7  UNL     1      -1.225 -34.751  -9.117  1.00  0.00     0.296 C
HETATM    2  O2  UNL     1      -0.259 -35.045 -10.067  1.00  0.00    -0.327 OA
HETATM    3  C8  UNL     1       0.111 -36.387 -10.060  1.00  0.00     0.296 C
HETATM    4  C15 UNL     1       0.845 -36.687  -8.762  1.00  0.00     0.240 C
HETATM    5  C16 UNL     1       0.142 -36.167  -7.557  1.00  0.00     0.075 C
HETATM    6  C17 UNL     1      -0.546 -34.853  -7.755  1.00  0.00     0.240 C
ENDROOT
BRANCH   3   7
HETATM    7  O3  UNL     1       1.078 -36.526 -11.079  1.00  0.00    -0.327 OA
BRANCH   7   8
HETATM    8  C9  UNL     1       0.645 -35.959 -12.268  1.00  0.00     0.293 C
HETATM    9  O4  UNL     1      -0.366 -36.752 -12.859  1.00  0.00    -0.345 OA
HETATM   10  C10 UNL     1      -0.468 -36.190 -14.138  1.00  0.00     0.199 C
HETATM   11  C12 UNL     1       0.919 -36.011 -14.624  1.00  0.00     0.079 C
HETATM   12  C14 UNL     1       1.716 -35.982 -13.314  1.00  0.00     0.182 C
BRANCH  10  13
HETATM   13  C11 UNL     1      -1.416 -36.834 -15.023  1.00  0.00     0.142 C
HETATM   14  N3  UNL     1      -1.834 -36.316 -16.276  1.00  0.00    -0.083 NA
HETATM   15  N4  UNL     1      -1.954 -37.981 -14.683  1.00  0.00    -0.257 N
ATOM     16  H4  UNL     1      -1.694 -38.405 -13.793  1.00  0.00     0.195 HD
BRANCH  15  17
HETATM   17  O5  UNL     1      -2.852 -38.623 -15.488  1.00  0.00    -0.289 OA
ATOM     18  H5  UNL     1      -3.305 -39.408 -15.206  1.00  0.00     0.244 HD
ENDBRANCH  15  17
ENDBRANCH  10  13
BRANCH  11  19
HETATM   19  C13 UNL     1       1.452 -37.105 -15.520  1.00  0.00     0.174 C
BRANCH  19  20
HETATM   20  O6  UNL     1       2.527 -37.750 -14.955  1.00  0.00    -0.400 OA
ATOM     21  H6  UNL     1       3.317 -37.637 -15.470  1.00  0.00     0.209 HD
ENDBRANCH  19  20
ENDBRANCH  11  19
BRANCH  12  22
HETATM   22  O7  UNL     1       2.553 -34.871 -13.252  1.00  0.00    -0.390 OA
ATOM     23  H7  UNL     1       3.409 -35.074 -12.893  1.00  0.00     0.210 HD
ENDBRANCH  12  22
ENDBRANCH   7   8
ENDBRANCH   3   7
BRANCH   4  24
HETATM   24  N5  UNL     1       2.160 -36.088  -8.877  1.00  0.00    -0.070 N
ATOM     25  H53 UNL     1       2.136 -35.068  -8.916  1.00  0.00     0.274 HD
ATOM     26  H52 UNL     1       2.716 -36.170  -8.026  1.00  0.00     0.274 HD
ATOM     27  H51 UNL     1       2.605 -36.511  -9.692  1.00  0.00     0.274 HD
ENDBRANCH   4  24
BRANCH   1  28
HETATM   28  O1  UNL     1      -1.630 -33.453  -9.323  1.00  0.00    -0.327 OA
BRANCH  28  29
HETATM   29  C6  UNL     1      -2.903 -33.327  -9.840  1.00  0.00     0.293 C
HETATM   30  C5  UNL     1      -3.749 -32.323  -9.068  1.00  0.00     0.238 C
HETATM   31  C4  UNL     1      -5.030 -32.145  -9.872  1.00  0.00     0.040 C
HETATM   32  C3  UNL     1      -5.218 -33.274 -10.853  1.00  0.00     0.036 C
HETATM   33  C2  UNL     1      -4.778 -34.607 -10.301  1.00  0.00     0.150 C
HETATM   34  O8  UNL     1      -3.540 -34.563  -9.697  1.00  0.00    -0.352 OA
BRANCH  30  35
HETATM   35  N2  UNL     1      -3.057 -31.063  -8.888  1.00  0.00    -0.070 N
ATOM     36  H23 UNL     1      -3.650 -30.271  -9.140  1.00  0.00     0.274 HD
ATOM     37  H22 UNL     1      -2.922 -30.849  -7.900  1.00  0.00     0.274 HD
ATOM     38  H21 UNL     1      -2.174 -31.045  -9.398  1.00  0.00     0.274 HD
ENDBRANCH  30  35
BRANCH  33  39
HETATM   39  C1  UNL     1      -5.867 -35.100  -9.378  1.00  0.00     0.261 C
BRANCH  39  40
HETATM   40  N1  UNL     1      -5.346 -35.649  -8.153  1.00  0.00    -0.077 N
ATOM     41  H13 UNL     1      -4.461 -35.210  -7.901  1.00  0.00     0.274 HD
ATOM     42  H12 UNL     1      -5.907 -35.358  -7.352  1.00  0.00     0.274 HD
ATOM     43  H11 UNL     1      -5.255 -36.665  -8.188  1.00  0.00     0.274 HD
ENDBRANCH  39  40
ENDBRANCH  33  39
ENDBRANCH  28  29
ENDBRANCH   1  28
BRANCH   6  44
HETATM   44  N6  UNL     1       0.334 -33.719  -7.642  1.00  0.00    -0.070 N
ATOM     45  H63 UNL     1       1.301 -33.935  -7.881  1.00  0.00     0.274 HD
ATOM     46  H62 UNL     1       0.177 -33.015  -8.363  1.00  0.00     0.274 HD
ATOM     47  H61 UNL     1       0.226 -33.355  -6.695  1.00  0.00     0.274 HD
ENDBRANCH   6  44
TORSDOF 14
ENDMDL