MODEL 1
REMARK VINA RESULT: -7.191368374      0.000      0.000
REMARK  15 active torsions:
REMARK  status: ('A' for Active; 'I' for Inactive)
REMARK    1  A    between atoms: O1_1  and  C1_3
REMARK    2  A    between atoms: C1_3  and  C2_4
REMARK    3  A    between atoms: C3_6  and  O3_7
REMARK    4  A    between atoms: O3_7  and  C4_8
REMARK    5  A    between atoms: C5_10  and  O5_11
REMARK    6  A    between atoms: C5_10  and  O6_13
REMARK    7  A    between atoms: C6_15  and  O7_16
REMARK    8  A    between atoms: C6_15  and  C7_18
REMARK    9  A    between atoms: C7_18  and  O8_19
REMARK   10  A    between atoms: C8_21  and  O9_22
REMARK   11  A    between atoms: C9_24  and  O10_25
REMARK   12  A    between atoms: C10_27  and  O11_28
REMARK   13  A    between atoms: C12_31  and  O12_32
REMARK   14  A    between atoms: C12_31  and  O13_34
REMARK   15  A    between atoms: O13_34  and  C13_35
ROOT
HETATM    1  O3  UNL     1       0.495 -36.687  -8.382  1.00  0.00    -0.326 OA
ENDROOT
BRANCH   1   2
HETATM    2  C3  UNL     1      -0.694 -36.034  -8.073  1.00  0.00     0.292 C
HETATM    3  O2  UNL     1      -1.655 -36.850  -7.572  1.00  0.00    -0.346 OA
HETATM    4  C2  UNL     1      -2.772 -36.309  -7.030  1.00  0.00     0.210 C
HETATM    5  C12 UNL     1      -2.613 -34.962  -6.361  1.00  0.00     0.193 C
HETATM    6  C11 UNL     1      -1.601 -34.086  -6.998  1.00  0.00     0.108 C
HETATM    7  C10 UNL     1      -0.300 -34.892  -7.140  1.00  0.00     0.178 C
BRANCH   4   8
HETATM    8  C1  UNL     1      -3.885 -36.113  -8.070  1.00  0.00     0.201 C
BRANCH   8   9
HETATM    9  O1  UNL     1      -5.095 -36.463  -7.519  1.00  0.00    -0.398 OA
ATOM     10  H1  UNL     1      -5.562 -35.679  -7.254  1.00  0.00     0.209 HD
ENDBRANCH   8   9
ENDBRANCH   4   8
BRANCH   5  11
HETATM   11  O12 UNL     1      -2.144 -35.251  -5.055  1.00  0.00    -0.363 OA
ATOM     12  H12 UNL     1      -1.427 -34.645  -4.909  1.00  0.00     0.213 HD
ENDBRANCH   5  11
BRANCH   5  13
HETATM   13  O13 UNL     1      -3.863 -34.423  -6.211  1.00  0.00    -0.347 OA
BRANCH  13  14
HETATM   14  C13 UNL     1      -4.202 -34.019  -4.951  1.00  0.00     0.125 C
HETATM   15  C14 UNL     1      -5.244 -34.851  -4.280  1.00  0.00     0.032 C
HETATM   16  C15 UNL     1      -6.595 -34.286  -4.650  1.00  0.00     0.002 C
HETATM   17  C16 UNL     1      -6.356 -33.036  -5.445  1.00  0.00     0.002 C
HETATM   18  C17 UNL     1      -4.932 -32.674  -5.101  1.00  0.00     0.032 C
ENDBRANCH  13  14
ENDBRANCH   5  13
BRANCH   7  19
HETATM   19  O11 UNL     1       0.659 -34.132  -7.795  1.00  0.00    -0.390 OA
ATOM     20  H11 UNL     1       0.551 -33.231  -7.512  1.00  0.00     0.210 HD
ENDBRANCH   7  19
ENDBRANCH   1   2
BRANCH   1  21
HETATM   21  C4  UNL     1       0.639 -36.927  -9.748  1.00  0.00     0.300 C
HETATM   22  O4  UNL     1       0.137 -35.814 -10.401  1.00  0.00    -0.297 OA
HETATM   23  C5  UNL     1       0.364 -35.800 -11.756  1.00  0.00     0.318 C
HETATM   24  C6  UNL     1       1.776 -36.061 -12.159  1.00  0.00     0.191 C
HETATM   25  C8  UNL     1       2.418 -37.215 -11.465  1.00  0.00     0.196 C
HETATM   26  C9  UNL     1       2.144 -37.080  -9.984  1.00  0.00     0.205 C
BRANCH  23  27
HETATM   27  O5  UNL     1       0.051 -34.487 -12.185  1.00  0.00    -0.341 OA
ATOM     28  H5  UNL     1      -0.789 -34.551 -12.623  1.00  0.00     0.215 HD
ENDBRANCH  23  27
BRANCH  23  29
HETATM   29  O6  UNL     1      -0.468 -36.649 -12.475  1.00  0.00    -0.341 OA
ATOM     30  H6  UNL     1      -0.805 -36.270 -13.278  1.00  0.00     0.215 HD
ENDBRANCH  23  29
BRANCH  24  31
HETATM   31  O7  UNL     1       2.539 -34.918 -11.893  1.00  0.00    -0.378 OA
ATOM     32  H7  UNL     1       3.163 -34.796 -12.599  1.00  0.00     0.211 HD
ENDBRANCH  24  31
BRANCH  24  33
HETATM   33  C7  UNL     1       1.821 -36.308 -13.656  1.00  0.00     0.213 C
BRANCH  33  34
HETATM   34  O8  UNL     1       1.681 -35.145 -14.392  1.00  0.00    -0.398 OA
ATOM     35  H8  UNL     1       0.983 -35.201 -15.034  1.00  0.00     0.209 HD
ENDBRANCH  33  34
ENDBRANCH  24  33
BRANCH  25  36
HETATM   36  O9  UNL     1       2.029 -38.453 -11.956  1.00  0.00    -0.389 OA
ATOM     37  H9  UNL     1       2.714 -39.110 -11.929  1.00  0.00     0.210 HD
ENDBRANCH  25  36
BRANCH  26  38
HETATM   38  O10 UNL     1       2.741 -35.907  -9.533  1.00  0.00    -0.388 OA
ATOM     39  H10 UNL     1       3.632 -35.909  -9.862  1.00  0.00     0.210 HD
ENDBRANCH  26  38
ENDBRANCH   1  21
TORSDOF 15
ENDMDL