MODEL 3
REMARK VINA RESULT: -8.111830304      2.385      7.288
REMARK  4 active torsions:
REMARK  status: ('A' for Active; 'I' for Inactive)
REMARK    1  A    between atoms: C2_2  and  C4_4
REMARK    2  A    between atoms: C8_9  and  N1_10
REMARK    3  A    between atoms: N3_23  and  C17_24
REMARK    4  A    between atoms: C17_24  and  C19_26
ROOT
HETATM    1  C4  UNL     1      22.809  61.788  13.983  1.00  0.00    -0.050 A
HETATM    2  C5  UNL     1      23.937  62.527  13.691  1.00  0.00     0.050 A
HETATM    3  C6  UNL     1      24.081  63.110  12.455  1.00  0.00     0.131 A
HETATM    4  F1  UNL     1      25.176  63.846  12.123  1.00  0.00    -0.205 F
HETATM    5  C7  UNL     1      23.076  62.946  11.498  1.00  0.00     0.058 A
HETATM    6  C8  UNL     1      22.982  63.421  10.205  1.00  0.00     0.065 A
HETATM    7  C16 UNL     1      21.775  62.944   9.748  1.00  0.00     0.122 A
HETATM    8  N3  UNL     1      21.154  62.218  10.694  1.00  0.00    -0.349 N
HETATM    9  C22 UNL     1      21.948  62.209  11.788  1.00  0.00     0.050 A
HETATM   10  C23 UNL     1      21.809  61.617  13.054  1.00  0.00     0.038 A
ENDROOT
BRANCH   6  11
HETATM   11  N1  UNL     1      23.927  64.207   9.552  1.00  0.00    -0.344 N
HETATM   12  C9  UNL     1      23.892  64.632   8.353  1.00  0.00     0.084 C
HETATM   13  C10 UNL     1      24.985  65.459   7.817  1.00  0.00     0.078 C
HETATM   14  N2  UNL     1      22.812  64.329   7.499  1.00  0.00    -0.316 N
HETATM   15  C11 UNL     1      25.316  64.934   6.441  1.00  0.00     0.026 C
HETATM   16  C12 UNL     1      24.163  64.914   5.497  1.00  0.00     0.034 C
HETATM   17  C13 UNL     1      24.407  63.774   4.505  1.00  0.00     0.025 C
HETATM   18  C14 UNL     1      24.166  66.187   4.677  1.00  0.00     0.025 C
HETATM   19  C15 UNL     1      22.842  64.732   6.135  1.00  0.00     0.231 C
HETATM   20  O1  UNL     1      21.802  64.922   5.504  1.00  0.00    -0.272 OA
ATOM     21  H2  UNL     1      22.006  63.819   7.860  1.00  0.00     0.170 HD
ATOM     22  H1  UNL     1      24.745  64.474  10.100  1.00  0.00     0.167 HD
ENDBRANCH   6  11
BRANCH   8  23
HETATM   23  C17 UNL     1      19.900  61.559  10.620  1.00  0.00     0.089 C
HETATM   24  C18 UNL     1      18.808  62.570  10.302  1.00  0.00     0.033 C
BRANCH  23  25
HETATM   25  C19 UNL     1      19.758  60.456   9.651  1.00  0.00     0.000 C
HETATM   26  C20 UNL     1      18.731  60.871   8.612  1.00  0.00     0.011 C
HETATM   27  C21 UNL     1      19.366  59.120  10.157  1.00  0.00     0.011 C
ENDBRANCH  23  25
ENDBRANCH   8  23
BRANCH   1  28
HETATM   28  C2  UNL     1      22.674  61.161  15.341  1.00  0.00     0.010 C
HETATM   29  C1  UNL     1      22.569  59.647  15.139  1.00  0.00     0.015 C
HETATM   30  C3  UNL     1      21.407  61.657  15.966  1.00  0.00     0.015 C
ENDBRANCH   1  28
TORSDOF 4
ENDMDL