MODEL 5
REMARK VINA RESULT: -6.249632129      2.508      4.959
REMARK  6 active torsions:
REMARK  status: ('A' for Active; 'I' for Inactive)
REMARK    1  A    between atoms: C2_2  and  C5_5
REMARK    2  A    between atoms: C5_5  and  O2_7
REMARK    3  A    between atoms: O2_7  and  C6_8
REMARK    4  A    between atoms: C6_8  and  C7_9
REMARK    5  A    between atoms: C7_9  and  C8_10
REMARK    6  A    between atoms: C8_10  and  C9_11
ROOT
HETATM    1  C6  UNL     1      20.647  61.632  11.490  1.00  0.00     0.075 C
HETATM    2  C10 UNL     1      19.727  62.460  10.519  1.00  0.00     0.039 C
HETATM    3  C11 UNL     1      20.053  63.900  10.595  1.00  0.00     0.004 C
HETATM    4  C12 UNL     1      21.380  64.233   9.951  1.00  0.00     0.010 C
HETATM    5  C13 UNL     1      22.341  63.065  10.203  1.00  0.00    -0.037 C
HETATM    6  C14 UNL     1      22.404  62.286   8.956  1.00  0.00     0.015 C
HETATM    7  C15 UNL     1      23.687  63.721  10.395  1.00  0.00     0.010 C
HETATM    8  C16 UNL     1      24.101  64.069  11.752  1.00  0.00     0.006 C
HETATM    9  C17 UNL     1      23.795  63.094  12.837  1.00  0.00    -0.010 C
HETATM   10  C18 UNL     1      24.906  62.759  13.756  1.00  0.00     0.005 C
HETATM   11  C19 UNL     1      25.553  61.428  13.500  1.00  0.00     0.000 C
HETATM   12  C20 UNL     1      25.490  61.125  12.031  1.00  0.00     0.000 C
HETATM   13  C21 UNL     1      24.030  60.933  11.599  1.00  0.00     0.005 C
HETATM   14  C22 UNL     1      23.076  61.848  12.265  1.00  0.00    -0.003 C
HETATM   15  C23 UNL     1      21.933  62.386  11.463  1.00  0.00     0.033 C
ENDROOT
BRANCH   1  16
HETATM   16  O2  UNL     1      20.540  60.392  10.945  1.00  0.00    -0.309 OA
BRANCH  16  17
HETATM   17  C5  UNL     1      19.672  59.769  10.138  1.00  0.00     0.267 C
HETATM   18  O1  UNL     1      19.868  59.933   8.917  1.00  0.00    -0.264 OA
BRANCH  17  19
HETATM   19  C2  UNL     1      18.530  58.922  10.626  1.00  0.00     0.037 C
HETATM   20  C1  UNL     1      18.929  58.113  11.831  1.00  0.00     0.025 C
HETATM   21  C3  UNL     1      18.165  57.939   9.526  1.00  0.00     0.025 C
HETATM   22  C4  UNL     1      17.311  59.757  10.925  1.00  0.00     0.025 C
ENDBRANCH  17  19
ENDBRANCH  16  17
ENDBRANCH   1  16
BRANCH   1  23
HETATM   23  C7  UNL     1      19.951  61.833  12.815  1.00  0.00     0.040 C
BRANCH  23  24
HETATM   24  C8  UNL     1      20.188  60.865  13.901  1.00  0.00     0.018 C
BRANCH  24  25
HETATM   25  C9  UNL     1      20.319  61.703  15.210  1.00  0.00     0.115 C
HETATM   26 CL1  UNL     1      22.003  61.651  15.730  1.00  0.00    -0.130 Cl
ENDBRANCH  24  25
ENDBRANCH  23  24
ENDBRANCH   1  23
TORSDOF 6
ENDMDL