MODEL 2
REMARK VINA RESULT: -6.900625721      3.464      5.723
REMARK  5 active torsions:
REMARK  status: ('A' for Active; 'I' for Inactive)
REMARK    1  A    between atoms: C2_2  and  C3_3
REMARK    2  A    between atoms: C3_3  and  C4_4
REMARK    3  A    between atoms: N1_9  and  C9_10
REMARK    4  A    between atoms: C12_13  and  C13_14
REMARK    5  A    between atoms: C13_14  and  N3_18
ROOT
HETATM    1  C9  UNL     1      22.952  63.097  10.854  1.00  0.00     0.104 A
HETATM    2  C10 UNL     1      21.742  63.228  11.469  1.00  0.00     0.049 A
HETATM    3  C11 UNL     1      21.498  62.706  12.741  1.00  0.00     0.022 A
HETATM    4  C12 UNL     1      22.508  62.028  13.419  1.00  0.00     0.046 A
HETATM    5  C21 UNL     1      23.697  61.915  12.777  1.00  0.00     0.119 A
HETATM    6 CL1  UNL     1      25.067  61.097  13.460  1.00  0.00    -0.063 Cl
HETATM    7  N4  UNL     1      23.905  62.438  11.530  1.00  0.00    -0.332 N
ATOM      8  H4  UNL     1      24.821  62.322  11.097  1.00  0.00     0.168 HD
ENDROOT
BRANCH   4   9
HETATM    9  C13 UNL     1      22.221  61.518  14.734  1.00  0.00     0.111 C
HETATM   10  N2  UNL     1      22.704  61.955  15.787  1.00  0.00    -0.385 N
ATOM     11  H22 UNL     1      23.351  62.735  15.675  1.00  0.00     0.157 HD
ATOM     12  H21 UNL     1      22.500  61.594  16.719  1.00  0.00     0.157 HD
BRANCH   9  13
HETATM   13  N3  UNL     1      21.297  60.406  14.892  1.00  0.00    -0.358 N
HETATM   14  C14 UNL     1      21.735  59.118  14.439  1.00  0.00     0.082 C
HETATM   15  C15 UNL     1      22.946  58.652  15.250  1.00  0.00     0.032 C
HETATM   16  C16 UNL     1      20.622  58.113  14.789  1.00  0.00     0.025 C
HETATM   17  C17 UNL     1      19.352  58.569  14.129  1.00  0.00     0.004 C
HETATM   18  C18 UNL     1      18.891  59.851  14.740  1.00  0.00     0.025 C
HETATM   19  C19 UNL     1      20.001  60.518  15.478  1.00  0.00     0.082 C
HETATM   20  C20 UNL     1      19.591  61.955  15.731  1.00  0.00     0.032 C
ENDBRANCH   9  13
ENDBRANCH   4   9
BRANCH   1  21
HETATM   21  N1  UNL     1      23.171  63.632   9.569  1.00  0.00    -0.363 N
HETATM   22  C4  UNL     1      22.190  63.667   8.542  1.00  0.00     0.086 C
HETATM   23  C5  UNL     1      22.175  65.049   7.950  1.00  0.00     0.025 C
HETATM   24  C6  UNL     1      23.452  65.705   7.674  1.00  0.00     0.004 C
HETATM   25  C7  UNL     1      24.660  65.224   8.357  1.00  0.00     0.020 C
HETATM   26  C8  UNL     1      24.528  64.177   9.376  1.00  0.00     0.125 C
BRANCH  22  27
HETATM   27  C3  UNL     1      22.279  62.578   7.514  1.00  0.00     0.025 C
BRANCH  27  28
HETATM   28  C2  UNL     1      21.955  61.205   7.918  1.00  0.00    -0.002 C
HETATM   29  C1  UNL     1      20.570  61.228   8.584  1.00  0.00     0.005 C
ENDBRANCH  27  28
ENDBRANCH  22  27
ENDBRANCH   1  21
TORSDOF 5
ENDMDL