MODEL 1
REMARK VINA RESULT: -8.057543719      0.000      0.000
REMARK  4 active torsions:
REMARK  status: ('A' for Active; 'I' for Inactive)
REMARK    1  A    between atoms: C3_5  and  C4_6
REMARK    2  A    between atoms: C7_11  and  C8_12
REMARK    3  A    between atoms: C8_12  and  C9_13
REMARK    4  A    between atoms: C17_22  and  C18_23
ROOT
HETATM    1  C1  UNL     1      18.207  65.510  12.916  1.00  0.00     0.065 C
HETATM    2  C2  UNL     1      18.568  65.253  11.659  1.00  0.00     0.120 A
HETATM    3  N1  UNL     1      17.779  65.723  10.576  1.00  0.00    -0.331 N
ATOM      4  H1  UNL     1      16.936  66.272  10.751  1.00  0.00     0.168 HD
HETATM    5  C3  UNL     1      18.144  65.446   9.352  1.00  0.00     0.083 A
HETATM    6  N2  UNL     1      19.299  64.692   9.067  1.00  0.00    -0.330 N
ATOM      7  H2  UNL     1      19.547  64.498   8.096  1.00  0.00     0.168 HD
HETATM    8  C6  UNL     1      20.123  64.199  10.112  1.00  0.00     0.139 A
HETATM    9  C7  UNL     1      21.284  63.458  10.146  1.00  0.00     0.017 A
HETATM   10  C17 UNL     1      21.554  63.328  11.506  1.00  0.00     0.041 A
HETATM   11  N3  UNL     1      20.593  63.969  12.179  1.00  0.00    -0.294 N
ATOM     12  H3  UNL     1      20.545  64.036  13.196  1.00  0.00     0.187 HD
HETATM   13  N4  UNL     1      19.724  64.498  11.360  1.00  0.00    -0.224 N
ENDROOT
BRANCH   9  14
HETATM   14  C8  UNL     1      22.081  62.899   9.073  1.00  0.00     0.085 C
BRANCH  14  15
HETATM   15  C9  UNL     1      22.631  63.768   8.041  1.00  0.00    -0.026 A
HETATM   16  C10 UNL     1      23.773  64.487   8.118  1.00  0.00    -0.053 A
HETATM   17  C11 UNL     1      24.579  64.552   9.340  1.00  0.00     0.049 C
HETATM   18  C12 UNL     1      24.273  65.239   7.044  1.00  0.00     0.014 A
HETATM   19  C13 UNL     1      23.605  65.268   5.861  1.00  0.00    -0.060 A
HETATM   20  C14 UNL     1      24.105  66.048   4.682  1.00  0.00     0.048 C
HETATM   21  C15 UNL     1      22.442  64.546   5.753  1.00  0.00     0.031 A
HETATM   22  C16 UNL     1      21.949  63.805   6.811  1.00  0.00     0.041 A
HETATM   23 CL1  UNL     1      20.492  62.885   6.594  1.00  0.00    -0.084 Cl
ENDBRANCH  14  15
ENDBRANCH   9  14
BRANCH  10  24
HETATM   24  C18 UNL     1      22.606  62.535  12.156  1.00  0.00     0.038 C
HETATM   25  C19 UNL     1      23.738  63.487  12.595  1.00  0.00     0.011 C
HETATM   26  C20 UNL     1      24.955  62.547  12.667  1.00  0.00     0.001 C
HETATM   27  C21 UNL     1      24.590  61.513  13.712  1.00  0.00     0.000 C
HETATM   28  C22 UNL     1      23.298  61.821  14.411  1.00  0.00     0.001 C
HETATM   29  C23 UNL     1      22.115  61.991  13.514  1.00  0.00     0.011 C
ENDBRANCH  10  24
BRANCH   5  30
HETATM   30  C4  UNL     1      17.247  65.988   8.301  1.00  0.00     0.072 C
HETATM   31  C5  UNL     1      16.141  66.769   8.960  1.00  0.00     0.013 C
ENDBRANCH   5  30
TORSDOF 4
ENDMDL