MODEL 5
REMARK VINA RESULT: -7.886448970      1.515      2.014
REMARK  4 active torsions:
REMARK  status: ('A' for Active; 'I' for Inactive)
REMARK    1  A    between atoms: C4_4  and  C5_5
REMARK    2  A    between atoms: C15_17  and  N1_18
REMARK    3  A    between atoms: N1_18  and  C16_20
REMARK    4  A    between atoms: C16_20  and  C17_21
ROOT
HETATM    1  C1  UNL     1      22.135  61.311  10.776  1.00  0.00     0.012 C
HETATM    2  C2  UNL     1      21.660  62.738  10.952  1.00  0.00     0.004 C
HETATM    3  C3  UNL     1      21.842  63.528   9.667  1.00  0.00     0.016 C
HETATM    4  C4  UNL     1      22.998  64.480   9.720  1.00  0.00     0.026 C
HETATM    5  C13 UNL     1      24.234  63.855  10.349  1.00  0.00     0.012 C
HETATM    6  C14 UNL     1      23.956  63.131  11.624  1.00  0.00     0.026 C
HETATM    7  C15 UNL     1      22.499  63.383  12.012  1.00  0.00     0.080 C
ENDROOT
BRANCH   4   8
HETATM    8  C5  UNL     1      23.390  64.760   8.294  1.00  0.00    -0.012 A
HETATM    9  C6  UNL     1      22.587  64.896   7.194  1.00  0.00     0.027 A
HETATM   10  C7  UNL     1      23.203  65.151   6.014  1.00  0.00    -0.016 A
HETATM   11  C8  UNL     1      22.560  65.325   4.771  1.00  0.00     0.036 A
HETATM   12  C12 UNL     1      24.563  65.251   6.027  1.00  0.00     0.015 A
HETATM   13  C9  UNL     1      23.301  65.578   3.657  1.00  0.00     0.035 A
HETATM   14 CL1  UNL     1      22.491  65.794   2.100  1.00  0.00    -0.084 Cl
HETATM   15  C10 UNL     1      24.678  65.685   3.634  1.00  0.00     0.025 A
HETATM   16  C11 UNL     1      25.301  65.514   4.861  1.00  0.00     0.021 A
HETATM   17  S1  UNL     1      24.952  64.989   7.669  1.00  0.00    -0.094 SA
ENDBRANCH   4   8
BRANCH   7  18
HETATM   18  N1  UNL     1      22.295  62.805  13.300  1.00  0.00    -0.416 N
ATOM     19  H1  UNL     1      21.371  62.736  13.725  1.00  0.00     0.153 HD
BRANCH  18  20
HETATM   20  C16 UNL     1      23.468  62.332  13.952  1.00  0.00     0.118 C
BRANCH  20  21
HETATM   21  C17 UNL     1      23.173  61.217  14.941  1.00  0.00     0.007 C
HETATM   22  C18 UNL     1      22.639  60.009  14.237  1.00  0.00     0.032 C
HETATM   23  C19 UNL     1      22.652  58.859  15.235  1.00  0.00     0.168 C
HETATM   24  O1  UNL     1      22.358  59.323  16.499  1.00  0.00    -0.391 OA
HETATM   25  C20 UNL     1      21.488  60.402  16.504  1.00  0.00     0.168 C
HETATM   26  C21 UNL     1      22.172  61.645  15.977  1.00  0.00     0.032 C
ENDBRANCH  20  21
ENDBRANCH  18  20
ENDBRANCH   7  18
TORSDOF 4
ENDMDL