MODEL 1
REMARK VINA RESULT: -7.360708998      0.000      0.000
REMARK  4 active torsions:
REMARK  status: ('A' for Active; 'I' for Inactive)
REMARK    1  A    between atoms: C2_2  and  C3_3
REMARK    2  A    between atoms: C3_3  and  C4_4
REMARK    3  A    between atoms: C15_17  and  C17_19
REMARK    4  A    between atoms: C17_19  and  O3_20
ROOT
HETATM    1  C3  UNL     1      23.230  64.045   8.838  1.00  0.00    -0.014 C
HETATM    2  C6  UNL     1      22.595  63.356   7.695  1.00  0.00     0.055 C
HETATM    3  C7  UNL     1      21.821  62.091   7.987  1.00  0.00     0.097 C
HETATM    4  C8  UNL     1      22.324  61.074   6.922  1.00  0.00     0.050 C
HETATM    5  O1  UNL     1      22.186  61.479   9.165  1.00  0.00    -0.229 OA
HETATM    6  O2  UNL     1      21.504  61.716  10.206  1.00  0.00    -0.228 OA
HETATM    7  C9  UNL     1      21.817  62.996  10.732  1.00  0.00     0.109 C
HETATM    8  C10 UNL     1      20.611  63.866  10.736  1.00  0.00     0.024 C
HETATM    9  C11 UNL     1      19.752  63.705  12.005  1.00  0.00     0.008 C
HETATM   10  C12 UNL     1      19.699  62.299  12.482  1.00  0.00     0.001 C
HETATM   11  C13 UNL     1      21.072  61.662  12.623  1.00  0.00     0.009 C
HETATM   12  C14 UNL     1      22.070  62.696  12.225  1.00  0.00     0.034 C
HETATM   13  C15 UNL     1      23.461  62.375  12.599  1.00  0.00    -0.016 C
HETATM   14  C16 UNL     1      23.881  60.959  12.280  1.00  0.00     0.018 C
HETATM   15  C18 UNL     1      24.468  63.394  12.171  1.00  0.00     0.012 C
HETATM   16  C19 UNL     1      23.819  64.325  11.168  1.00  0.00     0.010 C
HETATM   17  C20 UNL     1      23.071  63.439  10.165  1.00  0.00     0.036 C
HETATM   18  C21 UNL     1      19.693  63.797   9.579  1.00  0.00     0.008 C
HETATM   19  C22 UNL     1      19.452  62.534   8.878  1.00  0.00     0.008 C
HETATM   20  C23 UNL     1      20.365  62.171   7.754  1.00  0.00     0.019 C
HETATM   21  C24 UNL     1      20.103  63.022   6.517  1.00  0.00     0.013 C
ENDROOT
BRANCH   1  22
HETATM   22  C2  UNL     1      24.735  64.028   8.591  1.00  0.00    -0.027 C
HETATM   23  C1  UNL     1      25.305  64.890   7.783  1.00  0.00     0.008 C
ENDBRANCH   1  22
BRANCH   1  24
HETATM   24  C4  UNL     1      22.961  65.563   8.792  1.00  0.00     0.009 C
HETATM   25  C5  UNL     1      22.039  65.859   7.595  1.00  0.00     0.006 C
ENDBRANCH   1  24
BRANCH  13  26
HETATM   26  C17 UNL     1      23.496  62.463  14.142  1.00  0.00     0.173 C
BRANCH  26  27
HETATM   27  O3  UNL     1      23.734  61.157  14.630  1.00  0.00    -0.400 OA
ATOM     28  H3  UNL     1      23.863  61.227  15.568  1.00  0.00     0.209 HD
ENDBRANCH  26  27
ENDBRANCH  13  26
TORSDOF 4
ENDMDL