MODEL 3
REMARK VINA RESULT: -7.988753437      2.069      2.983
REMARK  4 active torsions:
REMARK  status: ('A' for Active; 'I' for Inactive)
REMARK    1  A    between atoms: C8_8  and  C9_9
REMARK    2  A    between atoms: C15_17  and  O1_18
REMARK    3  A    between atoms: O1_18  and  C16_19
REMARK    4  A    between atoms: C16_19  and  C17_20
ROOT
HETATM    1  C1  UNL     1      22.312  61.282   9.055  1.00  0.00     0.046 C
HETATM    2  C2  UNL     1      21.384  61.998  10.008  1.00  0.00    -0.052 C
HETATM    3  C3  UNL     1      20.070  61.788   9.948  1.00  0.00    -0.062 C
HETATM    4  C4  UNL     1      19.611  60.813   8.885  1.00  0.00     0.035 C
HETATM    5  C5  UNL     1      18.144  60.840   8.621  1.00  0.00     0.004 C
HETATM    6  C6  UNL     1      17.641  62.230   8.933  1.00  0.00     0.002 C
HETATM    7  C7  UNL     1      17.739  62.500  10.418  1.00  0.00     0.019 C
HETATM    8  C8  UNL     1      19.180  62.479  10.892  1.00  0.00     0.036 C
HETATM    9  C12 UNL     1      19.661  63.888  11.155  1.00  0.00     0.205 C
HETATM   10  F1  UNL     1      19.422  64.321  12.461  1.00  0.00    -0.225 F
HETATM   11  C13 UNL     1      18.905  64.869  10.320  1.00  0.00     0.104 C
HETATM   12  N1  UNL     1      18.321  65.651   9.683  1.00  0.00    -0.194 NA
HETATM   13  C14 UNL     1      21.094  64.166  10.896  1.00  0.00     0.097 C
HETATM   14  C15 UNL     1      21.999  62.951  10.970  1.00  0.00     0.154 C
ENDROOT
BRANCH   8  15
HETATM   15  C9  UNL     1      19.158  61.754  12.234  1.00  0.00    -0.006 C
HETATM   16  C10 UNL     1      19.568  60.295  12.105  1.00  0.00     0.011 C
HETATM   17  C11 UNL     1      17.714  61.652  12.774  1.00  0.00     0.011 C
ENDBRANCH   8  15
BRANCH  14  18
HETATM   18  O1  UNL     1      23.232  63.388  10.427  1.00  0.00    -0.377 OA
BRANCH  18  19
HETATM   19  C16 UNL     1      23.103  64.688   9.988  1.00  0.00     0.208 C
BRANCH  19  20
HETATM   20  C17 UNL     1      23.758  64.769   8.643  1.00  0.00    -0.015 A
HETATM   21  C18 UNL     1      25.064  64.633   8.497  1.00  0.00     0.117 A
HETATM   22  N2  UNL     1      25.596  64.725   7.181  1.00  0.00    -0.305 N
HETATM   23  N3  UNL     1      24.796  64.951   6.058  1.00  0.00    -0.268 N
ATOM     24  H2  UNL     1      26.602  64.622   7.052  1.00  0.00     0.186 HD
HETATM   25  C19 UNL     1      25.339  65.042   4.741  1.00  0.00     0.116 A
HETATM   26  C23 UNL     1      23.395  65.090   6.274  1.00  0.00     0.056 A
HETATM   27  C20 UNL     1      24.549  65.256   3.699  1.00  0.00     0.019 A
HETATM   28  C21 UNL     1      23.109  65.403   3.880  1.00  0.00     0.004 A
HETATM   29  C22 UNL     1      22.571  65.325   5.090  1.00  0.00     0.031 A
HETATM   30  C24 UNL     1      22.879  65.006   7.500  1.00  0.00     0.042 A
ENDBRANCH  19  20
ENDBRANCH  18  19
ENDBRANCH  14  18
TORSDOF 4
ENDMDL