MODEL 3
REMARK VINA RESULT: -7.763269188      2.225      3.098
REMARK  4 active torsions:
REMARK  status: ('A' for Active; 'I' for Inactive)
REMARK    1  A    between atoms: C4_4  and  N1_5
REMARK    2  A    between atoms: C7_8  and  C8_9
REMARK    3  A    between atoms: C8_9  and  C9_10
REMARK    4  A    between atoms: C12_15  and  C13_16
ROOT
HETATM    1  N1  UNL     1      23.257  61.988  12.614  1.00  0.00     0.093 N
HETATM    2  C5  UNL     1      23.179  61.453  11.283  1.00  0.00     0.273 C
HETATM    3  C6  UNL     1      23.038  62.492  10.220  1.00  0.00     0.035 C
HETATM    4  C7  UNL     1      23.975  63.665  10.386  1.00  0.00    -0.006 C
HETATM    5  C14 UNL     1      24.203  64.015  11.830  1.00  0.00     0.035 C
HETATM    6  C15 UNL     1      23.076  63.419  12.650  1.00  0.00     0.273 C
ENDROOT
BRANCH   4   7
HETATM    7  C8  UNL     1      23.331  64.826   9.691  1.00  0.00     0.052 C
BRANCH   7   8
HETATM    8  C9  UNL     1      23.508  64.881   8.223  1.00  0.00     0.002 A
HETATM    9  S1  UNL     1      25.007  65.179   7.444  1.00  0.00    -0.081 SA
HETATM   10  C10 UNL     1      24.499  65.086   5.824  1.00  0.00     0.076 A
HETATM   11 CL1  UNL     1      25.444  65.277   4.333  1.00  0.00    -0.076 Cl
HETATM   12  C11 UNL     1      23.164  64.824   5.935  1.00  0.00     0.051 A
HETATM   13  C12 UNL     1      22.647  64.718   7.179  1.00  0.00     0.056 A
BRANCH  13  14
HETATM   14  C13 UNL     1      21.199  64.489   7.423  1.00  0.00     0.210 C
HETATM   15  O1  UNL     1      20.430  65.495   7.479  1.00  0.00    -0.644 OA
HETATM   16  O2  UNL     1      20.622  63.273   7.594  1.00  0.00    -0.644 OA
ENDBRANCH  13  14
ENDBRANCH   7   8
ENDBRANCH   4   7
BRANCH   1  17
HETATM   17  C4  UNL     1      22.423  61.299  13.562  1.00  0.00     0.224 C
HETATM   18  C3  UNL     1      22.949  61.372  14.970  1.00  0.00     0.040 C
HETATM   19  C2  UNL     1      22.148  60.374  15.789  1.00  0.00    -0.016 C
HETATM   20  C1  UNL     1      22.485  58.941  15.446  1.00  0.00     0.010 C
HETATM   21  C20 UNL     1      20.683  60.650  15.768  1.00  0.00     0.013 C
HETATM   22  C17 UNL     1      20.123  61.094  14.474  1.00  0.00    -0.045 C
HETATM   23  C16 UNL     1      21.032  61.840  13.560  1.00  0.00     0.044 C
HETATM   24  C18 UNL     1      18.966  62.054  14.814  1.00  0.00     0.015 C
HETATM   25  C19 UNL     1      19.460  59.943  13.722  1.00  0.00     0.015 C
ENDBRANCH   1  17
TORSDOF 4
ENDMDL