MODEL 1
REMARK VINA RESULT: -7.067507313      0.000      0.000
REMARK  3 active torsions:
REMARK  status: ('A' for Active; 'I' for Inactive)
REMARK    1  A    between atoms: C2_2  and  N1_3
REMARK    2  A    between atoms: C4_7  and  N3_8
REMARK       I    between atoms: N3_8  and  C5_10
REMARK       I    between atoms: C5_10  and  N4_12
REMARK    3  A    between atoms: C10_17  and  C11_18
ROOT
HETATM    1  N3  UNL     1      21.016  60.425  12.496  1.00  0.00    -0.305 N
ATOM      2  H3  UNL     1      21.400  59.663  11.935  1.00  0.00     0.171 HD
HETATM    3  C5  UNL     1      20.500  61.530  11.817  1.00  0.00     0.323 C
HETATM    4  O1  UNL     1      20.008  62.502  12.518  1.00  0.00    -0.247 OA
HETATM    5  N4  UNL     1      20.462  61.727  10.433  1.00  0.00    -0.325 N
HETATM    6  C6  UNL     1      20.939  60.708   9.522  1.00  0.00     0.128 C
HETATM    7  C7  UNL     1      21.886  61.472   8.576  1.00  0.00     0.020 C
HETATM    8  C8  UNL     1      22.379  62.763   9.224  1.00  0.00     0.004 C
HETATM    9  C9  UNL     1      21.242  63.757   9.441  1.00  0.00     0.030 C
HETATM   10  C10 UNL     1      20.033  62.948   9.773  1.00  0.00     0.122 C
ENDROOT
BRANCH   1  11
HETATM   11  C4  UNL     1      21.044  60.283  13.886  1.00  0.00     0.082 A
HETATM   12  C3  UNL     1      20.118  59.867  14.795  1.00  0.00     0.139 A
HETATM   13  N2  UNL     1      20.615  60.027  16.003  1.00  0.00    -0.307 N
HETATM   14  N1  UNL     1      21.823  60.530  15.912  1.00  0.00    -0.290 N
ATOM     15  H2  UNL     1      20.135  59.796  16.873  1.00  0.00     0.186 HD
HETATM   16  C17 UNL     1      22.172  60.720  14.619  1.00  0.00     0.081 A
HETATM   17  C18 UNL     1      23.459  61.131  14.142  1.00  0.00    -0.049 C
HETATM   18  C19 UNL     1      23.689  62.594  13.866  1.00  0.00     0.036 C
HETATM   19  C22 UNL     1      24.297  60.364  13.224  1.00  0.00     0.036 C
HETATM   20  C20 UNL     1      25.095  62.627  13.310  1.00  0.00     0.005 C
HETATM   21  C21 UNL     1      25.628  61.196  13.317  1.00  0.00     0.005 C
BRANCH  14  22
HETATM   22  C2  UNL     1      22.614  60.770  17.128  1.00  0.00     0.145 C
HETATM   23  C1  UNL     1      21.960  61.811  18.003  1.00  0.00     0.028 C
ENDBRANCH  14  22
ENDBRANCH   1  11
BRANCH  10  24
HETATM   24  C11 UNL     1      18.951  63.651  10.416  1.00  0.00    -0.035 A
HETATM   25  C12 UNL     1      19.121  64.869  11.018  1.00  0.00     0.012 A
HETATM   26  C13 UNL     1      18.073  65.561  11.619  1.00  0.00     0.043 A
HETATM   27  C14 UNL     1      16.792  65.016  11.623  1.00  0.00     0.116 A
HETATM   28  F1  UNL     1      15.765  65.707  12.218  1.00  0.00    -0.206 F
HETATM   29  C15 UNL     1      16.609  63.792  11.020  1.00  0.00     0.043 A
HETATM   30  C16 UNL     1      17.666  63.127  10.431  1.00  0.00     0.012 A
ENDBRANCH  10  24
TORSDOF 3
ENDMDL