MODEL 3
REMARK VINA RESULT: -6.861137896      2.488      4.630
REMARK  5 active torsions:
REMARK  status: ('A' for Active; 'I' for Inactive)
REMARK    1  A    between atoms: C9_10  and  N1_11
REMARK    2  A    between atoms: N1_11  and  O1_13
REMARK    3  A    between atoms: O1_13  and  C10_14
REMARK    4  A    between atoms: C10_14  and  C11_15
REMARK    5  A    between atoms: C11_15  and  N2_16
ROOT
HETATM    1  N1  UNL     1      22.577  62.841  13.374  1.00  0.00    -0.270 N
ATOM      2  H1  UNL     1      22.802  62.406  14.268  1.00  0.00     0.194 HD
ENDROOT
BRANCH   1   3
HETATM    3  C9  UNL     1      21.570  62.413  12.728  1.00  0.00     0.046 C
HETATM    4  C8  UNL     1      20.589  63.208  12.089  1.00  0.00     0.002 C
HETATM    5  C7  UNL     1      20.348  64.584  11.838  1.00  0.00     0.029 C
HETATM    6  C6  UNL     1      19.277  64.734  10.750  1.00  0.00     0.004 C
HETATM    7  C5  UNL     1      18.842  63.481  10.134  1.00  0.00     0.000 C
HETATM    8  C4  UNL     1      17.513  63.218   9.564  1.00  0.00     0.000 C
HETATM    9  C3  UNL     1      17.026  61.796   9.924  1.00  0.00     0.003 C
HETATM   10  C2  UNL     1      17.863  60.669   9.619  1.00  0.00     0.042 C
HETATM   11  C1  UNL     1      19.107  60.246  10.209  1.00  0.00     0.208 C
HETATM   12  F1  UNL     1      19.439  59.081   9.443  1.00  0.00    -0.244 F
HETATM   13  C22 UNL     1      19.285  59.808  11.603  1.00  0.00     0.092 C
HETATM   14  N3  UNL     1      19.913  60.612  12.557  1.00  0.00    -0.394 N
HETATM   15  C21 UNL     1      21.299  60.904  12.566  1.00  0.00     0.177 C
ATOM     16  H3  UNL     1      19.336  61.016  13.295  1.00  0.00     0.159 HD
ENDBRANCH   1   3
BRANCH   1  17
HETATM   17  O1  UNL     1      23.365  63.847  12.927  1.00  0.00    -0.279 OA
BRANCH  17  18
HETATM   18  C10 UNL     1      24.235  63.743  11.817  1.00  0.00     0.231 C
BRANCH  18  19
HETATM   19  C11 UNL     1      23.893  64.741  10.749  1.00  0.00     0.301 C
BRANCH  19  20
HETATM   20  N2  UNL     1      23.714  64.127   9.468  1.00  0.00     0.090 N
HETATM   21  C12 UNL     1      23.368  62.743   9.491  1.00  0.00     0.272 C
HETATM   22  C13 UNL     1      21.961  62.448   9.021  1.00  0.00     0.030 C
HETATM   23  C14 UNL     1      21.896  62.246   7.533  1.00  0.00     0.002 C
HETATM   24  C15 UNL     1      20.736  62.957   6.888  1.00  0.00     0.000 C
HETATM   25  C16 UNL     1      20.763  64.445   7.091  1.00  0.00     0.000 C
HETATM   26  C17 UNL     1      21.953  65.108   6.470  1.00  0.00     0.000 C
HETATM   27  C18 UNL     1      22.870  65.735   7.499  1.00  0.00     0.002 C
HETATM   28  C19 UNL     1      24.285  65.233   7.353  1.00  0.00     0.030 C
HETATM   29  C20 UNL     1      24.773  64.499   8.590  1.00  0.00     0.272 C
ENDBRANCH  19  20
ENDBRANCH  18  19
ENDBRANCH  17  18
ENDBRANCH   1  17
TORSDOF 5
ENDMDL