MODEL 3
REMARK VINA RESULT: -7.635724457      6.227      9.931
REMARK  2 active torsions:
REMARK  status: ('A' for Active; 'I' for Inactive)
REMARK       I    between atoms: C1_2  and  N1_3
REMARK       I    between atoms: C1_2  and  N2_11
REMARK    1  A    between atoms: N1_3  and  C2_5
REMARK       I    between atoms: N3_18  and  C14_19
REMARK       I    between atoms: C14_19  and  N4_21
REMARK    2  A    between atoms: N4_21  and  C15_23
ROOT
HETATM    1  O1  UNL     1       3.404 -11.562 -23.743  1.00  0.00    -0.247 OA
HETATM    2  C1  UNL     1       4.508 -11.000 -23.883  1.00  0.00     0.318 C
HETATM    3  N1  UNL     1       5.626 -11.752 -24.285  1.00  0.00    -0.338 N
ATOM      4  H1  UNL     1       6.529 -11.293 -24.400  1.00  0.00     0.164 HD
HETATM    5  N2  UNL     1       4.633  -9.616 -23.638  1.00  0.00    -0.334 N
HETATM    6  C8  UNL     1       3.460  -8.892 -23.218  1.00  0.00     0.128 C
HETATM    7  C9  UNL     1       3.542  -7.452 -23.606  1.00  0.00     0.033 C
HETATM    8  C10 UNL     1       4.826  -6.920 -23.007  1.00  0.00    -0.005 C
HETATM    9  C11 UNL     1       5.949  -7.510 -23.782  1.00  0.00     0.033 C
HETATM   10  C12 UNL     1       5.910  -8.989 -23.814  1.00  0.00     0.128 C
HETATM   11  C13 UNL     1       4.932  -6.977 -21.514  1.00  0.00     0.139 C
HETATM   12  N3  UNL     1       4.326  -5.639 -21.474  1.00  0.00    -0.333 N
HETATM   13  C14 UNL     1       3.566  -4.944 -20.507  1.00  0.00     0.318 C
HETATM   14  O2  UNL     1       3.278  -5.459 -19.413  1.00  0.00    -0.247 OA
HETATM   15  N4  UNL     1       3.120  -3.625 -20.787  1.00  0.00    -0.334 N
ATOM     16  H4  UNL     1       3.355  -3.199 -21.683  1.00  0.00     0.164 HD
HETATM   17  C18 UNL     1       4.861  -5.433 -22.805  1.00  0.00     0.139 C
ENDROOT
BRANCH  15  18
HETATM   18  C15 UNL     1       2.344  -2.878 -19.835  1.00  0.00     0.133 C
HETATM   19  C16 UNL     1       2.106  -1.459 -20.262  1.00  0.00     0.195 C
HETATM   20  O3  UNL     1       3.385  -1.148 -19.777  1.00  0.00    -0.387 OA
HETATM   21  C17 UNL     1       3.208  -2.133 -18.819  1.00  0.00     0.195 C
ENDBRANCH  15  18
BRANCH   3  22
HETATM   22  C2  UNL     1       5.506 -13.153 -24.535  1.00  0.00     0.086 C
HETATM   23  C3  UNL     1       4.949 -13.409 -25.940  1.00  0.00     0.025 C
HETATM   24  C4  UNL     1       4.469 -14.852 -25.943  1.00  0.00     0.002 C
HETATM   25  C5  UNL     1       5.401 -15.760 -25.180  1.00  0.00     0.000 C
HETATM   26  C6  UNL     1       6.793 -15.200 -25.069  1.00  0.00     0.002 C
HETATM   27  C7  UNL     1       6.852 -13.839 -24.472  1.00  0.00     0.025 C
ENDBRANCH   3  22
TORSDOF 2
ENDMDL