MODEL 3
REMARK VINA RESULT: -7.775715093      3.122      8.961
REMARK  3 active torsions:
REMARK  status: ('A' for Active; 'I' for Inactive)
REMARK       I    between atoms: C1_2  and  N1_3
REMARK       I    between atoms: C1_2  and  N3_20
REMARK    1  A    between atoms: N1_3  and  C2_5
REMARK       I    between atoms: N2_12  and  C9_13
REMARK    2  A    between atoms: C9_13  and  C10_15
REMARK    3  A    between atoms: C18_24  and  O3_25
ROOT
HETATM    1  C2  UNL     1       7.207 -10.070 -22.968  1.00  0.00     0.092 C
HETATM    2  C3  UNL     1       8.010  -8.795 -22.955  1.00  0.00     0.028 C
HETATM    3  C4  UNL     1       7.281  -7.824 -23.857  1.00  0.00     0.028 C
HETATM    4  C5  UNL     1       5.953  -8.411 -24.185  1.00  0.00     0.093 C
HETATM    5  C6  UNL     1       5.817  -9.680 -23.411  1.00  0.00     0.033 C
HETATM    6  C7  UNL     1       4.961  -9.214 -22.226  1.00  0.00     0.028 C
HETATM    7  C8  UNL     1       3.946  -8.370 -23.017  1.00  0.00     0.127 C
HETATM    8  N2  UNL     1       4.828  -7.553 -23.795  1.00  0.00    -0.347 N
HETATM    9  C9  UNL     1       4.683  -6.216 -24.150  1.00  0.00     0.224 C
HETATM   10  O2  UNL     1       5.601  -5.703 -24.894  1.00  0.00    -0.273 OA
ENDROOT
BRANCH   1  11
HETATM   11  N1  UNL     1       7.721 -11.031 -23.923  1.00  0.00    -0.338 N
HETATM   12  C1  UNL     1       7.175 -12.311 -24.125  1.00  0.00     0.318 C
HETATM   13  O1  UNL     1       6.183 -12.654 -23.443  1.00  0.00    -0.247 OA
HETATM   14  N3  UNL     1       7.705 -13.214 -25.065  1.00  0.00    -0.332 N
HETATM   15  C15 UNL     1       7.113 -14.540 -25.241  1.00  0.00     0.127 C
HETATM   16  C19 UNL     1       8.843 -12.915 -25.911  1.00  0.00     0.159 C
HETATM   17  C16 UNL     1       6.584 -14.731 -26.628  1.00  0.00     0.022 C
HETATM   18  C17 UNL     1       7.201 -13.677 -27.522  1.00  0.00     0.035 C
HETATM   19  C18 UNL     1       8.710 -13.636 -27.254  1.00  0.00     0.136 C
ATOM     20  H1  UNL     1       8.529 -10.762 -24.483  1.00  0.00     0.164 HD
BRANCH  19  21
HETATM   21  O3  UNL     1       9.264 -12.864 -28.250  1.00  0.00    -0.394 OA
ATOM     22  H3  UNL     1       9.958 -13.383 -28.639  1.00  0.00     0.210 HD
ENDBRANCH  19  21
ENDBRANCH   1  11
BRANCH   9  23
HETATM   23  C10 UNL     1       3.600  -5.310 -23.773  1.00  0.00     0.078 C
HETATM   24  C11 UNL     1       3.585  -4.863 -22.351  1.00  0.00     0.014 C
HETATM   25  C12 UNL     1       3.208  -3.375 -22.368  1.00  0.00     0.001 C
HETATM   26  C13 UNL     1       2.584  -3.183 -23.755  1.00  0.00     0.001 C
HETATM   27  C14 UNL     1       3.557  -4.037 -24.576  1.00  0.00     0.014 C
ENDBRANCH   9  23
TORSDOF 3
ENDMDL