MODEL 1
REMARK VINA RESULT: -7.967954571      0.000      0.000
REMARK  7 active torsions:
REMARK  status: ('A' for Active; 'I' for Inactive)
REMARK    1  A    between atoms: C1_2  and  C2_4
REMARK    2  A    between atoms: N1_8  and  C6_9
REMARK    3  A    between atoms: C6_9  and  O3_10
REMARK    4  A    between atoms: C6_9  and  N2_12
REMARK    5  A    between atoms: N3_15  and  C9_16
REMARK    6  A    between atoms: C9_16  and  N4_18
REMARK    7  A    between atoms: N4_18  and  C10_20
ROOT
HETATM    1  N2  UNL     1       6.131 -11.453 -24.314  1.00  0.00    -0.344 N
HETATM    2  C7  UNL     1       6.190 -10.040 -24.411  1.00  0.00     0.146 C
HETATM    3  C8  UNL     1       4.860  -9.406 -24.069  1.00  0.00     0.145 C
HETATM    4  N3  UNL     1       3.702 -10.068 -24.576  1.00  0.00    -0.355 N
HETATM    5  C15 UNL     1       3.866 -11.447 -25.038  1.00  0.00     0.145 C
HETATM    6  C16 UNL     1       4.826 -12.089 -24.042  1.00  0.00     0.146 C
ENDROOT
BRANCH   1   7
HETATM    7  C6  UNL     1       7.244 -12.295 -24.480  1.00  0.00     0.218 C
BRANCH   7   8
HETATM    8  N1  UNL     1       7.276 -13.561 -25.063  1.00  0.00    -0.333 N
HETATM    9  C2  UNL     1       7.735 -13.759 -26.471  1.00  0.00     0.188 C
HETATM   10  C3  UNL     1       6.784 -14.782 -26.981  1.00  0.00     0.038 C
HETATM   11  C4  UNL     1       5.992 -15.294 -25.781  1.00  0.00     0.022 C
HETATM   12  C5  UNL     1       6.971 -14.888 -24.646  1.00  0.00     0.127 C
BRANCH   9  13
HETATM   13  C1  UNL     1       9.147 -14.156 -26.426  1.00  0.00     0.197 C
HETATM   14  O1  UNL     1      10.040 -13.340 -26.087  1.00  0.00    -0.646 OA
HETATM   15  O2  UNL     1       9.493 -15.466 -26.768  1.00  0.00    -0.646 OA
ENDBRANCH   9  13
ENDBRANCH   7   8
BRANCH   7  16
HETATM   16  O3  UNL     1       8.386 -11.836 -24.034  1.00  0.00    -0.332 OA
ATOM     17  H3  UNL     1       8.433 -10.898 -23.890  1.00  0.00     0.220 HD
ENDBRANCH   7  16
ENDBRANCH   1   7
BRANCH   4  18
HETATM   18  C9  UNL     1       2.451  -9.418 -24.603  1.00  0.00     0.170 C
HETATM   19  S1  UNL     1       2.325  -8.005 -23.809  1.00  0.00    -0.041 SA
BRANCH  18  20
HETATM   20  N4  UNL     1       1.354  -9.953 -25.278  1.00  0.00    -0.362 N
ATOM     21  H4  UNL     1       1.430  -9.952 -26.295  1.00  0.00     0.162 HD
BRANCH  20  22
HETATM   22  C10 UNL     1       0.149 -10.499 -24.767  1.00  0.00     0.083 C
HETATM   23  C11 UNL     1      -1.004 -10.584 -25.743  1.00  0.00     0.025 C
HETATM   24  C12 UNL     1      -2.067 -11.142 -24.774  1.00  0.00     0.002 C
HETATM   25  C13 UNL     1      -1.286 -12.117 -23.892  1.00  0.00     0.002 C
HETATM   26  C14 UNL     1       0.195 -11.902 -24.250  1.00  0.00     0.025 C
ENDBRANCH  20  22
ENDBRANCH  18  20
ENDBRANCH   4  18
TORSDOF 7
ENDMDL