MODEL 2
REMARK VINA RESULT: -8.795979795      2.794      7.820
REMARK  2 active torsions:
REMARK  status: ('A' for Active; 'I' for Inactive)
REMARK       I    between atoms: C1_4  and  N2_5
REMARK       I    between atoms: C1_4  and  N3_11
REMARK       I    between atoms: N4_14  and  C8_15
REMARK    1  A    between atoms: C8_15  and  C9_17
REMARK    2  A    between atoms: C9_17  and  C10_18
ROOT
HETATM    1  N1  UNL     1       9.495 -11.522 -24.357  1.00  0.00    -0.235 N
ATOM      2  H11 UNL     1       9.886 -10.810 -23.740  1.00  0.00     0.174 HD
ATOM      3  H12 UNL     1      10.131 -12.115 -24.890  1.00  0.00     0.174 HD
HETATM    4  C1  UNL     1       8.196 -11.682 -24.469  1.00  0.00     0.673 C
HETATM    5  N2  UNL     1       7.655 -12.670 -25.323  1.00  0.00    -0.214 N
HETATM    6  C2  UNL     1       6.245 -12.944 -25.306  1.00  0.00     0.167 C
HETATM    7  C3  UNL     1       6.090 -14.446 -25.114  1.00  0.00     0.188 C
HETATM    8  O1  UNL     1       6.832 -15.152 -26.043  1.00  0.00    -0.388 OA
HETATM    9  C4  UNL     1       8.186 -14.896 -25.998  1.00  0.00     0.188 C
HETATM   10  C5  UNL     1       8.497 -13.415 -26.220  1.00  0.00     0.167 C
HETATM   11  N3  UNL     1       7.317 -10.862 -23.732  1.00  0.00    -0.200 N
HETATM   12  C6  UNL     1       6.948 -11.043 -22.353  1.00  0.00     0.163 C
HETATM   13  C7  UNL     1       6.791  -9.608 -21.887  1.00  0.00     0.148 C
HETATM   14  N4  UNL     1       6.140  -9.004 -23.027  1.00  0.00    -0.334 N
HETATM   15  C8  UNL     1       5.197  -7.932 -23.055  1.00  0.00     0.221 C
HETATM   16  O2  UNL     1       4.833  -7.387 -21.963  1.00  0.00    -0.273 OA
HETATM   17  C19 UNL     1       6.618  -9.693 -24.205  1.00  0.00     0.270 C
ENDROOT
BRANCH  15  18
HETATM   18  C9  UNL     1       4.628  -7.437 -24.326  1.00  0.00     0.108 C
BRANCH  18  19
HETATM   19  C10 UNL     1       3.184  -7.734 -24.410  1.00  0.00     0.000 C
HETATM   20  C11 UNL     1       2.263  -6.550 -24.127  1.00  0.00     0.032 C
HETATM   21  C12 UNL     1       0.975  -7.175 -23.741  1.00  0.00    -0.028 C
HETATM   22  C13 UNL     1       0.518  -8.145 -24.501  1.00  0.00     0.007 C
HETATM   23  C14 UNL     1       1.259  -8.602 -25.705  1.00  0.00     0.143 C
HETATM   24  C15 UNL     1       0.668  -7.920 -26.949  1.00  0.00     0.045 C
HETATM   25  N5  UNL     1       0.955 -10.025 -25.868  1.00  0.00    -0.063 N
HETATM   26  C18 UNL     1       2.720  -8.336 -25.694  1.00  0.00     0.048 C
HETATM   27  C16 UNL     1      -0.077  -9.023 -27.668  1.00  0.00     0.030 C
HETATM   28  C17 UNL     1      -0.338  -9.979 -26.516  1.00  0.00     0.233 C
ATOM     29  H52 UNL     1       1.666 -10.567 -26.359  1.00  0.00     0.278 HD
ATOM     30  H51 UNL     1       0.990 -10.578 -25.011  1.00  0.00     0.278 HD
ENDBRANCH  18  19
ENDBRANCH  15  18
TORSDOF 2
ENDMDL