MODEL 4
REMARK VINA RESULT: -6.372747832      3.582      5.017
REMARK  7 active torsions:
REMARK  status: ('A' for Active; 'I' for Inactive)
REMARK    1  A    between atoms: C2_2  and  C5_5
REMARK    2  A    between atoms: C6_6  and  C7_7
REMARK    3  A    between atoms: C8_8  and  C9_9
REMARK       I    between atoms: C9_9  and  N1_11
REMARK    4  A    between atoms: N1_11  and  C10_13
REMARK    5  A    between atoms: C10_13  and  O2_14
REMARK    6  A    between atoms: C10_13  and  C15_19
REMARK    7  A    between atoms: O2_14  and  C11_15
ROOT
HETATM    1  C10 UNL     1       4.040  -8.986 -24.027  1.00  0.00     0.248 C
ENDROOT
BRANCH   1   2
HETATM    2  N1  UNL     1       5.197  -9.727 -24.509  1.00  0.00    -0.322 N
HETATM    3  C9  UNL     1       5.430 -11.100 -24.237  1.00  0.00     0.299 C
HETATM    4  O1  UNL     1       4.617 -11.777 -23.536  1.00  0.00    -0.258 OA
ATOM      5  H1  UNL     1       5.881  -9.228 -25.078  1.00  0.00     0.166 HD
BRANCH   3   6
HETATM    6  C8  UNL     1       6.583 -11.801 -24.728  1.00  0.00     0.009 C
HETATM    7  C7  UNL     1       7.548 -12.386 -25.154  1.00  0.00    -0.005 C
BRANCH   7   8
HETATM    8  C6  UNL     1       8.667 -13.078 -25.674  1.00  0.00    -0.014 C
HETATM    9  C5  UNL     1       9.613 -13.687 -26.112  1.00  0.00    -0.084 C
BRANCH   9  10
HETATM   10  C2  UNL     1      10.760 -14.451 -26.638  1.00  0.00     0.013 C
HETATM   11  C1  UNL     1      12.000 -14.212 -25.793  1.00  0.00     0.028 C
HETATM   12  C3  UNL     1      10.410 -15.907 -26.545  1.00  0.00     0.028 C
HETATM   13  C4  UNL     1      11.065 -14.016 -28.052  1.00  0.00     0.028 C
ENDBRANCH   9  10
ENDBRANCH   7   8
ENDBRANCH   3   6
ENDBRANCH   1   2
BRANCH   1  14
HETATM   14  O2  UNL     1       3.179  -8.600 -24.960  1.00  0.00    -0.355 OA
BRANCH  14  15
HETATM   15  C11 UNL     1       1.972  -9.093 -25.154  1.00  0.00     0.052 C
HETATM   16  C12 UNL     1       0.789  -8.311 -24.670  1.00  0.00     0.045 C
HETATM   17  C13 UNL     1       1.784  -9.181 -26.685  1.00  0.00     0.045 C
HETATM   18  C14 UNL     1       1.777 -10.528 -24.682  1.00  0.00     0.045 C
ENDBRANCH  14  15
ENDBRANCH   1  14
BRANCH   1  19
HETATM   19  C15 UNL     1       4.568  -7.909 -23.107  1.00  0.00     0.137 C
HETATM   20  C16 UNL     1       3.439  -6.936 -22.849  1.00  0.00     0.137 C
HETATM   21  S1  UNL     1       3.992  -5.586 -21.817  1.00  0.00     0.018 S
HETATM   22  O3  UNL     1       4.125  -6.095 -20.211  1.00  0.00    -0.258 OA
HETATM   23  C17 UNL     1       5.582  -5.062 -22.441  1.00  0.00     0.128 C
HETATM   24  C18 UNL     1       5.760  -5.869 -23.740  1.00  0.00     0.127 C
HETATM   25  N2  UNL     1       5.728  -7.261 -23.555  1.00  0.00    -0.411 N
ATOM     26  H2  UNL     1       6.565  -7.811 -23.749  1.00  0.00     0.153 HD
ENDBRANCH   1  19
TORSDOF 7
ENDMDL