MODEL 3
REMARK VINA RESULT: -8.609176535      1.955      2.832
REMARK  2 active torsions:
REMARK  status: ('A' for Active; 'I' for Inactive)
REMARK       I    between atoms: N2_12  and  C8_13
REMARK    1  A    between atoms: C8_13  and  C9_15
REMARK       I    between atoms: N3_19  and  C13_20
REMARK       I    between atoms: C13_20  and  N4_22
REMARK    2  A    between atoms: N4_22  and  C14_24
ROOT
HETATM    1  C9  UNL     1       4.076  -8.695 -23.152  1.00  0.00     0.181 C
HETATM    2  C10 UNL     1       4.610  -7.955 -21.911  1.00  0.00     0.037 C
HETATM    3  C11 UNL     1       5.315  -6.797 -22.578  1.00  0.00     0.022 C
HETATM    4  C12 UNL     1       4.564  -6.509 -23.834  1.00  0.00     0.129 C
HETATM    5  N3  UNL     1       3.620  -7.582 -23.950  1.00  0.00    -0.321 N
HETATM    6  C13 UNL     1       2.441  -7.554 -24.720  1.00  0.00     0.319 C
HETATM    7  O3  UNL     1       2.122  -6.513 -25.389  1.00  0.00    -0.247 OA
HETATM    8  N4  UNL     1       1.581  -8.674 -24.775  1.00  0.00    -0.338 N
ATOM      9  H4  UNL     1       1.824  -9.512 -24.248  1.00  0.00     0.164 HD
ENDROOT
BRANCH   1  10
HETATM   10  C8  UNL     1       5.246  -9.369 -23.787  1.00  0.00     0.244 C
HETATM   11  N2  UNL     1       5.399 -10.745 -24.033  1.00  0.00    -0.321 N
HETATM   12  C3  UNL     1       4.464 -11.797 -23.762  1.00  0.00     0.300 C
HETATM   13  C7  UNL     1       6.667 -11.155 -24.624  1.00  0.00     0.128 C
HETATM   14  N1  UNL     1       3.093 -11.523 -23.905  1.00  0.00    -0.047 N
HETATM   15  C4  UNL     1       4.715 -12.840 -24.870  1.00  0.00     0.107 C
HETATM   16  C2  UNL     1       2.454 -12.766 -24.275  1.00  0.00     0.313 C
ATOM     17  H12 UNL     1       2.901 -10.763 -24.557  1.00  0.00     0.280 HD
ATOM     18  H11 UNL     1       2.682 -11.091 -23.078  1.00  0.00     0.280 HD
HETATM   19  C1  UNL     1       3.528 -13.685 -24.730  1.00  0.00     0.160 C
HETATM   20  O1  UNL     1       3.337 -14.871 -24.913  1.00  0.00    -0.296 OA
HETATM   21  C5  UNL     1       5.983 -13.549 -24.419  1.00  0.00     0.018 C
HETATM   22  C6  UNL     1       7.095 -12.542 -24.253  1.00  0.00     0.021 C
HETATM   23  O2  UNL     1       6.239  -8.618 -24.158  1.00  0.00    -0.271 OA
ENDBRANCH   1  10
BRANCH   8  24
HETATM   24  C14 UNL     1       0.367  -8.665 -25.558  1.00  0.00     0.086 C
HETATM   25  C15 UNL     1       0.747  -8.927 -26.999  1.00  0.00     0.025 C
HETATM   26  C16 UNL     1      -0.506  -9.220 -27.787  1.00  0.00     0.002 C
HETATM   27  C17 UNL     1      -1.067 -10.542 -27.344  1.00  0.00     0.000 C
HETATM   28  C18 UNL     1      -0.671 -10.908 -25.939  1.00  0.00     0.002 C
HETATM   29  C19 UNL     1      -0.639  -9.678 -25.062  1.00  0.00     0.025 C
ENDBRANCH   8  24
TORSDOF 2
ENDMDL