MODEL 5
REMARK VINA RESULT: -7.671645495      1.924      3.919
REMARK  4 active torsions:
REMARK  status: ('A' for Active; 'I' for Inactive)
REMARK    1  A    between atoms: C6_6  and  C7_7
REMARK    2  A    between atoms: N1_10  and  C8_11
REMARK    3  A    between atoms: C8_11  and  O3_12
REMARK    4  A    between atoms: C8_11  and  C9_14
REMARK       I    between atoms: N2_19  and  C14_20
REMARK       I    between atoms: C14_20  and  N3_22
ROOT
HETATM    1  C9  UNL     1       5.502  -9.834 -22.068  1.00  0.00     0.163 C
HETATM    2  C10 UNL     1       6.788 -10.001 -21.216  1.00  0.00     0.034 C
HETATM    3  C11 UNL     1       7.969  -9.569 -22.010  1.00  0.00     0.004 C
HETATM    4  C12 UNL     1       7.895  -9.992 -23.434  1.00  0.00     0.020 C
HETATM    5  C13 UNL     1       6.863 -11.071 -23.715  1.00  0.00     0.128 C
HETATM    6  N2  UNL     1       5.590 -10.802 -23.086  1.00  0.00    -0.322 N
HETATM    7  C14 UNL     1       4.469 -11.548 -23.484  1.00  0.00     0.321 C
HETATM    8  O4  UNL     1       3.381 -11.244 -22.846  1.00  0.00    -0.247 OA
HETATM    9  N3  UNL     1       4.322 -12.552 -24.436  1.00  0.00    -0.334 N
HETATM   10  C15 UNL     1       5.300 -13.136 -25.314  1.00  0.00     0.127 C
HETATM   11  C16 UNL     1       4.660 -14.390 -25.925  1.00  0.00     0.022 C
HETATM   12  C17 UNL     1       3.544 -14.671 -24.953  1.00  0.00     0.022 C
HETATM   13  C18 UNL     1       3.043 -13.240 -24.716  1.00  0.00     0.127 C
ENDROOT
BRANCH   1  14
HETATM   14  C8  UNL     1       5.277  -8.435 -22.283  1.00  0.00     0.138 C
BRANCH  14  15
HETATM   15  N1  UNL     1       5.271  -7.548 -23.334  1.00  0.00    -0.345 N
HETATM   16  C2  UNL     1       6.421  -6.733 -23.705  1.00  0.00     0.083 C
HETATM   17  C1  UNL     1       7.125  -7.342 -24.902  1.00  0.00     0.032 C
HETATM   18  C3  UNL     1       5.890  -5.369 -24.214  1.00  0.00     0.025 C
HETATM   19  C4  UNL     1       4.599  -4.976 -23.563  1.00  0.00     0.004 C
HETATM   20  C5  UNL     1       3.470  -5.975 -23.785  1.00  0.00     0.036 C
HETATM   21  C6  UNL     1       4.138  -7.285 -24.185  1.00  0.00     0.187 C
BRANCH  21  22
HETATM   22  C7  UNL     1       3.180  -8.286 -24.506  1.00  0.00     0.196 C
HETATM   23  O1  UNL     1       2.121  -8.379 -23.763  1.00  0.00    -0.646 OA
HETATM   24  O2  UNL     1       3.179  -9.229 -25.535  1.00  0.00    -0.646 OA
ENDBRANCH  21  22
ENDBRANCH  14  15
BRANCH  14  25
HETATM   25  O3  UNL     1       4.988  -7.844 -21.126  1.00  0.00    -0.348 OA
ATOM     26  H3  UNL     1       4.398  -8.366 -20.595  1.00  0.00     0.219 HD
ENDBRANCH  14  25
ENDBRANCH   1  14
TORSDOF 4
ENDMDL