MODEL 4
REMARK VINA RESULT: -7.472303454      2.669      4.350
REMARK  3 active torsions:
REMARK  status: ('A' for Active; 'I' for Inactive)
REMARK    1  A    between atoms: C9_11  and  C10_12
REMARK    2  A    between atoms: C10_12  and  O1_13
REMARK       I    between atoms: N3_16  and  C12_17
REMARK       I    between atoms: C12_17  and  N4_19
REMARK    3  A    between atoms: N4_19  and  C13_21
ROOT
HETATM    1  C1  UNL     1       4.311  -5.801 -25.195  1.00  0.00     0.273 C
HETATM    2  N1  UNL     1       4.773  -6.112 -23.833  1.00  0.00    -0.065 N
HETATM    3  C2  UNL     1       4.664  -4.909 -23.032  1.00  0.00     0.239 A
HETATM    4  C3  UNL     1       6.176  -4.808 -23.045  1.00  0.00     0.061 A
HETATM    5  C4  UNL     1       6.182  -6.141 -23.779  1.00  0.00     0.192 A
HETATM    6  C5  UNL     1       6.829  -7.177 -22.941  1.00  0.00     0.035 C
HETATM    7  C6  UNL     1       6.759  -8.575 -23.546  1.00  0.00     0.029 C
HETATM    8  C7  UNL     1       5.489  -9.181 -23.048  1.00  0.00     0.078 C
HETATM    9  C8  UNL     1       5.302  -9.047 -21.610  1.00  0.00     0.072 C
HETATM   10  N2  UNL     1       5.161  -8.951 -20.460  1.00  0.00    -0.196 NA
HETATM   11  C9  UNL     1       5.324 -10.648 -23.365  1.00  0.00     0.052 C
HETATM   12  C11 UNL     1       3.798 -10.764 -23.216  1.00  0.00     0.136 C
HETATM   13  N3  UNL     1       3.326  -9.504 -23.829  1.00  0.00    -0.326 N
HETATM   14  C12 UNL     1       2.003  -9.382 -24.316  1.00  0.00     0.319 C
HETATM   15  O2  UNL     1       1.673  -8.286 -24.833  1.00  0.00    -0.247 OA
HETATM   16  N4  UNL     1       1.066 -10.460 -24.229  1.00  0.00    -0.338 N
ATOM     17  H4  UNL     1       1.344 -11.347 -23.808  1.00  0.00     0.164 HD
HETATM   18  C18 UNL     1       4.356  -8.529 -23.845  1.00  0.00     0.138 C
HETATM   19  C19 UNL     1       4.084  -7.220 -23.209  1.00  0.00     0.264 C
ENDROOT
BRANCH  11  20
HETATM   20  C10 UNL     1       5.753 -11.008 -24.750  1.00  0.00     0.172 C
BRANCH  20  21
HETATM   21  O1  UNL     1       5.134 -12.212 -25.087  1.00  0.00    -0.400 OA
ATOM     22  H1  UNL     1       4.398 -12.011 -25.653  1.00  0.00     0.209 HD
ENDBRANCH  20  21
ENDBRANCH  11  20
BRANCH  16  23
HETATM   23  C13 UNL     1      -0.260 -10.293 -24.732  1.00  0.00     0.086 C
HETATM   24  C14 UNL     1      -1.210 -11.373 -24.269  1.00  0.00     0.025 C
HETATM   25  C15 UNL     1      -2.366 -11.208 -25.244  1.00  0.00     0.002 C
HETATM   26  C16 UNL     1      -1.727 -10.792 -26.554  1.00  0.00     0.002 C
HETATM   27  C17 UNL     1      -0.271 -10.516 -26.240  1.00  0.00     0.025 C
ENDBRANCH  16  23
TORSDOF 3
ENDMDL