MODEL 3
REMARK VINA RESULT: -8.631767567      3.604      5.363
REMARK  7 active torsions:
REMARK  status: ('A' for Active; 'I' for Inactive)
REMARK    1  A    between atoms: N1_1  and  S1_4
REMARK    2  A    between atoms: S1_4  and  C1_7
REMARK    3  A    between atoms: C6_12  and  C7_13
REMARK       I    between atoms: C7_13  and  N2_15
REMARK    4  A    between atoms: N2_15  and  C8_17
REMARK    5  A    between atoms: C11_20  and  C12_21
REMARK    6  A    between atoms: C14_23  and  C15_24
REMARK    7  A    between atoms: C22_31  and  O4_32
ROOT
HETATM    1  C8  UNL     1       4.997  -6.046 -23.748  1.00  0.00     0.107 A
HETATM    2  C9  UNL     1       6.363  -5.846 -23.718  1.00  0.00     0.049 A
HETATM    3  C10 UNL     1       7.224  -6.922 -23.701  1.00  0.00     0.013 A
HETATM    4  C11 UNL     1       6.749  -8.215 -23.715  1.00  0.00    -0.032 A
HETATM    5  C23 UNL     1       5.379  -8.366 -23.744  1.00  0.00     0.097 A
HETATM    6  N3  UNL     1       4.528  -7.317 -23.761  1.00  0.00    -0.352 N
ATOM      7  H3  UNL     1       3.522  -7.483 -23.783  1.00  0.00     0.166 HD
ENDROOT
BRANCH   1   8
HETATM    8  N2  UNL     1       4.196  -5.021 -23.764  1.00  0.00    -0.309 N
HETATM    9  C7  UNL     1       3.052  -5.014 -22.885  1.00  0.00     0.258 C
HETATM   10  O3  UNL     1       2.028  -5.481 -23.333  1.00  0.00    -0.267 OA
ATOM     11  H2  UNL     1       4.374  -4.235 -24.388  1.00  0.00     0.170 HD
BRANCH   9  12
HETATM   12  C6  UNL     1       3.187  -4.459 -21.535  1.00  0.00     0.055 A
HETATM   13  C1  UNL     1       3.142  -3.121 -21.268  1.00  0.00     0.095 A
HETATM   14  C2  UNL     1       3.281  -2.693 -19.960  1.00  0.00     0.026 A
HETATM   15  C3  UNL     1       3.464  -3.542 -18.893  1.00  0.00     0.002 A
HETATM   16  C4  UNL     1       3.503  -4.891 -19.204  1.00  0.00     0.001 A
HETATM   17  C5  UNL     1       3.371  -5.344 -20.472  1.00  0.00     0.018 A
BRANCH  13  18
HETATM   18  S1  UNL     1       2.916  -1.919 -22.501  1.00  0.00     0.257 S
HETATM   19  O1  UNL     1       2.774  -0.570 -21.881  1.00  0.00    -0.201 OA
HETATM   20  O2  UNL     1       3.981  -1.914 -23.527  1.00  0.00    -0.201 OA
BRANCH  18  21
HETATM   21  N1  UNL     1       1.393  -2.265 -23.323  1.00  0.00    -0.324 N
ATOM     22  H12 UNL     1       0.598  -2.764 -22.923  1.00  0.00     0.169 HD
ATOM     23  H11 UNL     1       1.468  -1.872 -24.261  1.00  0.00     0.169 HD
ENDBRANCH  18  21
ENDBRANCH  13  18
ENDBRANCH   9  12
ENDBRANCH   1   8
BRANCH   4  24
HETATM   24  C12 UNL     1       7.631  -9.384 -23.709  1.00  0.00     0.078 C
HETATM   25  C13 UNL     1       7.001 -10.704 -24.019  1.00  0.00    -0.066 C
HETATM   26  C14 UNL     1       6.031 -11.140 -24.791  1.00  0.00     0.015 C
HETATM   27  C21 UNL     1       7.985 -11.286 -23.083  1.00  0.00     0.067 C
HETATM   28  C22 UNL     1       7.900  -9.958 -22.312  1.00  0.00     0.134 C
BRANCH  26  29
HETATM   29  C15 UNL     1       5.623 -12.526 -24.890  1.00  0.00    -0.036 A
HETATM   30  C16 UNL     1       6.589 -13.471 -25.268  1.00  0.00     0.011 A
HETATM   31  C17 UNL     1       6.235 -14.807 -25.393  1.00  0.00     0.001 A
HETATM   32  C18 UNL     1       4.952 -15.238 -25.156  1.00  0.00     0.000 A
HETATM   33  C19 UNL     1       3.986 -14.334 -24.785  1.00  0.00     0.001 A
HETATM   34  C20 UNL     1       4.355 -12.994 -24.662  1.00  0.00     0.011 A
ENDBRANCH  26  29
BRANCH  28  35
HETATM   35  O4  UNL     1       6.813 -10.005 -21.473  1.00  0.00    -0.394 OA
ATOM     36  H4  UNL     1       6.784  -9.330 -20.804  1.00  0.00     0.210 HD
ENDBRANCH  28  35
ENDBRANCH   4  24
TORSDOF 7
ENDMDL