MODEL 3
REMARK VINA RESULT: -10.125541619      1.309      2.104
REMARK  4 active torsions:
REMARK  status: ('A' for Active; 'I' for Inactive)
REMARK    1  A    between atoms: C4_6  and  C5_7
REMARK    2  A    between atoms: C4_6  and  C15_17
REMARK    3  A    between atoms: C20_26  and  C21_27
REMARK       I    between atoms: C21_27  and  N3_29
REMARK    4  A    between atoms: N3_29  and  C22_31
ROOT
HETATM    1  C1  UNL     1      -0.832  -9.615 -27.342  1.00  0.00     0.014 C
HETATM    2  C2  UNL     1       0.255  -9.429 -26.847  1.00  0.00    -0.091 C
HETATM    3  C3  UNL     1       1.602  -9.216 -26.256  1.00  0.00     0.180 C
HETATM    4  N1  UNL     1       2.174 -10.409 -25.816  1.00  0.00    -0.371 N
ATOM      5  H1  UNL     1       2.444 -11.108 -26.509  1.00  0.00     0.157 HD
HETATM    6  C4  UNL     1       2.393 -10.685 -24.468  1.00  0.00     0.183 C
HETATM    7  N2  UNL     1       2.353  -9.576 -23.559  1.00  0.00    -0.324 N
ATOM      8  H2  UNL     1       2.455  -9.744 -22.558  1.00  0.00     0.165 HD
HETATM    9  C19 UNL     1       2.174  -8.268 -24.025  1.00  0.00     0.236 C
HETATM   10  O2  UNL     1       2.606  -7.297 -23.325  1.00  0.00    -0.272 OA
HETATM   11  C20 UNL     1       1.488  -8.077 -25.314  1.00  0.00     0.204 C
ENDROOT
BRANCH  11  12
HETATM   12  C21 UNL     1       2.002  -6.800 -25.904  1.00  0.00     0.238 C
HETATM   13  O3  UNL     1       1.629  -5.658 -25.467  1.00  0.00    -0.272 OA
HETATM   14  N3  UNL     1       2.924  -6.777 -26.971  1.00  0.00    -0.326 N
ATOM     15  H3  UNL     1       3.899  -6.991 -26.760  1.00  0.00     0.169 HD
BRANCH  14  16
HETATM   16  C22 UNL     1       2.625  -6.509 -28.179  1.00  0.00     0.037 A
HETATM   17  C23 UNL     1       2.848  -5.235 -28.647  1.00  0.00     0.046 A
HETATM   18  C24 UNL     1       2.510  -4.983 -29.970  1.00  0.00     0.090 A
HETATM   19  N4  UNL     1       1.990  -5.923 -30.773  1.00  0.00    -0.375 N
HETATM   20  C25 UNL     1       1.781  -7.148 -30.305  1.00  0.00     0.090 A
ATOM     21  H4  UNL     1       1.755  -5.698 -31.739  1.00  0.00     0.164 HD
HETATM   22  C26 UNL     1       2.090  -7.473 -29.003  1.00  0.00     0.046 A
ENDBRANCH  14  16
ENDBRANCH  11  12
BRANCH   6  23
HETATM   23  C5  UNL     1       3.758 -11.310 -24.331  1.00  0.00    -0.002 A
HETATM   24  C6  UNL     1       4.819 -10.623 -23.782  1.00  0.00     0.013 A
HETATM   25  C7  UNL     1       6.077 -11.178 -23.648  1.00  0.00     0.013 A
HETATM   26  C8  UNL     1       6.310 -12.469 -24.071  1.00  0.00    -0.026 A
HETATM   27  C9  UNL     1       7.569 -13.030 -23.939  1.00  0.00     0.012 A
HETATM   28  C13 UNL     1       5.252 -13.160 -24.620  1.00  0.00    -0.025 A
HETATM   29  C10 UNL     1       7.808 -14.321 -24.358  1.00  0.00     0.001 A
HETATM   30  C11 UNL     1       6.746 -15.023 -24.911  1.00  0.00     0.001 A
HETATM   31  C12 UNL     1       5.495 -14.459 -25.041  1.00  0.00     0.012 A
HETATM   32  C14 UNL     1       3.992 -12.602 -24.753  1.00  0.00     0.024 A
ENDBRANCH   6  23
BRANCH   6  33
HETATM   33  C15 UNL     1       1.446 -11.708 -23.931  1.00  0.00     0.106 A
HETATM   34  C16 UNL     1       0.231 -12.102 -24.468  1.00  0.00     0.039 A
HETATM   35  C17 UNL     1      -0.262 -13.051 -23.631  1.00  0.00     0.027 A
HETATM   36  C18 UNL     1       0.648 -13.219 -22.611  1.00  0.00     0.142 A
HETATM   37  O1  UNL     1       1.639 -12.389 -22.850  1.00  0.00    -0.322 OA
ENDBRANCH   6  33
TORSDOF 4
ENDMDL