MODEL 4
REMARK VINA RESULT: -10.213897521      2.992      4.681
REMARK  4 active torsions:
REMARK  status: ('A' for Active; 'I' for Inactive)
REMARK       I    between atoms: C1_2  and  N1_3
REMARK    1  A    between atoms: C1_2  and  C20_34
REMARK    2  A    between atoms: N1_3  and  C2_5
REMARK    3  A    between atoms: C5_8  and  C6_9
REMARK    4  A    between atoms: C10_15  and  C11_16
REMARK       I    between atoms: C11_16  and  N3_18
ROOT
HETATM    1  C6  UNL     1       5.441 -11.785 -24.374  1.00  0.00     0.006 A
HETATM    2  C7  UNL     1       4.651 -12.917 -24.469  1.00  0.00     0.031 A
HETATM    3  C8  UNL     1       5.216 -14.118 -24.830  1.00  0.00     0.089 A
HETATM    4  N2  UNL     1       6.535 -14.186 -25.087  1.00  0.00    -0.363 N
ATOM      5  H2  UNL     1       6.939 -15.084 -25.353  1.00  0.00     0.165 HD
HETATM    6  C9  UNL     1       7.342 -13.105 -25.005  1.00  0.00     0.077 A
HETATM    7  C10 UNL     1       8.692 -12.921 -25.212  1.00  0.00     0.076 A
HETATM    8  C17 UNL     1       8.968 -11.587 -24.976  1.00  0.00     0.108 A
HETATM    9  N5  UNL     1       7.802 -10.988 -24.635  1.00  0.00    -0.362 N
ATOM     10  H5  UNL     1       7.707  -9.998 -24.406  1.00  0.00     0.165 HD
HETATM   11  C18 UNL     1       6.788 -11.870 -24.639  1.00  0.00     0.071 A
ENDROOT
BRANCH   1  12
HETATM   12  C5  UNL     1       4.855 -10.518 -24.006  1.00  0.00    -0.008 A
HETATM   13  C4  UNL     1       3.896  -9.942 -24.811  1.00  0.00     0.017 A
HETATM   14  C3  UNL     1       3.316  -8.718 -24.487  1.00  0.00     0.049 A
HETATM   15  C2  UNL     1       3.723  -8.083 -23.332  1.00  0.00     0.107 A
HETATM   16  N6  UNL     1       4.664  -8.665 -22.557  1.00  0.00    -0.351 N
HETATM   17  C19 UNL     1       5.231  -9.839 -22.854  1.00  0.00     0.102 A
ATOM     18  H6  UNL     1       4.957  -8.186 -21.706  1.00  0.00     0.166 HD
BRANCH  15  19
HETATM   19  N1  UNL     1       3.213  -6.945 -22.988  1.00  0.00    -0.309 N
HETATM   20  C1  UNL     1       3.908  -6.079 -22.124  1.00  0.00     0.257 C
HETATM   21  O1  UNL     1       3.896  -6.289 -20.890  1.00  0.00    -0.267 OA
ATOM     22  H1  UNL     1       2.299  -6.672 -23.348  1.00  0.00     0.170 HD
BRANCH  20  23
HETATM   23  C20 UNL     1       4.640  -4.941 -22.666  1.00  0.00     0.035 A
HETATM   24  C21 UNL     1       5.407  -4.131 -21.840  1.00  0.00     0.034 A
HETATM   25  C22 UNL     1       6.103  -3.058 -22.323  1.00  0.00     0.088 A
HETATM   26  N7  UNL     1       6.025  -2.802 -23.644  1.00  0.00    -0.375 N
HETATM   27  C23 UNL     1       5.295  -3.564 -24.465  1.00  0.00     0.088 A
ATOM     28  H7  UNL     1       6.535  -2.006 -24.027  1.00  0.00     0.164 HD
HETATM   29  C24 UNL     1       4.589  -4.643 -24.009  1.00  0.00     0.034 A
ENDBRANCH  20  23
ENDBRANCH  15  19
ENDBRANCH   1  12
BRANCH   7  30
HETATM   30  C11 UNL     1       9.618 -13.962 -25.603  1.00  0.00     0.259 C
HETATM   31  O2  UNL     1       9.666 -15.049 -24.976  1.00  0.00    -0.267 OA
HETATM   32  N3  UNL     1      10.508 -13.793 -26.713  1.00  0.00    -0.323 N
HETATM   33  C12 UNL     1      11.769 -13.626 -26.565  1.00  0.00     0.037 A
ATOM     34  H3  UNL     1      10.123 -13.807 -27.657  1.00  0.00     0.169 HD
HETATM   35  C13 UNL     1      12.575 -13.469 -27.671  1.00  0.00     0.046 A
HETATM   36  C16 UNL     1      12.337 -13.603 -25.308  1.00  0.00     0.046 A
HETATM   37  C14 UNL     1      13.942 -13.290 -27.479  1.00  0.00     0.090 A
HETATM   38  N4  UNL     1      14.458 -13.273 -26.227  1.00  0.00    -0.375 N
HETATM   39  C15 UNL     1      13.695 -13.424 -25.129  1.00  0.00     0.090 A
ATOM     40  H4  UNL     1      15.463 -13.140 -26.112  1.00  0.00     0.164 HD
ENDBRANCH   7  30
TORSDOF 4
ENDMDL