MODEL 3
REMARK VINA RESULT: -9.277508285      3.789      5.637
REMARK  7 active torsions:
REMARK  status: ('A' for Active; 'I' for Inactive)
REMARK    1  A    between atoms: C2_3  and  N2_4
REMARK    2  A    between atoms: N2_4  and  C3_5
REMARK    3  A    between atoms: C3_5  and  N3_7
REMARK    4  A    between atoms: N3_7  and  C4_9
REMARK    5  A    between atoms: C7_12  and  S2_13
REMARK    6  A    between atoms: S2_13  and  N4_16
REMARK    7  A    between atoms: N4_16  and  C8_18
ROOT
HETATM    1  C4  UNL     1       2.480 -13.200 -24.175  1.00  0.00     0.035 A
HETATM    2  C5  UNL     1       3.186 -12.097 -23.767  1.00  0.00     0.031 A
HETATM    3  C6  UNL     1       4.583 -12.007 -23.905  1.00  0.00     0.027 A
HETATM    4  C7  UNL     1       5.289 -13.042 -24.463  1.00  0.00     0.080 A
HETATM    5  C13 UNL     1       4.617 -14.153 -24.880  1.00  0.00     0.027 A
HETATM    6  C14 UNL     1       3.254 -14.229 -24.739  1.00  0.00     0.031 A
ENDROOT
BRANCH   1   7
HETATM    7  N3  UNL     1       1.089 -13.351 -24.105  1.00  0.00    -0.322 N
ATOM      8  H3  UNL     1       0.690 -14.274 -23.935  1.00  0.00     0.169 HD
BRANCH   7   9
HETATM    9  C3  UNL     1       0.208 -12.208 -24.272  1.00  0.00     0.253 C
HETATM   10  S1  UNL     1      -1.217 -12.327 -23.386  1.00  0.00    -0.025 SA
BRANCH   9  11
HETATM   11  N2  UNL     1       0.448 -11.157 -24.978  1.00  0.00    -0.341 NA
BRANCH  11  12
HETATM   12  C2  UNL     1       0.759 -10.209 -25.625  1.00  0.00     0.265 A
HETATM   13  N1  UNL     1       0.230  -9.860 -26.844  1.00  0.00    -0.309 N
HETATM   14  C1  UNL     1      -0.801 -10.550 -27.597  1.00  0.00     0.161 C
HETATM   15  C20 UNL     1       0.847  -8.739 -27.234  1.00  0.00     0.064 A
HETATM   16  C15 UNL     1       1.767  -8.356 -26.288  1.00  0.00     0.062 A
HETATM   17  C19 UNL     1       0.699  -7.954 -28.390  1.00  0.00     0.032 A
HETATM   18  N6  UNL     1       1.715  -9.249 -25.309  1.00  0.00    -0.314 N
HETATM   19  C16 UNL     1       2.546  -7.204 -26.471  1.00  0.00     0.032 A
ATOM     20  H6  UNL     1       2.283  -9.234 -24.463  1.00  0.00     0.170 HD
HETATM   21  C17 UNL     1       2.374  -6.462 -27.611  1.00  0.00     0.002 A
HETATM   22  C18 UNL     1       1.450  -6.829 -28.581  1.00  0.00     0.002 A
ENDBRANCH  11  12
ENDBRANCH   9  11
ENDBRANCH   7   9
ENDBRANCH   1   7
BRANCH   4  23
HETATM   23  S2  UNL     1       7.046 -12.901 -24.622  1.00  0.00     0.263 S
HETATM   24  O1  UNL     1       7.304 -12.353 -26.003  1.00  0.00    -0.200 OA
HETATM   25  O2  UNL     1       7.590 -14.344 -24.632  1.00  0.00    -0.200 OA
BRANCH  23  26
HETATM   26  N4  UNL     1       7.732 -12.042 -23.359  1.00  0.00    -0.281 N
ATOM     27  H4  UNL     1       8.321 -12.566 -22.711  1.00  0.00     0.179 HD
BRANCH  26  28
HETATM   28  C8  UNL     1       7.591 -10.800 -23.129  1.00  0.00     0.045 A
HETATM   29  C9  UNL     1       7.652  -9.799 -24.049  1.00  0.00     0.047 A
HETATM   30  C10 UNL     1       7.477  -8.466 -23.647  1.00  0.00     0.090 A
HETATM   31  N5  UNL     1       7.247  -8.128 -22.369  1.00  0.00    -0.375 N
HETATM   32  C11 UNL     1       7.179  -9.089 -21.424  1.00  0.00     0.090 A
ATOM     33  H5  UNL     1       7.123  -7.149 -22.113  1.00  0.00     0.164 HD
HETATM   34  C12 UNL     1       7.347 -10.386 -21.802  1.00  0.00     0.047 A
ENDBRANCH  26  28
ENDBRANCH  23  26
ENDBRANCH   4  23
TORSDOF 7
ENDMDL