MODEL 4
REMARK VINA RESULT: -7.644027291      2.680      6.364
REMARK  9 active torsions:
REMARK  status: ('A' for Active; 'I' for Inactive)
REMARK    1  A    between atoms: C1_2  and  C2_3
REMARK       I    between atoms: C1_2  and  N5_25
REMARK    2  A    between atoms: C2_3  and  N1_4
REMARK    3  A    between atoms: N1_4  and  C3_5
REMARK    4  A    between atoms: N1_4  and  C9_19
REMARK    5  A    between atoms: C3_5  and  N2_7
REMARK    6  A    between atoms: N2_7  and  N3_9
REMARK    7  A    between atoms: N3_9  and  C4_11
REMARK    8  A    between atoms: C4_11  and  N4_13
REMARK    9  A    between atoms: N5_25  and  C15_27
ROOT
HETATM    1  N1  UNL     1       1.575  -7.807 -26.112  1.00  0.00    -0.344 N
ENDROOT
BRANCH   1   2
HETATM    2  C2  UNL     1       0.197  -8.255 -26.143  1.00  0.00     0.228 C
BRANCH   2   3
HETATM    3  C1  UNL     1       0.038  -9.710 -25.952  1.00  0.00     0.235 C
HETATM    4  O1  UNL     1      -0.203 -10.447 -26.932  1.00  0.00    -0.272 OA
HETATM    5  N5  UNL     1       0.162 -10.256 -24.650  1.00  0.00    -0.355 N
ATOM      6  H5  UNL     1       0.360  -9.650 -23.853  1.00  0.00     0.162 HD
BRANCH   5   7
HETATM    7  C15 UNL     1       0.005 -11.693 -24.463  1.00  0.00     0.084 C
HETATM    8  C16 UNL     1       1.264 -12.185 -23.812  1.00  0.00     0.025 C
HETATM    9  C17 UNL     1       1.108 -13.482 -23.088  1.00  0.00     0.002 C
HETATM   10  C18 UNL     1       0.082 -13.234 -21.982  1.00  0.00     0.000 C
HETATM   11  C19 UNL     1      -1.221 -12.963 -22.649  1.00  0.00     0.002 C
HETATM   12  C20 UNL     1      -1.236 -11.904 -23.674  1.00  0.00     0.025 C
ENDBRANCH   5   7
ENDBRANCH   2   3
ENDBRANCH   1   2
BRANCH   1  13
HETATM   13  C3  UNL     1       2.250  -7.645 -24.884  1.00  0.00     0.189 C
HETATM   14  S1  UNL     1       1.571  -6.721 -23.717  1.00  0.00    -0.039 SA
BRANCH  13  15
HETATM   15  N2  UNL     1       3.509  -8.266 -24.643  1.00  0.00    -0.274 N
ATOM     16  H2  UNL     1       4.327  -7.962 -25.171  1.00  0.00     0.189 HD
BRANCH  15  17
HETATM   17  N3  UNL     1       3.640  -9.276 -23.703  1.00  0.00    -0.274 N
ATOM     18  H3  UNL     1       2.791  -9.723 -23.359  1.00  0.00     0.189 HD
BRANCH  17  19
HETATM   19  C4  UNL     1       4.887  -9.729 -23.189  1.00  0.00     0.188 C
HETATM   20  S2  UNL     1       5.555  -8.851 -21.986  1.00  0.00    -0.039 SA
BRANCH  19  21
HETATM   21  N4  UNL     1       5.513 -10.889 -23.706  1.00  0.00    -0.353 N
HETATM   22  C5  UNL     1       6.814 -11.323 -23.267  1.00  0.00     0.151 C
HETATM   23  C6  UNL     1       7.265 -12.397 -24.264  1.00  0.00     0.187 C
HETATM   24  O2  UNL     1       6.408 -13.469 -24.282  1.00  0.00    -0.388 OA
HETATM   25  C7  UNL     1       5.087 -13.150 -24.456  1.00  0.00     0.187 C
HETATM   26  C8  UNL     1       4.845 -11.680 -24.708  1.00  0.00     0.151 C
ENDBRANCH  19  21
ENDBRANCH  17  19
ENDBRANCH  15  17
ENDBRANCH  13  15
ENDBRANCH   1  13
BRANCH   1  27
HETATM   27  C9  UNL     1       2.303  -7.517 -27.345  1.00  0.00     0.087 C
HETATM   28  C10 UNL     1       2.685  -6.060 -27.330  1.00  0.00     0.025 C
HETATM   29  C11 UNL     1       2.867  -5.522 -28.740  1.00  0.00     0.002 C
HETATM   30  C12 UNL     1       3.364  -6.605 -29.660  1.00  0.00     0.000 C
HETATM   31  C13 UNL     1       2.399  -7.749 -29.765  1.00  0.00     0.002 C
HETATM   32  C14 UNL     1       1.450  -7.768 -28.568  1.00  0.00     0.025 C
ENDBRANCH   1  27
TORSDOF 9
ENDMDL