MODEL 2
REMARK VINA RESULT: -9.333062400      1.054      1.279
REMARK  4 active torsions:
REMARK  status: ('A' for Active; 'I' for Inactive)
REMARK       I    between atoms: C1_2  and  N1_3
REMARK    1  A    between atoms: C1_2  and  C9_12
REMARK    2  A    between atoms: N1_3  and  C2_5
REMARK       I    between atoms: N2_19  and  C15_20
REMARK       I    between atoms: C15_20  and  N3_22
REMARK    3  A    between atoms: N3_22  and  C16_24
REMARK    4  A    between atoms: C23_31  and  O4_32
ROOT
HETATM    1  C9  UNL     1       1.695  -9.143 -24.416  1.00  0.00     0.321 C
HETATM    2  O2  UNL     1       0.565  -9.585 -23.719  1.00  0.00    -0.350 OA
HETATM    3  C10 UNL     1       0.087 -10.657 -24.477  1.00  0.00     0.147 C
HETATM    4  C11 UNL     1      -0.579 -11.666 -23.599  1.00  0.00     0.034 C
HETATM    5  C12 UNL     1       0.156 -12.958 -23.744  1.00  0.00     0.005 C
HETATM    6  C13 UNL     1       1.472 -12.633 -24.416  1.00  0.00     0.028 C
HETATM    7  C14 UNL     1       1.300 -11.306 -25.115  1.00  0.00     0.121 C
HETATM    8  N2  UNL     1       2.357 -10.362 -24.801  1.00  0.00    -0.292 N
HETATM    9  C15 UNL     1       3.733 -10.620 -24.854  1.00  0.00     0.321 C
HETATM   10  O3  UNL     1       4.503  -9.658 -24.489  1.00  0.00    -0.247 OA
HETATM   11  N3  UNL     1       4.366 -11.802 -25.258  1.00  0.00    -0.338 N
ATOM     12  H3  UNL     1       3.796 -12.593 -25.559  1.00  0.00     0.164 HD
ENDROOT
BRANCH   1  13
HETATM   13  C1  UNL     1       1.302  -8.294 -25.539  1.00  0.00     0.267 C
HETATM   14  O1  UNL     1       0.266  -7.550 -25.400  1.00  0.00    -0.269 OA
HETATM   15  N1  UNL     1       1.992  -8.234 -26.786  1.00  0.00    -0.352 N
ATOM     16  H1  UNL     1       2.820  -8.810 -26.937  1.00  0.00     0.163 HD
BRANCH  15  17
HETATM   17  C2  UNL     1       1.518  -7.350 -27.850  1.00  0.00     0.089 C
HETATM   18  C3  UNL     1       2.455  -6.172 -27.955  1.00  0.00     0.030 C
HETATM   19  C4  UNL     1       3.199  -6.326 -29.261  1.00  0.00    -0.012 C
HETATM   20  C5  UNL     1       2.268  -5.989 -30.379  1.00  0.00     0.005 C
HETATM   21  C8  UNL     1       3.197  -7.861 -29.391  1.00  0.00     0.011 C
HETATM   22  C6  UNL     1       1.172  -7.041 -30.222  1.00  0.00     0.007 C
HETATM   23  C7  UNL     1       1.692  -8.021 -29.197  1.00  0.00     0.009 C
ENDBRANCH  15  17
ENDBRANCH   1  13
BRANCH  11  24
HETATM   24  C16 UNL     1       5.812 -11.931 -25.260  1.00  0.00     0.094 C
HETATM   25  C17 UNL     1       6.360 -12.435 -26.573  1.00  0.00     0.012 C
HETATM   26  C18 UNL     1       6.000 -13.858 -26.871  1.00  0.00     0.011 C
HETATM   27  C25 UNL     1       7.885 -12.351 -26.433  1.00  0.00     0.044 C
HETATM   28  C19 UNL     1       6.515 -14.733 -25.753  1.00  0.00    -0.011 C
HETATM   29  C20 UNL     1       5.872 -14.298 -24.463  1.00  0.00     0.011 C
HETATM   30  C24 UNL     1       8.023 -14.655 -25.625  1.00  0.00     0.042 C
HETATM   31  C21 UNL     1       6.253 -12.853 -24.159  1.00  0.00     0.012 C
HETATM   32  C22 UNL     1       7.748 -12.826 -24.006  1.00  0.00     0.044 C
HETATM   33  C23 UNL     1       8.393 -13.233 -25.329  1.00  0.00     0.059 C
BRANCH  33  34
HETATM   34  O4  UNL     1       9.761 -13.040 -25.225  1.00  0.00    -0.390 OA
ATOM     35  H4  UNL     1       9.914 -12.245 -24.729  1.00  0.00     0.210 HD
ENDBRANCH  33  34
ENDBRANCH  11  24
TORSDOF 4
ENDMDL