MODEL 4
REMARK VINA RESULT: -9.328810397      2.020      2.833
REMARK  7 active torsions:
REMARK  status: ('A' for Active; 'I' for Inactive)
REMARK    1  A    between atoms: N1_2  and  C2_4
REMARK    2  A    between atoms: C4_6  and  C5_7
REMARK       I    between atoms: C5_7  and  N2_9
REMARK    3  A    between atoms: N2_9  and  C6_11
REMARK    4  A    between atoms: C7_14  and  C8_15
REMARK    5  A    between atoms: C9_16  and  C10_17
REMARK    6  A    between atoms: N4_25  and  C18_27
REMARK    7  A    between atoms: C18_27  and  C19_28
ROOT
HETATM    1  C6  UNL     1       2.975  -8.102 -23.602  1.00  0.00     0.687 A
HETATM    2  N3  UNL     1       3.782  -9.098 -23.970  1.00  0.00    -0.183 N
ATOM      3  H3  UNL     1       3.440  -9.809 -24.616  1.00  0.00     0.185 HD
HETATM    4  C7  UNL     1       5.030  -9.180 -23.505  1.00  0.00     0.106 A
HETATM    5  C16 UNL     1       5.487  -8.205 -22.625  1.00  0.00     0.088 A
HETATM    6  C17 UNL     1       4.643  -7.180 -22.252  1.00  0.00     0.119 A
HETATM    7  N4  UNL     1       5.033  -6.252 -21.433  1.00  0.00    -0.370 N
ATOM      8  H4  UNL     1       5.986  -6.304 -21.072  1.00  0.00     0.161 HD
HETATM    9  N6  UNL     1       3.405  -7.164 -22.759  1.00  0.00    -0.177 N
ATOM     10  H6  UNL     1       2.771  -6.411 -22.493  1.00  0.00     0.186 HD
ENDROOT
BRANCH   1  11
HETATM   11  N2  UNL     1       1.791  -8.085 -24.086  1.00  0.00    -0.155 N
HETATM   12  C5  UNL     1       1.080  -9.183 -24.583  1.00  0.00     0.270 C
HETATM   13  O1  UNL     1       0.855 -10.155 -23.804  1.00  0.00    -0.267 OA
ATOM     14  H2  UNL     1       1.319  -7.181 -24.112  1.00  0.00     0.187 HD
BRANCH  12  15
HETATM   15  C4  UNL     1       0.578  -9.289 -25.943  1.00  0.00     0.037 A
HETATM   16  C3  UNL     1       0.989  -8.498 -26.983  1.00  0.00     0.065 A
HETATM   17  C2  UNL     1       0.490  -8.628 -28.266  1.00  0.00     0.101 A
HETATM   18  N7  UNL     1      -0.435  -9.566 -28.519  1.00  0.00    -0.353 N
HETATM   19  C25 UNL     1      -0.870 -10.372 -27.510  1.00  0.00     0.090 A
ATOM     20  H7  UNL     1      -0.811  -9.675 -29.461  1.00  0.00     0.166 HD
HETATM   21  C24 UNL     1      -0.371 -10.247 -26.213  1.00  0.00     0.034 A
BRANCH  17  22
HETATM   22  N1  UNL     1       0.892  -7.874 -29.225  1.00  0.00    -0.381 N
HETATM   23  C1  UNL     1       2.334  -7.671 -29.433  1.00  0.00     0.147 C
ATOM     24  H1  UNL     1       0.215  -7.420 -29.838  1.00  0.00     0.160 HD
ENDBRANCH  17  22
ENDBRANCH  12  15
ENDBRANCH   1  11
BRANCH   4  25
HETATM   25  C8  UNL     1       5.923 -10.247 -23.888  1.00  0.00    -0.043 C
HETATM   26  C9  UNL     1       6.654 -11.145 -24.218  1.00  0.00    -0.060 C
BRANCH  26  27
HETATM   27  C10 UNL     1       7.540 -12.210 -24.618  1.00  0.00     0.018 A
HETATM   28  C11 UNL     1       8.704 -11.934 -25.308  1.00  0.00     0.020 A
HETATM   29  C12 UNL     1       9.576 -12.926 -25.707  1.00  0.00     0.001 A
HETATM   30  C13 UNL     1       9.263 -14.235 -25.399  1.00  0.00     0.000 A
HETATM   31  C14 UNL     1       8.112 -14.552 -24.713  1.00  0.00     0.001 A
HETATM   32  C15 UNL     1       7.261 -13.533 -24.328  1.00  0.00     0.020 A
ENDBRANCH  26  27
ENDBRANCH   4  25
BRANCH   7  33
HETATM   33  C18 UNL     1       4.210  -5.157 -21.002  1.00  0.00     0.178 C
BRANCH  33  34
HETATM   34  C19 UNL     1       3.447  -5.568 -19.783  1.00  0.00     0.026 A
HETATM   35  C20 UNL     1       4.081  -6.273 -18.767  1.00  0.00     0.027 A
HETATM   36  C21 UNL     1       3.420  -6.676 -17.623  1.00  0.00     0.003 A
HETATM   37  C22 UNL     1       2.090  -6.347 -17.525  1.00  0.00     0.017 A
HETATM   38  C23 UNL     1       1.473  -5.647 -18.541  1.00  0.00     0.088 A
HETATM   39  N5  UNL     1       2.158  -5.268 -19.654  1.00  0.00    -0.368 N
ATOM     40  H5  UNL     1       1.681  -4.750 -20.392  1.00  0.00     0.165 HD
ENDBRANCH  33  34
ENDBRANCH   7  33
TORSDOF 7
ENDMDL