MODEL 5
REMARK VINA RESULT: -9.056516489      2.421      4.186
REMARK  7 active torsions:
REMARK  status: ('A' for Active; 'I' for Inactive)
REMARK    1  A    between atoms: C2_2  and  O1_3
REMARK    2  A    between atoms: O1_3  and  C3_4
REMARK       I    between atoms: C3_4  and  N1_6
REMARK    3  A    between atoms: N1_6  and  C4_8
REMARK    4  A    between atoms: C7_11  and  C8_12
REMARK    5  A    between atoms: C9_13  and  C10_14
REMARK    6  A    between atoms: C14_18  and  C15_19
REMARK       I    between atoms: C15_19  and  N2_21
REMARK    7  A    between atoms: C20_29  and  C21_30
ROOT
HETATM    1  C10 UNL     1       2.832 -12.795 -24.269  1.00  0.00     0.019 A
HETATM    2  C11 UNL     1       2.283 -14.052 -24.105  1.00  0.00     0.020 A
HETATM    3  C12 UNL     1       0.909 -14.251 -24.012  1.00  0.00     0.002 A
HETATM    4  C13 UNL     1       0.120 -13.129 -24.090  1.00  0.00     0.017 A
HETATM    5  C14 UNL     1       0.672 -11.853 -24.256  1.00  0.00     0.033 A
HETATM    6  C22 UNL     1       2.023 -11.700 -24.344  1.00  0.00     0.037 A
ENDROOT
BRANCH   1   7
HETATM    7  C9  UNL     1       4.269 -12.608 -24.365  1.00  0.00    -0.061 C
HETATM    8  C8  UNL     1       5.462 -12.459 -24.460  1.00  0.00    -0.060 C
BRANCH   8   9
HETATM    9  C7  UNL     1       6.894 -12.295 -24.597  1.00  0.00     0.033 A
HETATM   10  C6  UNL     1       7.525 -11.218 -24.010  1.00  0.00     0.026 A
HETATM   11  C5  UNL     1       8.896 -11.102 -24.167  1.00  0.00     0.050 A
HETATM   12  C4  UNL     1       9.638 -12.006 -24.875  1.00  0.00     0.109 A
HETATM   13  N5  UNL     1       9.011 -13.051 -25.442  1.00  0.00    -0.351 N
HETATM   14  C23 UNL     1       7.680 -13.178 -25.298  1.00  0.00     0.110 A
ATOM     15  H5  UNL     1       9.539 -13.741 -25.975  1.00  0.00     0.166 HD
BRANCH  12  16
HETATM   16  N1  UNL     1      10.901 -11.894 -25.017  1.00  0.00    -0.288 N
HETATM   17  C3  UNL     1      11.788 -12.950 -25.267  1.00  0.00     0.366 C
HETATM   18  O2  UNL     1      12.704 -13.183 -24.407  1.00  0.00    -0.238 OA
ATOM     19  H1  UNL     1      11.299 -10.958 -24.942  1.00  0.00     0.172 HD
BRANCH  17  20
HETATM   20  O1  UNL     1      11.760 -13.774 -26.375  1.00  0.00    -0.304 OA
BRANCH  20  21
HETATM   21  C2  UNL     1      12.479 -13.543 -27.551  1.00  0.00     0.176 C
HETATM   22  C1  UNL     1      13.967 -13.501 -27.306  1.00  0.00     0.034 C
ENDBRANCH  20  21
ENDBRANCH  17  20
ENDBRANCH  12  16
ENDBRANCH   8   9
ENDBRANCH   1   7
BRANCH   5  23
HETATM   23  C15 UNL     1      -0.222 -10.724 -24.331  1.00  0.00     0.256 C
HETATM   24  O3  UNL     1      -1.458 -10.918 -24.246  1.00  0.00    -0.267 OA
HETATM   25  N2  UNL     1       0.274  -9.386 -24.500  1.00  0.00    -0.322 N
HETATM   26  C16 UNL     1       0.438  -8.867 -25.665  1.00  0.00     0.053 A
ATOM     27  H2  UNL     1       0.502  -8.833 -23.674  1.00  0.00     0.169 HD
HETATM   28  C17 UNL     1       0.146  -9.568 -26.835  1.00  0.00     0.047 A
HETATM   29  C20 UNL     1       0.916  -7.581 -25.757  1.00  0.00     0.071 A
HETATM   30  C18 UNL     1       0.331  -8.987 -28.069  1.00  0.00     0.090 A
HETATM   31  N3  UNL     1       0.794  -7.744 -28.141  1.00  0.00    -0.374 N
HETATM   32  C19 UNL     1       1.077  -7.064 -27.030  1.00  0.00     0.106 A
ATOM     33  H3  UNL     1       0.934  -7.306 -29.052  1.00  0.00     0.164 HD
BRANCH  29  34
HETATM   34  C21 UNL     1       1.232  -6.819 -24.579  1.00  0.00     0.268 C
HETATM   35  N4  UNL     1       1.828  -7.456 -23.459  1.00  0.00    -0.057 NA
HETATM   36  O4  UNL     1       0.991  -5.596 -24.516  1.00  0.00    -0.271 OA
ENDBRANCH  29  34
ENDBRANCH   5  23
TORSDOF 7
ENDMDL