MODEL 5
REMARK VINA RESULT: -9.985386801      3.049      9.561
REMARK  8 active torsions:
REMARK  status: ('A' for Active; 'I' for Inactive)
REMARK    1  A    between atoms: C1_2  and  C2_4
REMARK    2  A    between atoms: N2_11  and  C9_12
REMARK    3  A    between atoms: C9_12  and  O2_13
REMARK    4  A    between atoms: C9_12  and  C10_15
REMARK    5  A    between atoms: C13_18  and  N3_19
REMARK    6  A    between atoms: N3_19  and  C14_21
REMARK    7  A    between atoms: C17_26  and  N5_27
REMARK    8  A    between atoms: N5_27  and  C18_29
ROOT
HETATM    1  C10 UNL     1       4.353  -8.858 -23.816  1.00  0.00     0.015 A
HETATM    2  C11 UNL     1       5.573  -8.182 -23.629  1.00  0.00     0.018 A
HETATM    3  C12 UNL     1       6.784  -8.834 -23.658  1.00  0.00     0.031 A
HETATM    4  C13 UNL     1       6.851 -10.184 -23.874  1.00  0.00     0.049 A
HETATM    5  C24 UNL     1       5.700 -10.878 -24.060  1.00  0.00     0.031 A
HETATM    6  C25 UNL     1       4.483 -10.198 -24.027  1.00  0.00     0.018 A
ENDROOT
BRANCH   4   7
HETATM    7  N3  UNL     1       8.094 -10.827 -23.902  1.00  0.00    -0.192 N
ATOM      8  H3  UNL     1       8.891 -10.338 -23.495  1.00  0.00     0.184 HD
BRANCH   7   9
HETATM    9  C14 UNL     1       8.303 -11.997 -24.409  1.00  0.00     0.684 A
HETATM   10  N4  UNL     1       7.633 -13.082 -23.979  1.00  0.00    -0.202 N
HETATM   11  C15 UNL     1       7.886 -14.288 -24.544  1.00  0.00     0.110 A
ATOM     12  H4  UNL     1       6.941 -12.998 -23.234  1.00  0.00     0.183 HD
HETATM   13  C16 UNL     1       8.811 -14.437 -25.547  1.00  0.00     0.066 A
HETATM   14  C17 UNL     1       9.488 -13.318 -25.977  1.00  0.00     0.122 A
HETATM   15  N6  UNL     1       9.212 -12.138 -25.395  1.00  0.00    -0.176 N
ATOM     16  H6  UNL     1       9.714 -11.310 -25.715  1.00  0.00     0.186 HD
BRANCH  14  17
HETATM   17  N5  UNL     1      10.381 -13.370 -26.925  1.00  0.00    -0.342 N
ATOM     18  H5  UNL     1      10.079 -13.377 -27.899  1.00  0.00     0.167 HD
BRANCH  17  19
HETATM   19  C18 UNL     1      11.769 -13.416 -26.623  1.00  0.00     0.033 A
HETATM   20  C19 UNL     1      12.222 -13.439 -25.321  1.00  0.00     0.029 A
HETATM   21  C20 UNL     1      13.596 -13.485 -25.069  1.00  0.00     0.002 A
HETATM   22  C21 UNL     1      14.524 -13.509 -26.088  1.00  0.00     0.000 A
HETATM   23  C22 UNL     1      14.056 -13.487 -27.383  1.00  0.00     0.002 A
HETATM   24  C23 UNL     1      12.686 -13.440 -27.641  1.00  0.00     0.029 A
ENDBRANCH  17  19
ENDBRANCH  14  17
ENDBRANCH   7   9
ENDBRANCH   4   7
BRANCH   1  25
HETATM   25  C9  UNL     1       3.150  -8.066 -23.773  1.00  0.00     0.149 C
BRANCH  25  26
HETATM   26  N2  UNL     1       2.154  -7.842 -24.720  1.00  0.00    -0.343 N
HETATM   27  C2  UNL     1       1.311  -6.629 -24.672  1.00  0.00     0.176 C
HETATM   28  C3  UNL     1       0.278  -6.754 -25.730  1.00  0.00     0.041 C
HETATM   29  C4  UNL     1       0.261  -8.200 -26.081  1.00  0.00     0.011 C
HETATM   30  C5  UNL     1       0.045  -8.427 -27.543  1.00  0.00     0.007 C
HETATM   31  C8  UNL     1       1.722  -8.634 -25.829  1.00  0.00     0.091 C
HETATM   32  C6  UNL     1       1.368  -8.021 -28.127  1.00  0.00     0.002 C
HETATM   33  C7  UNL     1       2.427  -8.322 -27.122  1.00  0.00     0.026 C
BRANCH  27  34
HETATM   34  C1  UNL     1       2.078  -5.393 -24.898  1.00  0.00     0.254 C
HETATM   35  N1  UNL     1       2.084  -4.436 -23.846  1.00  0.00    -0.060 NA
HETATM   36  O1  UNL     1       2.726  -5.111 -25.932  1.00  0.00    -0.275 OA
ENDBRANCH  27  34
ENDBRANCH  25  26
BRANCH  25  37
HETATM   37  O2  UNL     1       2.927  -7.425 -22.640  1.00  0.00    -0.346 OA
ATOM     38  H2  UNL     1       3.672  -6.904 -22.361  1.00  0.00     0.219 HD
ENDBRANCH  25  37
ENDBRANCH   1  25
TORSDOF 8
ENDMDL