MODEL 4
REMARK VINA RESULT: -8.974667921      2.111      7.460
REMARK  8 active torsions:
REMARK  status: ('A' for Active; 'I' for Inactive)
REMARK    1  A    between atoms: N2_5  and  C3_6
REMARK    2  A    between atoms: C8_11  and  C9_12
REMARK    3  A    between atoms: C11_14  and  N3_15
REMARK       I    between atoms: N3_15  and  C12_17
REMARK       I    between atoms: C12_17  and  N4_19
REMARK    4  A    between atoms: N4_19  and  C13_21
REMARK    5  A    between atoms: C18_28  and  C19_29
REMARK    6  A    between atoms: C19_29  and  C20_30
REMARK    7  A    between atoms: C23_33  and  C24_34
REMARK    8  A    between atoms: C24_34  and  O2_35
ROOT
HETATM    1  C1  UNL     1      -0.494 -13.124 -23.810  1.00  0.00     0.045 C
HETATM    2  C2  UNL     1       0.284 -12.084 -24.086  1.00  0.00     0.053 A
HETATM    3  N1  UNL     1      -0.190 -10.902 -24.534  1.00  0.00    -0.292 N
ATOM      4  H1  UNL     1      -1.177 -10.706 -24.697  1.00  0.00     0.187 HD
HETATM    5  N2  UNL     1       0.785 -10.030 -24.734  1.00  0.00    -0.238 N
HETATM    6  C11 UNL     1       1.937 -10.643 -24.411  1.00  0.00     0.144 A
HETATM    7  C18 UNL     1       1.634 -11.980 -23.987  1.00  0.00     0.040 A
ENDROOT
BRANCH   6   8
HETATM    8  N3  UNL     1       3.088 -10.236 -24.443  1.00  0.00    -0.292 N
HETATM    9  C12 UNL     1       4.008  -9.276 -24.451  1.00  0.00     0.327 C
HETATM   10  O1  UNL     1       3.809  -8.027 -24.343  1.00  0.00    -0.247 OA
HETATM   11  N4  UNL     1       5.435  -9.610 -24.595  1.00  0.00    -0.294 N
ATOM     12  H4  UNL     1       5.827  -9.882 -25.496  1.00  0.00     0.172 HD
ATOM     13  H3  UNL     1       3.641 -11.092 -24.489  1.00  0.00     0.172 HD
BRANCH  11  14
HETATM   14  C13 UNL     1       6.178  -9.546 -23.528  1.00  0.00     0.108 A
HETATM   15  C14 UNL     1       7.523  -9.843 -23.525  1.00  0.00     0.049 A
HETATM   16  C15 UNL     1       8.253  -9.752 -22.348  1.00  0.00     0.005 A
HETATM   17  C16 UNL     1       7.658  -9.365 -21.166  1.00  0.00     0.017 A
HETATM   18  C17 UNL     1       6.301  -9.074 -21.214  1.00  0.00     0.089 A
HETATM   19  N5  UNL     1       5.610  -9.170 -22.369  1.00  0.00    -0.352 N
ATOM     20  H5  UNL     1       4.615  -8.947 -22.363  1.00  0.00     0.166 HD
ENDBRANCH  11  14
ENDBRANCH   6   8
BRANCH   5  21
HETATM   21  C3  UNL     1       0.571  -8.700 -25.206  1.00  0.00     0.064 A
HETATM   22  C4  UNL     1       0.572  -7.608 -24.325  1.00  0.00     0.032 A
HETATM   23  C5  UNL     1       0.371  -6.331 -24.805  1.00  0.00     0.002 A
HETATM   24  C6  UNL     1       0.164  -6.101 -26.151  1.00  0.00     0.001 A
HETATM   25  C7  UNL     1       0.164  -7.178 -27.011  1.00  0.00     0.009 A
HETATM   26  C8  UNL     1       0.365  -8.462 -26.544  1.00  0.00    -0.030 A
BRANCH  26  27
HETATM   27  C9  UNL     1       0.369  -9.597 -27.475  1.00  0.00     0.036 C
HETATM   28  C10 UNL     1      -0.976 -10.133 -27.823  1.00  0.00     0.010 C
ENDBRANCH  26  27
ENDBRANCH   5  21
BRANCH   7  29
HETATM   29  C19 UNL     1       2.539 -12.844 -23.603  1.00  0.00     0.055 C
BRANCH  29  30
HETATM   30  C20 UNL     1       3.755 -13.265 -24.251  1.00  0.00     0.076 A
HETATM   31  C21 UNL     1       3.892 -14.449 -24.994  1.00  0.00     0.040 A
HETATM   32  C22 UNL     1       5.180 -14.467 -25.432  1.00  0.00     0.038 A
HETATM   33  C23 UNL     1       5.808 -13.333 -24.974  1.00  0.00     0.077 A
HETATM   34  O3  UNL     1       4.930 -12.676 -24.294  1.00  0.00    -0.313 OA
BRANCH  33  35
HETATM   35  C24 UNL     1       7.235 -13.014 -25.261  1.00  0.00     0.229 C
BRANCH  35  36
HETATM   36  O2  UNL     1       8.058 -13.330 -24.186  1.00  0.00    -0.394 OA
ATOM     37  H2  UNL     1       7.731 -14.079 -23.702  1.00  0.00     0.209 HD
ENDBRANCH  35  36
ENDBRANCH  33  35
ENDBRANCH  29  30
ENDBRANCH   7  29
TORSDOF 8
ENDMDL