MODEL 1
REMARK VINA RESULT: -10.850245634      0.000      0.000
REMARK  3 active torsions:
REMARK  status: ('A' for Active; 'I' for Inactive)
REMARK       I    between atoms: C1_2  and  N4_28
REMARK       I    between atoms: N2_3  and  C2_5
REMARK    1  A    between atoms: C2_5  and  C3_7
REMARK    2  A    between atoms: C8_12  and  N3_13
REMARK       I    between atoms: N3_13  and  C9_15
REMARK    3  A    between atoms: C9_15  and  C10_17
ROOT
HETATM    1  C3  UNL     1       0.663 -11.794 -25.058  1.00  0.00     0.101 C
HETATM    2  C4  UNL     1      -0.768 -12.307 -24.999  1.00  0.00     0.016 C
HETATM    3  C5  UNL     1      -1.367 -12.032 -23.623  1.00  0.00     0.001 C
HETATM    4  C6  UNL     1      -0.471 -12.605 -22.536  1.00  0.00     0.002 C
HETATM    5  C7  UNL     1       0.623 -13.476 -23.169  1.00  0.00     0.026 C
HETATM    6  C8  UNL     1       1.450 -12.505 -24.032  1.00  0.00     0.097 C
ENDROOT
BRANCH   6   7
HETATM    7  N3  UNL     1       2.630 -13.209 -24.540  1.00  0.00    -0.355 N
HETATM    8  C9  UNL     1       3.923 -12.706 -24.416  1.00  0.00     0.226 C
HETATM    9  O2  UNL     1       4.046 -11.580 -23.817  1.00  0.00    -0.273 OA
ATOM     10  H3  UNL     1       2.499 -14.107 -25.006  1.00  0.00     0.162 HD
BRANCH   8  11
HETATM   11  C10 UNL     1       5.188 -13.298 -24.887  1.00  0.00     0.042 C
HETATM   12  C11 UNL     1       6.392 -12.674 -24.220  1.00  0.00     0.024 C
HETATM   13  C12 UNL     1       7.646 -13.421 -24.453  1.00  0.00    -0.013 C
HETATM   14  C13 UNL     1       8.454 -12.926 -25.624  1.00  0.00     0.005 C
HETATM   15  C18 UNL     1       7.511 -14.914 -24.532  1.00  0.00     0.009 C
HETATM   16  C14 UNL     1       7.722 -12.748 -26.884  1.00  0.00     0.005 C
HETATM   17  C15 UNL     1       6.458 -13.507 -27.058  1.00  0.00    -0.013 C
HETATM   18  C16 UNL     1       6.564 -14.977 -26.800  1.00  0.00     0.009 C
HETATM   19  C20 UNL     1       5.301 -12.860 -26.357  1.00  0.00     0.024 C
HETATM   20  C17 UNL     1       6.371 -15.372 -25.368  1.00  0.00    -0.013 C
HETATM   21  C19 UNL     1       5.109 -14.780 -24.781  1.00  0.00     0.024 C
ENDBRANCH   8  11
ENDBRANCH   6   7
BRANCH   1  22
HETATM   22  C2  UNL     1       0.662 -10.335 -24.784  1.00  0.00     0.230 C
HETATM   23  N2  UNL     1       1.784  -9.766 -24.158  1.00  0.00    -0.301 N
HETATM   24  C1  UNL     1       1.875  -8.513 -23.908  1.00  0.00     0.193 C
ATOM     25  H2  UNL     1       2.557 -10.376 -23.893  1.00  0.00     0.171 HD
HETATM   26  N1  UNL     1       0.880  -7.582 -24.226  1.00  0.00    -0.063 NA
HETATM   27  N4  UNL     1       3.082  -8.094 -23.269  1.00  0.00    -0.351 N
HETATM   28  C21 UNL     1       3.212  -6.707 -22.901  1.00  0.00     0.151 C
HETATM   29  C24 UNL     1       4.174  -8.997 -22.976  1.00  0.00     0.151 C
HETATM   30  C22 UNL     1       4.542  -6.196 -23.392  1.00  0.00     0.187 C
HETATM   31  O3  UNL     1       5.534  -7.145 -23.444  1.00  0.00    -0.388 OA
HETATM   32  C23 UNL     1       5.371  -8.174 -22.536  1.00  0.00     0.187 C
HETATM   33  O1  UNL     1      -0.315  -9.640 -25.108  1.00  0.00    -0.273 OA
ENDBRANCH   1  22
TORSDOF 3
ENDMDL