MODEL 2
REMARK VINA RESULT: -10.090176191      0.199      1.312
REMARK  3 active torsions:
REMARK  status: ('A' for Active; 'I' for Inactive)
REMARK    1  A    between atoms: C4_5  and  N2_6
REMARK       I    between atoms: N2_6  and  C5_7
REMARK       I    between atoms: C5_7  and  N3_9
REMARK    2  A    between atoms: C6_10  and  C7_11
REMARK       I    between atoms: C7_11  and  N4_13
REMARK    3  A    between atoms: N4_13  and  C8_15
ROOT
HETATM    1  N2  UNL     1       1.256 -11.025 -24.974  1.00  0.00    -0.389 NA
HETATM    2  C5  UNL     1       1.743  -9.798 -25.257  1.00  0.00     0.392 C
HETATM    3  O1  UNL     1       1.248  -9.071 -26.208  1.00  0.00    -0.230 OA
HETATM    4  N3  UNL     1       2.849  -9.150 -24.559  1.00  0.00    -0.303 N
HETATM    5  C6  UNL     1       3.611  -9.737 -23.507  1.00  0.00     0.183 C
HETATM    6  C18 UNL     1       4.364  -8.636 -22.816  1.00  0.00     0.042 C
HETATM    7  C19 UNL     1       4.182  -7.440 -23.661  1.00  0.00     0.015 C
HETATM    8  C20 UNL     1       3.449  -6.283 -23.048  1.00  0.00    -0.008 C
HETATM    9  C21 UNL     1       2.098  -6.675 -22.494  1.00  0.00     0.005 C
HETATM   10  C22 UNL     1       1.220  -6.938 -23.731  1.00  0.00     0.007 C
HETATM   11  C23 UNL     1       2.189  -6.815 -24.857  1.00  0.00     0.009 C
HETATM   12  C24 UNL     1       2.976  -5.594 -24.354  1.00  0.00     0.011 C
HETATM   13  C25 UNL     1       3.297  -7.833 -24.821  1.00  0.00     0.099 C
ENDROOT
BRANCH   5  14
HETATM   14  C7  UNL     1       4.671 -10.660 -24.083  1.00  0.00     0.241 C
HETATM   15  O2  UNL     1       5.812 -10.239 -24.334  1.00  0.00    -0.271 OA
HETATM   16  N4  UNL     1       4.388 -12.019 -24.345  1.00  0.00    -0.350 N
ATOM     17  H4  UNL     1       3.446 -12.361 -24.155  1.00  0.00     0.163 HD
BRANCH  16  18
HETATM   18  C8  UNL     1       5.354 -12.943 -24.864  1.00  0.00     0.034 C
HETATM   19  C9  UNL     1       5.566 -12.571 -26.326  1.00  0.00     0.035 C
HETATM   20  C10 UNL     1       6.737 -13.369 -26.841  1.00  0.00    -0.012 C
HETATM   21  C11 UNL     1       7.995 -13.088 -26.088  1.00  0.00     0.009 C
HETATM   22  C15 UNL     1       6.451 -14.859 -26.741  1.00  0.00     0.009 C
HETATM   23  C12 UNL     1       7.759 -13.485 -24.646  1.00  0.00    -0.012 C
HETATM   24  C13 UNL     1       7.401 -14.944 -24.484  1.00  0.00     0.009 C
HETATM   25  C17 UNL     1       6.637 -12.681 -24.100  1.00  0.00     0.035 C
HETATM   26  C14 UNL     1       6.166 -15.202 -25.315  1.00  0.00    -0.012 C
HETATM   27  C16 UNL     1       4.974 -14.388 -24.839  1.00  0.00     0.035 C
ENDBRANCH  16  18
ENDBRANCH   5  14
BRANCH   1  28
HETATM   28  C4  UNL     1       0.749 -12.288 -24.690  1.00  0.00     0.198 C
HETATM   29  C3  UNL     1       1.450 -13.113 -23.691  1.00  0.00     0.071 C
HETATM   30  C2  UNL     1       0.458 -13.318 -22.571  1.00  0.00     0.275 C
HETATM   31  N1  UNL     1      -0.837 -13.296 -23.243  1.00  0.00     0.087 N
HETATM   32  C1  UNL     1      -1.870 -12.996 -22.307  1.00  0.00     0.310 C
HETATM   33  C26 UNL     1      -0.715 -12.277 -24.219  1.00  0.00     0.311 C
ENDBRANCH   1  28
TORSDOF 3
ENDMDL