MODEL 4
REMARK VINA RESULT: -6.976807946      3.187      4.226
REMARK  5 active torsions:
REMARK  status: ('A' for Active; 'I' for Inactive)
REMARK       I    between atoms: C1_2  and  N1_3
REMARK       I    between atoms: C1_2  and  N2_11
REMARK    1  A    between atoms: N1_3  and  C2_5
REMARK    2  A    between atoms: N3_18  and  C14_19
REMARK    3  A    between atoms: C14_19  and  N4_21
REMARK    4  A    between atoms: N4_21  and  C15_23
REMARK    5  A    between atoms: C19_27  and  N5_28
ROOT
HETATM    1  O1  UNL     1       3.425 -10.145 -24.485  1.00  0.00    -0.247 OA
HETATM    2  C1  UNL     1       2.431  -9.411 -24.222  1.00  0.00     0.318 C
HETATM    3  N1  UNL     1       1.136  -9.954 -24.385  1.00  0.00    -0.338 N
ATOM      4  H1  UNL     1       0.323  -9.375 -24.177  1.00  0.00     0.164 HD
HETATM    5  N2  UNL     1       2.640  -8.081 -23.777  1.00  0.00    -0.334 N
HETATM    6  C8  UNL     1       3.990  -7.598 -23.630  1.00  0.00     0.128 C
HETATM    7  C9  UNL     1       4.141  -6.646 -22.460  1.00  0.00     0.033 C
HETATM    8  C10 UNL     1       3.011  -5.690 -22.321  1.00  0.00     0.001 C
HETATM    9  C11 UNL     1       2.012  -5.816 -23.442  1.00  0.00     0.033 C
HETATM   10  C12 UNL     1       1.496  -7.235 -23.479  1.00  0.00     0.128 C
HETATM   11  C13 UNL     1       2.363  -5.869 -20.961  1.00  0.00     0.137 C
HETATM   12  N3  UNL     1       3.355  -5.207 -20.079  1.00  0.00    -0.355 N
HETATM   13  C18 UNL     1       4.192  -4.345 -20.878  1.00  0.00     0.151 C
HETATM   14  C19 UNL     1       3.425  -4.239 -22.169  1.00  0.00     0.111 C
ENDROOT
BRANCH  14  15
HETATM   15  N5  UNL     1       3.962  -3.591 -23.242  1.00  0.00    -0.386 N
HETATM   16  C20 UNL     1       3.316  -2.725 -24.096  1.00  0.00     0.058 C
HETATM   17  C21 UNL     1       4.246  -2.536 -25.276  1.00  0.00     0.046 C
HETATM   18  C22 UNL     1       5.232  -3.692 -25.157  1.00  0.00     0.025 C
HETATM   19  C23 UNL     1       5.299  -3.855 -23.645  1.00  0.00     0.123 C
ENDBRANCH  14  15
BRANCH  12  20
HETATM   20  C14 UNL     1       3.359  -5.472 -18.691  1.00  0.00     0.170 C
HETATM   21  S1  UNL     1       3.662  -7.030 -18.158  1.00  0.00    -0.041 SA
BRANCH  20  22
HETATM   22  N4  UNL     1       3.128  -4.537 -17.694  1.00  0.00    -0.362 N
ATOM     23  H4  UNL     1       3.956  -4.147 -17.242  1.00  0.00     0.162 HD
BRANCH  22  24
HETATM   24  C15 UNL     1       1.853  -4.049 -17.218  1.00  0.00     0.084 A
HETATM   25  C16 UNL     1       1.840  -3.005 -16.147  1.00  0.00     0.027 A
HETATM   26  C17 UNL     1       1.512  -4.424 -15.798  1.00  0.00     0.027 A
ENDBRANCH  22  24
ENDBRANCH  20  22
ENDBRANCH  12  20
BRANCH   3  27
HETATM   27  C2  UNL     1       0.942 -11.294 -24.835  1.00  0.00     0.086 C
HETATM   28  C3  UNL     1      -0.426 -11.414 -25.452  1.00  0.00     0.025 C
HETATM   29  C4  UNL     1      -1.517 -11.528 -24.408  1.00  0.00     0.002 C
HETATM   30  C5  UNL     1      -1.287 -12.614 -23.411  1.00  0.00     0.000 C
HETATM   31  C6  UNL     1       0.037 -13.296 -23.768  1.00  0.00     0.002 C
HETATM   32  C7  UNL     1       1.113 -12.230 -23.656  1.00  0.00     0.025 C
ENDBRANCH   3  27
TORSDOF 5
ENDMDL