MODEL 1
REMARK VINA RESULT: -9.617488384      0.000      0.000
REMARK  3 active torsions:
REMARK  status: ('A' for Active; 'I' for Inactive)
REMARK       I    between atoms: C3_3  and  N1_5
REMARK    1  A    between atoms: N1_5  and  C4_7
REMARK    2  A    between atoms: C6_9  and  N2_10
REMARK       I    between atoms: N2_10  and  C7_12
REMARK       I    between atoms: C7_12  and  N3_14
REMARK    3  A    between atoms: C10_17  and  N4_20
ROOT
HETATM    1  C1  UNL     1      13.089 -13.777 -25.772  1.00  0.00     0.022 C
HETATM    2  C2  UNL     1      11.912 -13.977 -25.913  1.00  0.00    -0.017 C
HETATM    3  C3  UNL     1      10.465 -14.228 -26.060  1.00  0.00     0.296 C
HETATM    4  O1  UNL     1      10.170 -15.281 -26.657  1.00  0.00    -0.258 OA
HETATM    5  N1  UNL     1       9.516 -13.352 -25.567  1.00  0.00    -0.340 N
ATOM      6  H1  UNL     1       9.931 -12.546 -25.099  1.00  0.00     0.164 HD
ENDROOT
BRANCH   5   7
HETATM    7  C4  UNL     1       8.090 -13.314 -25.561  1.00  0.00     0.043 C
HETATM    8  C5  UNL     1       7.656 -11.918 -25.236  1.00  0.00     0.057 C
HETATM    9  C6  UNL     1       6.589 -11.666 -24.268  1.00  0.00     0.088 C
HETATM   10  C20 UNL     1       5.178 -11.870 -24.832  1.00  0.00     0.030 C
HETATM   11  C21 UNL     1       5.279 -13.202 -25.572  1.00  0.00    -0.012 C
HETATM   12  C22 UNL     1       5.987 -12.987 -26.854  1.00  0.00     0.012 C
HETATM   13  C26 UNL     1       5.935 -14.126 -24.582  1.00  0.00     0.012 C
HETATM   14  C23 UNL     1       7.382 -13.634 -26.893  1.00  0.00     0.015 C
HETATM   15  C24 UNL     1       7.138 -15.023 -26.413  1.00  0.00     0.014 C
HETATM   16  C25 UNL     1       7.354 -14.452 -25.029  1.00  0.00     0.015 C
BRANCH   9  17
HETATM   17  N2  UNL     1       6.615 -10.209 -24.023  1.00  0.00    -0.338 N
HETATM   18  C7  UNL     1       5.747  -9.544 -23.150  1.00  0.00     0.318 C
HETATM   19  O2  UNL     1       4.881 -10.189 -22.523  1.00  0.00    -0.247 OA
HETATM   20  N3  UNL     1       5.843  -8.151 -22.976  1.00  0.00    -0.334 N
HETATM   21  C8  UNL     1       6.840  -7.366 -23.689  1.00  0.00     0.131 C
HETATM   22  C19 UNL     1       4.940  -7.481 -22.079  1.00  0.00     0.131 C
HETATM   23  C9  UNL     1       6.919  -6.011 -23.020  1.00  0.00     0.074 C
HETATM   24  C10 UNL     1       5.586  -5.305 -23.171  1.00  0.00     0.213 C
HETATM   25  C11 UNL     1       5.391  -5.093 -24.604  1.00  0.00    -0.146 C
HETATM   26  C18 UNL     1       4.474  -6.145 -22.644  1.00  0.00     0.074 C
HETATM   27  C12 UNL     1       5.229  -4.937 -25.808  1.00  0.00     0.099 C
ATOM     28  H2  UNL     1       7.310  -9.653 -24.521  1.00  0.00     0.164 HD
BRANCH  24  29
HETATM   29  N4  UNL     1       5.662  -4.005 -22.549  1.00  0.00     0.109 N
HETATM   30  C13 UNL     1       7.019  -3.705 -22.193  1.00  0.00     0.274 C
HETATM   31  C14 UNL     1       7.130  -2.183 -22.064  1.00  0.00     0.030 C
HETATM   32  C15 UNL     1       5.777  -1.575 -21.892  1.00  0.00     0.003 C
HETATM   33  C16 UNL     1       4.861  -2.381 -21.004  1.00  0.00     0.030 C
HETATM   34  C17 UNL     1       4.840  -3.848 -21.390  1.00  0.00     0.274 C
ENDBRANCH  24  29
ENDBRANCH   9  17
ENDBRANCH   5   7
TORSDOF 3
ENDMDL