MODEL 1
REMARK VINA RESULT: -8.389502450      0.000      0.000
REMARK  3 active torsions:
REMARK  status: ('A' for Active; 'I' for Inactive)
REMARK    1  A    between atoms: N1_5  and  C5_6
REMARK       I    between atoms: N2_9  and  C8_10
REMARK    2  A    between atoms: C8_10  and  C9_12
REMARK       I    between atoms: N3_15  and  C12_16
REMARK       I    between atoms: C12_16  and  N4_18
REMARK    3  A    between atoms: N4_18  and  C13_20
ROOT
HETATM    1  C9  UNL     1       5.554  -7.298 -23.456  1.00  0.00     0.081 C
HETATM    2  C10 UNL     1       4.780  -7.120 -22.173  1.00  0.00     0.034 C
HETATM    3  C11 UNL     1       4.010  -5.793 -22.238  1.00  0.00     0.128 C
HETATM    4  N3  UNL     1       4.991  -4.739 -22.072  1.00  0.00    -0.334 N
HETATM    5  C12 UNL     1       4.787  -3.524 -21.409  1.00  0.00     0.318 C
HETATM    6  O2  UNL     1       5.741  -2.699 -21.338  1.00  0.00    -0.247 OA
HETATM    7  N4  UNL     1       3.538  -3.214 -20.824  1.00  0.00    -0.338 N
ATOM      8  H4  UNL     1       2.764  -3.876 -20.879  1.00  0.00     0.164 HD
HETATM    9  C20 UNL     1       6.303  -5.038 -22.685  1.00  0.00     0.128 C
HETATM   10  C21 UNL     1       5.982  -5.915 -23.895  1.00  0.00     0.034 C
ENDROOT
BRANCH   1  11
HETATM   11  C8  UNL     1       6.721  -8.203 -23.281  1.00  0.00     0.224 C
HETATM   12  N2  UNL     1       6.607  -9.595 -23.115  1.00  0.00    -0.352 N
HETATM   13  C7  UNL     1       7.807 -10.385 -22.937  1.00  0.00     0.127 C
HETATM   14  C22 UNL     1       5.355 -10.326 -23.115  1.00  0.00     0.127 C
HETATM   15  C6  UNL     1       7.997 -11.173 -24.238  1.00  0.00     0.045 C
HETATM   16  C5  UNL     1       6.619 -11.538 -24.784  1.00  0.00     0.086 C
HETATM   17  C23 UNL     1       5.689 -11.728 -23.654  1.00  0.00     0.045 C
HETATM   18  O1  UNL     1       7.862  -7.666 -23.284  1.00  0.00    -0.273 OA
BRANCH  16  19
HETATM   19  N1  UNL     1       6.753 -12.585 -25.706  1.00  0.00    -0.388 N
HETATM   20  C4  UNL     1       7.828 -13.487 -25.500  1.00  0.00     0.123 C
HETATM   21  C3  UNL     1       7.547 -14.585 -26.506  1.00  0.00     0.029 C
HETATM   22  C2  UNL     1       6.041 -14.687 -26.440  1.00  0.00     0.021 C
HETATM   23  C1  UNL     1       5.607 -15.653 -25.345  1.00  0.00     0.015 C
HETATM   24  C24 UNL     1       5.607 -13.267 -26.138  1.00  0.00     0.063 C
ENDBRANCH  16  19
ENDBRANCH   1  11
BRANCH   7  25
HETATM   25  C13 UNL     1       3.370  -1.937 -20.142  1.00  0.00     0.093 C
HETATM   26  C14 UNL     1       1.959  -1.468 -20.414  1.00  0.00     0.058 C
HETATM   27  C15 UNL     1       1.121  -1.729 -19.200  1.00  0.00     0.188 C
HETATM   28  C16 UNL     1       1.539  -0.811 -18.069  1.00  0.00     0.033 C
HETATM   29  N5  UNL     1       1.372  -3.100 -18.784  1.00  0.00    -0.070 N
HETATM   30  C17 UNL     1       3.048  -0.818 -17.966  1.00  0.00     0.010 C
HETATM   31  C18 UNL     1       3.539  -2.086 -18.648  1.00  0.00     0.034 C
HETATM   32  C19 UNL     1       2.669  -3.224 -18.158  1.00  0.00     0.239 C
ATOM     33  H52 UNL     1       0.629  -3.453 -18.181  1.00  0.00     0.277 HD
ATOM     34  H51 UNL     1       1.265  -3.753 -19.560  1.00  0.00     0.277 HD
ENDBRANCH   7  25
TORSDOF 3
ENDMDL