MODEL 4
REMARK VINA RESULT: -9.320625912      3.105      9.540
REMARK  5 active torsions:
REMARK  status: ('A' for Active; 'I' for Inactive)
REMARK       I    between atoms: C1_2  and  N1_3
REMARK       I    between atoms: C1_2  and  N2_10
REMARK    1  A    between atoms: N1_3  and  C2_5
REMARK    2  A    between atoms: N3_13  and  C9_14
REMARK    3  A    between atoms: C9_14  and  O2_15
REMARK    4  A    between atoms: C9_14  and  C10_17
REMARK       I    between atoms: N4_21  and  C14_22
REMARK       I    between atoms: C14_22  and  N5_24
REMARK    5  A    between atoms: N5_24  and  C15_26
ROOT
HETATM    1  C9  UNL     1       4.842  -7.884 -20.717  1.00  0.00     0.119 C
ENDROOT
BRANCH   1   2
HETATM    2  N3  UNL     1       5.568  -8.789 -21.507  1.00  0.00    -0.362 N
HETATM    3  C8  UNL     1       4.905  -9.279 -22.720  1.00  0.00     0.144 C
HETATM    4  C7  UNL     1       5.513 -10.568 -23.232  1.00  0.00     0.147 C
HETATM    5  N2  UNL     1       6.964 -10.461 -23.269  1.00  0.00    -0.331 N
HETATM    6  C1  UNL     1       7.703 -11.381 -24.003  1.00  0.00     0.318 C
HETATM    7  C23 UNL     1       7.640  -9.400 -22.537  1.00  0.00     0.147 C
HETATM    8  O1  UNL     1       8.952 -11.310 -24.056  1.00  0.00    -0.247 OA
HETATM    9  N1  UNL     1       7.058 -12.422 -24.710  1.00  0.00    -0.338 N
ATOM     10  H1  UNL     1       6.041 -12.483 -24.670  1.00  0.00     0.164 HD
HETATM   11  C22 UNL     1       6.869  -9.251 -21.204  1.00  0.00     0.144 C
BRANCH   9  12
HETATM   12  C2  UNL     1       7.781 -13.407 -25.487  1.00  0.00     0.086 C
HETATM   13  C3  UNL     1       7.237 -13.533 -26.873  1.00  0.00     0.025 C
HETATM   14  C4  UNL     1       6.510 -14.846 -26.978  1.00  0.00     0.002 C
HETATM   15  C5  UNL     1       6.332 -15.264 -25.539  1.00  0.00     0.002 C
HETATM   16  C6  UNL     1       7.587 -14.790 -24.872  1.00  0.00     0.025 C
ENDBRANCH   9  12
ENDBRANCH   1   2
BRANCH   1  17
HETATM   17  O2  UNL     1       4.829  -8.083 -19.415  1.00  0.00    -0.349 OA
ATOM     18  H2  UNL     1       3.988  -8.059 -18.973  1.00  0.00     0.219 HD
ENDBRANCH   1  17
BRANCH   1  19
HETATM   19  C10 UNL     1       4.097  -6.737 -21.217  1.00  0.00     0.078 C
HETATM   20  C11 UNL     1       4.101  -5.517 -20.377  1.00  0.00     0.016 C
HETATM   21  C12 UNL     1       4.128  -4.257 -21.219  1.00  0.00     0.021 C
HETATM   22  C13 UNL     1       3.190  -4.291 -22.354  1.00  0.00     0.127 C
HETATM   23  N4  UNL     1       3.360  -5.498 -23.167  1.00  0.00    -0.333 N
HETATM   24  C14 UNL     1       2.603  -5.676 -24.342  1.00  0.00     0.318 C
HETATM   25  C21 UNL     1       4.323  -6.461 -22.684  1.00  0.00     0.140 C
HETATM   26  O3  UNL     1       1.760  -4.792 -24.649  1.00  0.00    -0.247 OA
HETATM   27  N5  UNL     1       2.756  -6.790 -25.175  1.00  0.00    -0.338 N
ATOM     28  H5  UNL     1       3.437  -7.514 -24.947  1.00  0.00     0.164 HD
BRANCH  27  29
HETATM   29  C15 UNL     1       1.922  -6.906 -26.385  1.00  0.00     0.086 C
HETATM   30  C16 UNL     1       2.696  -6.347 -27.594  1.00  0.00     0.025 C
HETATM   31  C17 UNL     1       1.701  -6.338 -28.739  1.00  0.00     0.002 C
HETATM   32  C18 UNL     1       0.516  -7.216 -28.453  1.00  0.00     0.000 C
HETATM   33  C19 UNL     1       0.853  -8.546 -27.857  1.00  0.00     0.002 C
HETATM   34  C20 UNL     1       1.747  -8.374 -26.671  1.00  0.00     0.025 C
ENDBRANCH  27  29
ENDBRANCH   1  19
TORSDOF 5
ENDMDL