MODEL 5
REMARK VINA RESULT: -7.440184974      3.757      5.718
REMARK  3 active torsions:
REMARK  status: ('A' for Active; 'I' for Inactive)
REMARK    1  A    between atoms: C1_2  and  C2_4
REMARK    2  A    between atoms: C11_13  and  N2_14
REMARK       I    between atoms: N2_14  and  C12_16
REMARK    3  A    between atoms: C12_16  and  C13_18
REMARK       I    between atoms: N3_22  and  C17_23
REMARK       I    between atoms: C17_23  and  N4_25
ROOT
HETATM    1  N2  UNL     1       2.449  -6.310 -26.001  1.00  0.00    -0.354 N
ATOM      2  H2  UNL     1       2.102  -6.073 -26.931  1.00  0.00     0.162 HD
HETATM    3  C12 UNL     1       2.507  -7.663 -25.581  1.00  0.00     0.241 C
HETATM    4  O2  UNL     1       2.933  -7.932 -24.436  1.00  0.00    -0.271 OA
ENDROOT
BRANCH   1   5
HETATM    5  C11 UNL     1       2.878  -5.288 -25.114  1.00  0.00     0.089 C
HETATM    6  C10 UNL     1       1.868  -4.836 -24.060  1.00  0.00     0.030 C
HETATM    7  C9  UNL     1       2.534  -3.456 -24.191  1.00  0.00    -0.006 C
HETATM    8  C8  UNL     1       1.636  -2.294 -24.071  1.00  0.00     0.011 C
HETATM    9  C23 UNL     1       2.886  -3.863 -25.598  1.00  0.00     0.014 C
HETATM   10  C7  UNL     1       1.688  -1.355 -25.279  1.00  0.00     0.003 C
HETATM   11  C2  UNL     1       1.285  -2.124 -26.499  1.00  0.00     0.042 C
HETATM   12  C6  UNL     1       2.935  -0.570 -25.361  1.00  0.00     0.006 C
HETATM   13  C3  UNL     1       1.491  -1.229 -27.706  1.00  0.00     0.019 C
HETATM   14  C24 UNL     1       1.917  -3.461 -26.632  1.00  0.00     0.026 C
HETATM   15  C4  UNL     1       2.863  -0.711 -27.872  1.00  0.00     0.001 C
HETATM   16  C5  UNL     1       3.664  -0.563 -26.639  1.00  0.00     0.000 C
BRANCH  11  17
HETATM   17  C1  UNL     1      -0.190  -2.322 -26.419  1.00  0.00     0.240 C
HETATM   18  N1  UNL     1      -1.111  -1.239 -26.360  1.00  0.00    -0.061 NA
HETATM   19  O1  UNL     1      -0.678  -3.478 -26.401  1.00  0.00    -0.276 OA
ENDBRANCH  11  17
ENDBRANCH   1   5
BRANCH   3  20
HETATM   20  C13 UNL     1       2.081  -8.797 -26.441  1.00  0.00     0.181 C
HETATM   21  C14 UNL     1       1.445  -8.279 -27.727  1.00  0.00     0.037 C
HETATM   22  C15 UNL     1      -0.008  -8.609 -27.662  1.00  0.00     0.022 C
HETATM   23  C16 UNL     1      -0.245  -8.790 -26.185  1.00  0.00     0.129 C
HETATM   24  N3  UNL     1       1.015  -9.547 -25.842  1.00  0.00    -0.321 N
HETATM   25  C17 UNL     1       0.927 -10.714 -25.083  1.00  0.00     0.321 C
HETATM   26  O3  UNL     1      -0.273 -11.063 -24.732  1.00  0.00    -0.247 OA
HETATM   27  N4  UNL     1       1.938 -11.559 -24.648  1.00  0.00    -0.334 N
HETATM   28  C18 UNL     1       1.538 -12.735 -23.851  1.00  0.00     0.127 C
HETATM   29  C22 UNL     1       3.329 -11.339 -24.936  1.00  0.00     0.127 C
HETATM   30  C19 UNL     1       2.227 -13.985 -24.323  1.00  0.00     0.020 C
HETATM   31  C20 UNL     1       3.666 -13.744 -24.698  1.00  0.00     0.003 C
HETATM   32  C21 UNL     1       4.104 -12.413 -24.150  1.00  0.00     0.020 C
ENDBRANCH   3  20
TORSDOF 3
ENDMDL