MODEL 1
REMARK VINA RESULT: -10.863749448      0.000      0.000
REMARK  8 active torsions:
REMARK  status: ('A' for Active; 'I' for Inactive)
REMARK    1  A    between atoms: O1_1  and  C1_3
REMARK    2  A    between atoms: C1_3  and  C2_4
REMARK    3  A    between atoms: C1_3  and  N1_12
REMARK    4  A    between atoms: C3_5  and  C4_6
REMARK    5  A    between atoms: N2_15  and  C12_16
REMARK    6  A    between atoms: C12_16  and  N3_18
REMARK    7  A    between atoms: N3_18  and  C13_19
REMARK    8  A    between atoms: N5_25  and  C17_27
ROOT
HETATM    1  C12 UNL     1       3.478  -6.807 -22.420  1.00  0.00     0.230 C
HETATM    2  S1  UNL     1       3.240  -5.553 -21.184  1.00  0.00     0.003 SA
ENDROOT
BRANCH   1   3
HETATM    3  N2  UNL     1       4.707  -7.527 -22.196  1.00  0.00    -0.332 N
HETATM    4  C11 UNL     1       4.873  -8.420 -21.107  1.00  0.00     0.147 C
HETATM    5  C10 UNL     1       6.206  -9.044 -21.280  1.00  0.00     0.146 C
HETATM    6  N1  UNL     1       6.454  -8.870 -22.723  1.00  0.00    -0.344 N
HETATM    7  C23 UNL     1       5.884  -7.559 -23.010  1.00  0.00     0.254 C
BRANCH   6   8
HETATM    8  C1  UNL     1       6.962  -9.875 -23.501  1.00  0.00     0.139 C
BRANCH   8   9
HETATM    9  O1  UNL     1       8.207  -9.580 -23.945  1.00  0.00    -0.346 OA
ATOM     10  H1  UNL     1       8.283  -9.835 -24.857  1.00  0.00     0.219 HD
ENDBRANCH   8   9
BRANCH   8  11
HETATM   11  C2  UNL     1       6.575 -11.162 -24.003  1.00  0.00     0.056 C
HETATM   12  C3  UNL     1       5.432 -11.786 -23.971  1.00  0.00     0.015 C
BRANCH  12  13
HETATM   13  C4  UNL     1       5.350 -13.174 -24.600  1.00  0.00    -0.036 A
HETATM   14  C5  UNL     1       4.130 -13.688 -24.834  1.00  0.00     0.011 A
HETATM   15  C6  UNL     1       4.092 -14.991 -25.289  1.00  0.00     0.001 A
HETATM   16  C7  UNL     1       5.252 -15.715 -25.489  1.00  0.00     0.000 A
HETATM   17  C8  UNL     1       6.530 -15.141 -25.224  1.00  0.00     0.001 A
HETATM   18  C9  UNL     1       6.561 -13.858 -24.779  1.00  0.00     0.011 A
ENDBRANCH  12  13
ENDBRANCH   8  11
ENDBRANCH   6   8
ENDBRANCH   1   3
BRANCH   1  19
HETATM   19  N3  UNL     1       2.560  -6.890 -23.195  1.00  0.00    -0.365 NA
BRANCH  19  20
HETATM   20  C13 UNL     1       1.566  -6.976 -24.064  1.00  0.00     0.178 A
HETATM   21  C14 UNL     1       1.475  -5.773 -24.739  1.00  0.00     0.138 A
HETATM   22  C15 UNL     1       0.386  -6.249 -25.862  1.00  0.00     0.087 A
HETATM   23  N4  UNL     1      -0.121  -7.385 -25.953  1.00  0.00    -0.205 N
HETATM   24  C16 UNL     1       0.159  -8.451 -25.105  1.00  0.00     0.684 A
ATOM     25  H4  UNL     1      -0.792  -7.544 -26.705  1.00  0.00     0.183 HD
HETATM   26  N5  UNL     1      -0.314  -9.568 -25.230  1.00  0.00    -0.192 N
HETATM   27  N6  UNL     1       1.037  -8.117 -24.174  1.00  0.00    -0.167 N
ATOM     28  H5  UNL     1      -0.954  -9.569 -26.024  1.00  0.00     0.184 HD
ATOM     29  H6  UNL     1       1.306  -8.831 -23.497  1.00  0.00     0.186 HD
BRANCH  26  30
HETATM   30  C17 UNL     1      -0.289 -10.817 -24.683  1.00  0.00     0.049 A
HETATM   31  C18 UNL     1       1.055 -11.277 -24.403  1.00  0.00     0.030 A
HETATM   32  C19 UNL     1       1.199 -12.421 -23.685  1.00  0.00     0.002 A
HETATM   33  C20 UNL     1       0.163 -13.175 -23.217  1.00  0.00     0.000 A
HETATM   34  C21 UNL     1      -1.115 -12.755 -23.489  1.00  0.00     0.002 A
HETATM   35  C22 UNL     1      -1.317 -11.570 -24.230  1.00  0.00     0.030 A
ENDBRANCH  26  30
ENDBRANCH  19  20
ENDBRANCH   1  19
TORSDOF 8
ENDMDL