MODEL 3
REMARK VINA RESULT: -8.980367905      2.184      3.434
REMARK  6 active torsions:
REMARK  status: ('A' for Active; 'I' for Inactive)
REMARK       I    between atoms: N1_2  and  C2_4
REMARK    1  A    between atoms: C2_4  and  C3_6
REMARK    2  A    between atoms: N2_10  and  C7_11
REMARK    3  A    between atoms: C7_11  and  O2_12
REMARK    4  A    between atoms: C7_11  and  N3_14
REMARK    5  A    between atoms: C10_17  and  C11_18
REMARK       I    between atoms: C11_18  and  N4_20
REMARK    6  A    between atoms: N4_20  and  C12_22
ROOT
HETATM    1  N3  UNL     1       4.164  -7.384 -22.382  1.00  0.00    -0.347 N
HETATM    2  C8  UNL     1       3.948  -7.760 -23.747  1.00  0.00     0.127 C
HETATM    3  C9  UNL     1       4.464  -9.229 -23.828  1.00  0.00     0.034 C
HETATM    4  C10 UNL     1       5.973  -9.100 -23.653  1.00  0.00     0.081 C
HETATM    5  C22 UNL     1       6.182  -8.812 -22.187  1.00  0.00     0.034 C
HETATM    6  C23 UNL     1       4.993  -8.240 -21.512  1.00  0.00     0.127 C
ENDROOT
BRANCH   1   7
HETATM    7  C7  UNL     1       3.626  -6.231 -21.809  1.00  0.00     0.217 C
BRANCH   7   8
HETATM    8  N2  UNL     1       4.247  -5.047 -21.410  1.00  0.00    -0.347 N
HETATM    9  C6  UNL     1       3.749  -4.156 -20.414  1.00  0.00     0.126 C
HETATM   10  C5  UNL     1       4.486  -2.796 -20.530  1.00  0.00     0.021 C
HETATM   11  C4  UNL     1       4.538  -2.472 -22.005  1.00  0.00     0.017 C
HETATM   12  C3  UNL     1       5.574  -3.355 -22.649  1.00  0.00     0.096 C
HETATM   13  C24 UNL     1       5.525  -4.721 -22.082  1.00  0.00     0.140 C
BRANCH  12  14
HETATM   14  C2  UNL     1       6.919  -2.754 -22.319  1.00  0.00     0.223 C
HETATM   15  N1  UNL     1       7.940  -3.552 -21.779  1.00  0.00    -0.365 N
HETATM   16  C1  UNL     1       9.226  -2.970 -21.465  1.00  0.00     0.149 C
ATOM     17  H1  UNL     1       7.774  -4.544 -21.608  1.00  0.00     0.161 HD
HETATM   18  O1  UNL     1       7.136  -1.531 -22.523  1.00  0.00    -0.273 OA
ENDBRANCH  12  14
ENDBRANCH   7   8
BRANCH   7  19
HETATM   19  O2  UNL     1       2.322  -6.308 -21.629  1.00  0.00    -0.333 OA
ATOM     20  H2  UNL     1       1.774  -5.889 -22.282  1.00  0.00     0.220 HD
ENDBRANCH   7  19
ENDBRANCH   1   7
BRANCH   4  21
HETATM   21  C11 UNL     1       6.549 -10.425 -23.991  1.00  0.00     0.222 C
HETATM   22  O3  UNL     1       7.711 -10.650 -23.555  1.00  0.00    -0.273 OA
HETATM   23  N4  UNL     1       5.818 -11.369 -24.760  1.00  0.00    -0.351 N
ATOM     24  H4  UNL     1       4.883 -11.109 -25.074  1.00  0.00     0.163 HD
BRANCH  23  25
HETATM   25  C12 UNL     1       6.312 -12.656 -25.121  1.00  0.00     0.034 C
HETATM   26  C13 UNL     1       6.949 -13.396 -23.965  1.00  0.00     0.035 C
HETATM   27  C14 UNL     1       7.411 -14.746 -24.466  1.00  0.00    -0.012 C
HETATM   28  C15 UNL     1       8.430 -14.546 -25.554  1.00  0.00     0.009 C
HETATM   29  C19 UNL     1       6.251 -15.603 -24.919  1.00  0.00     0.009 C
HETATM   30  C16 UNL     1       7.727 -13.906 -26.727  1.00  0.00    -0.012 C
HETATM   31  C17 UNL     1       6.552 -14.699 -27.202  1.00  0.00     0.009 C
HETATM   32  C21 UNL     1       7.283 -12.528 -26.282  1.00  0.00     0.035 C
HETATM   33  C18 UNL     1       5.578 -14.875 -26.059  1.00  0.00    -0.012 C
HETATM   34  C20 UNL     1       5.159 -13.529 -25.585  1.00  0.00     0.035 C
ENDBRANCH  23  25
ENDBRANCH   4  21
TORSDOF 6
ENDMDL