MODEL 4
REMARK VINA RESULT: -10.127278452      0.453      1.725
REMARK  3 active torsions:
REMARK  status: ('A' for Active; 'I' for Inactive)
REMARK    1  A    between atoms: C3_5  and  C4_6
REMARK    2  A    between atoms: C4_6  and  C5_7
REMARK       I    between atoms: N1_13  and  C11_14
REMARK       I    between atoms: C11_14  and  N2_16
REMARK    3  A    between atoms: N2_16  and  C12_18
ROOT
HETATM    1  O1  UNL     1      -1.067 -11.869 -25.706  1.00  0.00    -0.272 OA
HETATM    2  C1  UNL     1      -0.313 -12.004 -24.681  1.00  0.00     0.238 C
HETATM    3  C2  UNL     1      -0.784 -12.621 -23.414  1.00  0.00     0.179 C
HETATM    4  S1  UNL     1       0.795 -13.155 -22.694  1.00  0.00    -0.134 SA
HETATM    5  C3  UNL     1       1.868 -12.680 -24.109  1.00  0.00     0.160 C
HETATM    6  N1  UNL     1       1.064 -11.587 -24.619  1.00  0.00    -0.255 N
HETATM    7  C11 UNL     1       1.501 -10.283 -25.036  1.00  0.00     0.326 C
HETATM    8  O2  UNL     1       2.735  -9.985 -24.978  1.00  0.00    -0.247 OA
HETATM    9  N2  UNL     1       0.621  -9.279 -25.523  1.00  0.00    -0.333 N
ATOM     10  H2  UNL     1      -0.369  -9.520 -25.564  1.00  0.00     0.165 HD
ENDROOT
BRANCH   9  11
HETATM   11  C12 UNL     1       0.978  -7.970 -25.958  1.00  0.00     0.035 C
HETATM   12  C13 UNL     1       2.188  -8.018 -26.838  1.00  0.00     0.035 C
HETATM   13  C14 UNL     1       2.461  -6.646 -27.437  1.00  0.00    -0.012 C
HETATM   14  C15 UNL     1       2.725  -5.656 -26.321  1.00  0.00     0.009 C
HETATM   15  C19 UNL     1       1.310  -6.151 -28.258  1.00  0.00     0.009 C
HETATM   16  C16 UNL     1       1.532  -5.652 -25.397  1.00  0.00    -0.012 C
HETATM   17  C17 UNL     1       0.353  -5.133 -26.169  1.00  0.00     0.009 C
HETATM   18  C21 UNL     1       1.255  -7.027 -24.811  1.00  0.00     0.035 C
HETATM   19  C18 UNL     1       0.105  -6.059 -27.335  1.00  0.00    -0.012 C
HETATM   20  C20 UNL     1      -0.166  -7.439 -26.828  1.00  0.00     0.035 C
ENDBRANCH   9  11
BRANCH   5  21
HETATM   21  C4  UNL     1       3.228 -12.283 -23.709  1.00  0.00     0.041 C
BRANCH  21  22
HETATM   22  C5  UNL     1       4.327 -13.144 -24.262  1.00  0.00    -0.012 C
HETATM   23  C6  UNL     1       3.919 -14.251 -25.158  1.00  0.00     0.005 C
HETATM   24  C7  UNL     1       5.042 -15.308 -25.070  1.00  0.00     0.000 C
HETATM   25  C8  UNL     1       6.378 -14.646 -24.973  1.00  0.00     0.000 C
HETATM   26  C9  UNL     1       6.393 -13.261 -25.568  1.00  0.00     0.000 C
HETATM   27  C10 UNL     1       5.397 -12.332 -24.953  1.00  0.00     0.005 C
ENDBRANCH  21  22
ENDBRANCH   5  21
TORSDOF 3
ENDMDL