MODEL 3
REMARK VINA RESULT: -6.967701494      0.886      1.820
REMARK  4 active torsions:
REMARK  status: ('A' for Active; 'I' for Inactive)
REMARK    1  A    between atoms: C2_2  and  C3_3
REMARK    2  A    between atoms: C3_3  and  O1_4
REMARK    3  A    between atoms: C8_10  and  N1_11
REMARK    4  A    between atoms: N2_20  and  C17_21
ROOT
HETATM    1  C3  UNL     1       1.272  -7.430 -28.857  1.00  0.00     0.079 C
HETATM    2  C4  UNL     1       0.351  -6.486 -28.195  1.00  0.00     0.067 C
HETATM    3  C5  UNL     1       0.798  -5.899 -26.867  1.00  0.00     0.083 C
HETATM    4  C6  UNL     1      -0.040  -6.338 -25.721  1.00  0.00     0.027 C
HETATM    5  C7  UNL     1      -0.034  -7.803 -25.433  1.00  0.00     0.038 C
HETATM    6  C8  UNL     1       1.283  -8.386 -25.108  1.00  0.00     0.225 C
HETATM    7  C14 UNL     1       2.300  -8.479 -26.179  1.00  0.00     0.060 C
HETATM    8  C15 UNL     1       2.779  -7.267 -26.850  1.00  0.00     0.085 C
HETATM    9  C16 UNL     1       2.680  -7.480 -28.349  1.00  0.00     0.067 C
HETATM   10  N2  UNL     1       2.142  -6.025 -26.575  1.00  0.00    -0.399 N
ENDROOT
BRANCH  10  11
HETATM   11  C17 UNL     1       2.934  -5.012 -26.043  1.00  0.00     0.080 C
HETATM   12  C18 UNL     1       4.007  -5.381 -25.071  1.00  0.00     0.029 C
HETATM   13  C19 UNL     1       4.847  -4.160 -24.741  1.00  0.00    -0.012 C
HETATM   14  C20 UNL     1       6.128  -4.067 -25.495  1.00  0.00     0.005 C
HETATM   15  C24 UNL     1       4.058  -2.882 -24.924  1.00  0.00     0.009 C
HETATM   16  C21 UNL     1       6.343  -2.855 -26.326  1.00  0.00     0.001 C
HETATM   17  C22 UNL     1       5.152  -2.289 -27.014  1.00  0.00     0.005 C
HETATM   18  C23 UNL     1       3.825  -2.710 -26.390  1.00  0.00    -0.012 C
HETATM   19  C25 UNL     1       3.493  -4.043 -27.047  1.00  0.00     0.029 C
ENDBRANCH  10  11
BRANCH   1  20
HETATM   20  C2  UNL     1       1.386  -7.163 -30.327  1.00  0.00     0.000 C
HETATM   21  C1  UNL     1       2.446  -6.452 -30.712  1.00  0.00     0.010 C
ENDBRANCH   1  20
BRANCH   1  22
HETATM   22  O1  UNL     1       0.666  -8.718 -28.822  1.00  0.00    -0.386 OA
ATOM     23  H1  UNL     1      -0.252  -8.511 -28.696  1.00  0.00     0.211 HD
ENDBRANCH   1  22
BRANCH   6  24
HETATM   24  N1  UNL     1       1.152  -9.740 -24.561  1.00  0.00     0.093 N
HETATM   25  C9  UNL     1       0.144 -10.470 -25.330  1.00  0.00     0.273 C
HETATM   26  C10 UNL     1      -0.105 -11.832 -24.783  1.00  0.00     0.030 C
HETATM   27  C11 UNL     1       0.759 -12.021 -23.541  1.00  0.00     0.003 C
HETATM   28  C12 UNL     1       2.187 -11.818 -23.986  1.00  0.00     0.030 C
HETATM   29  C13 UNL     1       2.387 -10.496 -24.678  1.00  0.00     0.273 C
ENDBRANCH   6  24
TORSDOF 4
ENDMDL