MODEL 4
REMARK VINA RESULT: -9.261681587      2.847      6.784
REMARK  4 active torsions:
REMARK  status: ('A' for Active; 'I' for Inactive)
REMARK    1  A    between atoms: C2_2  and  C3_4
REMARK    2  A    between atoms: C6_7  and  N1_8
REMARK       I    between atoms: N1_8  and  C7_10
REMARK    3  A    between atoms: C7_10  and  C8_12
REMARK    4  A    between atoms: C13_17  and  C14_18
ROOT
HETATM    1  N1  UNL     1       4.500 -12.116 -24.322  1.00  0.00    -0.348 N
ATOM      2  H1  UNL     1       3.567 -12.381 -24.006  1.00  0.00     0.163 HD
HETATM    3  C7  UNL     1       4.924 -10.789 -24.084  1.00  0.00     0.223 C
HETATM    4  O2  UNL     1       6.074 -10.482 -24.478  1.00  0.00    -0.273 OA
ENDROOT
BRANCH   1   5
HETATM    5  C6  UNL     1       5.300 -13.122 -24.984  1.00  0.00     0.056 C
HETATM    6  C5  UNL     1       5.565 -12.746 -26.397  1.00  0.00     0.004 C
HETATM    7  C4  UNL     1       6.819 -13.005 -26.720  1.00  0.00     0.020 C
HETATM    8  C3  UNL     1       7.534 -13.582 -25.561  1.00  0.00     0.176 C
HETATM    9  O4  UNL     1       7.672 -14.947 -25.637  1.00  0.00    -0.217 OA
HETATM   10  C22 UNL     1       6.660 -13.226 -24.370  1.00  0.00     0.089 C
HETATM   11  O3  UNL     1       6.799 -15.539 -24.849  1.00  0.00    -0.239 OA
HETATM   12  C21 UNL     1       5.566 -15.521 -25.489  1.00  0.00     0.212 C
HETATM   13  C20 UNL     1       4.653 -14.498 -24.877  1.00  0.00     0.064 C
BRANCH   8  14
HETATM   14  C2  UNL     1       8.837 -12.901 -25.400  1.00  0.00     0.164 C
HETATM   15  C1  UNL     1       9.897 -13.031 -26.440  1.00  0.00     0.095 C
HETATM   16  O1  UNL     1       9.009 -12.230 -24.388  1.00  0.00    -0.295 OA
ENDBRANCH   8  14
ENDBRANCH   1   5
BRANCH   3  17
HETATM   17  C8  UNL     1       4.062  -9.820 -23.408  1.00  0.00     0.082 C
HETATM   18  C9  UNL     1       4.740  -9.098 -22.274  1.00  0.00     0.014 C
HETATM   19  C10 UNL     1       5.017  -7.658 -22.550  1.00  0.00     0.001 C
HETATM   20  C11 UNL     1       3.815  -6.859 -22.949  1.00  0.00     0.000 C
HETATM   21  C12 UNL     1       2.737  -7.800 -23.450  1.00  0.00     0.006 C
HETATM   22  C13 UNL     1       3.437  -8.809 -24.335  1.00  0.00     0.003 C
BRANCH  22  23
HETATM   23  C14 UNL     1       2.477  -9.427 -25.315  1.00  0.00    -0.010 C
HETATM   24  C15 UNL     1       1.416 -10.264 -24.686  1.00  0.00     0.005 C
HETATM   25  C16 UNL     1       0.051 -10.051 -25.299  1.00  0.00     0.000 C
HETATM   26  C17 UNL     1       0.096  -9.956 -26.800  1.00  0.00     0.000 C
HETATM   27  C18 UNL     1       1.102  -8.983 -27.318  1.00  0.00     0.000 C
HETATM   28  C19 UNL     1       1.905  -8.334 -26.192  1.00  0.00     0.005 C
ENDBRANCH  22  23
ENDBRANCH   3  17
TORSDOF 4
ENDMDL