MODEL 5
REMARK VINA RESULT: -8.720764591      2.506      6.387
REMARK  8 active torsions:
REMARK  status: ('A' for Active; 'I' for Inactive)
REMARK    1  A    between atoms: C2_2  and  C3_3
REMARK    2  A    between atoms: C2_2  and  C15_15
REMARK    3  A    between atoms: C3_3  and  C4_4
REMARK    4  A    between atoms: C5_5  and  C6_6
REMARK    5  A    between atoms: C6_6  and  C7_7
REMARK    6  A    between atoms: C8_8  and  C9_9
REMARK    7  A    between atoms: C9_9  and  C12_12
REMARK    8  A    between atoms: C16_16  and  O1_17
ROOT
HETATM    1  C12 UNL     1       1.959  -8.854 -26.012  1.00  0.00    -0.094 C
HETATM    2  C13 UNL     1       2.193  -8.524 -27.159  1.00  0.00    -0.110 C
HETATM    3  C14 UNL     1       2.459  -8.094 -28.524  1.00  0.00     0.112 C
ENDROOT
BRANCH   1   4
HETATM    4  C9  UNL     1       1.663  -9.227 -24.614  1.00  0.00     0.034 C
HETATM    5  C10 UNL     1       1.137  -7.984 -23.911  1.00  0.00     0.033 C
HETATM    6  C11 UNL     1       0.531 -10.248 -24.682  1.00  0.00     0.033 C
BRANCH   4   7
HETATM    7  C8  UNL     1       2.819  -9.775 -23.917  1.00  0.00    -0.008 C
HETATM    8  C7  UNL     1       3.212 -10.960 -23.618  1.00  0.00    -0.017 C
BRANCH   8   9
HETATM    9  C6  UNL     1       2.478 -12.204 -23.974  1.00  0.00     0.120 C
BRANCH   9  10
HETATM   10  C5  UNL     1       3.504 -13.211 -24.443  1.00  0.00    -0.103 C
HETATM   11  C4  UNL     1       4.288 -14.051 -24.791  1.00  0.00    -0.102 C
BRANCH  11  12
HETATM   12  C3  UNL     1       5.206 -15.120 -25.175  1.00  0.00     0.129 C
BRANCH  12  13
HETATM   13  C2  UNL     1       6.417 -14.566 -25.823  1.00  0.00    -0.053 C
HETATM   14  C1  UNL     1       6.401 -14.380 -27.113  1.00  0.00     0.017 C
BRANCH  13  15
HETATM   15  C15 UNL     1       7.581 -14.332 -24.995  1.00  0.00     0.140 C
HETATM   16  C16 UNL     1       8.794 -14.493 -25.964  1.00  0.00     0.149 C
HETATM   17  C17 UNL     1       9.037 -13.021 -26.388  1.00  0.00     0.087 C
HETATM   18  C18 UNL     1       8.779 -12.336 -25.095  1.00  0.00     0.223 C
HETATM   19  O2  UNL     1       8.052 -11.151 -25.174  1.00  0.00    -0.354 OA
HETATM   20  N1  UNL     1       7.864 -13.176 -24.350  1.00  0.00    -0.374 N
HETATM   21  C19 UNL     1       7.576 -10.973 -23.857  1.00  0.00     0.079 C
HETATM   22  C20 UNL     1       6.484  -9.978 -23.744  1.00  0.00     0.040 C
HETATM   23  C23 UNL     1       8.692 -10.547 -22.955  1.00  0.00     0.040 C
HETATM   24  C24 UNL     1       7.095 -12.399 -23.527  1.00  0.00     0.158 C
HETATM   25  C21 UNL     1       7.008  -8.885 -22.849  1.00  0.00     0.003 C
HETATM   26  C22 UNL     1       8.233  -9.386 -22.136  1.00  0.00     0.003 C
BRANCH  16  27
HETATM   27  O1  UNL     1       9.862 -14.928 -25.195  1.00  0.00    -0.393 OA
ATOM     28  H1  UNL     1      10.473 -15.347 -25.790  1.00  0.00     0.210 HD
ENDBRANCH  16  27
ENDBRANCH  13  15
ENDBRANCH  12  13
ENDBRANCH  11  12
ENDBRANCH   9  10
ENDBRANCH   8   9
ENDBRANCH   4   7
ENDBRANCH   1   4
TORSDOF 8
ENDMDL