MODEL 2
REMARK VINA RESULT: -10.189305649      1.860      4.307
REMARK  5 active torsions:
REMARK  status: ('A' for Active; 'I' for Inactive)
REMARK    1  A    between atoms: C2_2  and  O1_3
REMARK    2  A    between atoms: C7_9  and  O2_10
REMARK    3  A    between atoms: O2_10  and  C8_11
REMARK    4  A    between atoms: C8_11  and  C9_13
REMARK    5  A    between atoms: C10_14  and  C11_15
ROOT
HETATM    1  C1  UNL     1       7.599 -13.895 -26.430  1.00  0.00     0.046 C
HETATM    2  C2  UNL     1       7.065 -14.194 -25.085  1.00  0.00     0.059 C
HETATM    3  C3  UNL     1       5.943 -15.231 -25.235  1.00  0.00     0.038 C
HETATM    4  C4  UNL     1       4.667 -14.540 -24.866  1.00  0.00     0.008 C
HETATM    5  C5  UNL     1       5.006 -13.088 -24.971  1.00  0.00    -0.005 C
HETATM    6  C6  UNL     1       4.179 -12.207 -24.055  1.00  0.00     0.038 C
HETATM    7  C7  UNL     1       4.729 -10.804 -24.209  1.00  0.00     0.141 C
HETATM    8  C17 UNL     1       6.151 -10.772 -23.687  1.00  0.00    -0.009 C
HETATM    9  C18 UNL     1       6.263 -10.946 -22.223  1.00  0.00     0.013 C
HETATM   10  C19 UNL     1       7.610 -10.309 -21.888  1.00  0.00     0.005 C
HETATM   11  C20 UNL     1       7.993  -9.469 -23.067  1.00  0.00    -0.014 C
HETATM   12  C21 UNL     1       8.948 -10.281 -23.920  1.00  0.00     0.005 C
HETATM   13  C22 UNL     1       8.444 -11.667 -24.155  1.00  0.00     0.006 C
HETATM   14  C23 UNL     1       6.990 -11.747 -24.491  1.00  0.00     0.004 C
HETATM   15  C24 UNL     1       6.416 -13.094 -24.361  1.00  0.00     0.029 C
HETATM   16  C25 UNL     1       6.700  -9.354 -23.887  1.00  0.00     0.017 C
ENDROOT
BRANCH   7  17
HETATM   17  O2  UNL     1       3.923  -9.820 -23.663  1.00  0.00    -0.312 OA
BRANCH  17  18
HETATM   18  C8  UNL     1       3.079  -9.029 -24.442  1.00  0.00     0.283 C
HETATM   19  O3  UNL     1       3.085  -7.823 -24.164  1.00  0.00    -0.260 OA
BRANCH  18  20
HETATM   20  C9  UNL     1       2.254  -9.561 -25.497  1.00  0.00     0.078 C
HETATM   21  C10 UNL     1       1.190 -10.289 -25.389  1.00  0.00    -0.015 C
BRANCH  21  22
HETATM   22  C11 UNL     1       0.581 -10.742 -24.143  1.00  0.00     0.017 A
HETATM   23  C12 UNL     1      -0.781 -11.486 -24.265  1.00  0.00     0.019 A
HETATM   24  C13 UNL     1       0.434 -12.162 -23.906  1.00  0.00    -0.033 A
HETATM   25  C14 UNL     1       1.110 -13.231 -24.702  1.00  0.00     0.010 C
HETATM   26  C16 UNL     1       0.724 -12.862 -22.634  1.00  0.00     0.010 C
HETATM   27  C15 UNL     1       1.004 -14.122 -23.458  1.00  0.00     0.002 C
ENDBRANCH  21  22
ENDBRANCH  18  20
ENDBRANCH  17  18
ENDBRANCH   7  17
BRANCH   2  28
HETATM   28  O1  UNL     1       8.043 -14.773 -24.244  1.00  0.00    -0.390 OA
ATOM     29  H1  UNL     1       7.854 -14.627 -23.325  1.00  0.00     0.210 HD
ENDBRANCH   2  28
TORSDOF 5
ENDMDL