MODEL 5
REMARK VINA RESULT: -8.775642388      1.182      1.417
REMARK  3 active torsions:
REMARK  status: ('A' for Active; 'I' for Inactive)
REMARK    1  A    between atoms: N1_7  and  C6_9
REMARK    2  A    between atoms: C9_12  and  C10_13
REMARK       I    between atoms: C10_13  and  N2_15
REMARK    3  A    between atoms: N2_15  and  C11_17
ROOT
HETATM    1  C6  UNL     1       1.969  -7.296 -25.538  1.00  0.00     0.081 C
HETATM    2  C7  UNL     1       1.457  -7.661 -24.167  1.00  0.00     0.026 C
HETATM    3  C8  UNL     1       2.160  -8.884 -23.615  1.00  0.00     0.016 C
HETATM    4  C9  UNL     1       2.199 -10.014 -24.596  1.00  0.00     0.078 C
HETATM    5  C22 UNL     1       2.684  -9.586 -25.954  1.00  0.00     0.016 C
HETATM    6  C23 UNL     1       1.740  -8.507 -26.446  1.00  0.00     0.026 C
ENDROOT
BRANCH   4   7
HETATM    7  C10 UNL     1       3.115 -11.059 -24.077  1.00  0.00     0.222 C
HETATM    8  O2  UNL     1       2.946 -11.556 -22.927  1.00  0.00    -0.273 OA
HETATM    9  N2  UNL     1       4.185 -11.481 -24.912  1.00  0.00    -0.356 N
ATOM     10  H2  UNL     1       4.303 -11.067 -25.838  1.00  0.00     0.162 HD
BRANCH   9  11
HETATM   11  C11 UNL     1       5.111 -12.500 -24.449  1.00  0.00     0.088 C
HETATM   12  C12 UNL     1       6.356 -11.856 -24.021  1.00  0.00     0.030 C
HETATM   13  C13 UNL     1       7.642 -12.497 -24.404  1.00  0.00    -0.012 C
HETATM   14  C14 UNL     1       7.753 -13.937 -24.002  1.00  0.00     0.009 C
HETATM   15  C18 UNL     1       8.010 -12.250 -25.850  1.00  0.00     0.009 C
HETATM   16  C15 UNL     1       7.259 -14.910 -25.014  1.00  0.00    -0.013 C
HETATM   17  C16 UNL     1       7.756 -14.643 -26.410  1.00  0.00     0.009 C
HETATM   18  C21 UNL     1       5.751 -14.859 -25.027  1.00  0.00     0.011 C
HETATM   19  C17 UNL     1       7.388 -13.244 -26.781  1.00  0.00    -0.013 C
HETATM   20  C19 UNL     1       5.901 -13.043 -26.763  1.00  0.00     0.011 C
HETATM   21  C20 UNL     1       5.222 -13.533 -25.530  1.00  0.00     0.009 C
ENDBRANCH   9  11
ENDBRANCH   4   7
BRANCH   1  22
HETATM   22  N1  UNL     1       1.176  -6.242 -26.086  1.00  0.00    -0.391 N
HETATM   23  C5  UNL     1       1.561  -5.040 -25.958  1.00  0.00    -0.011 C
HETATM   24  C4  UNL     1       2.808  -4.721 -25.256  1.00  0.00     0.053 C
HETATM   25  C24 UNL     1       0.706  -3.968 -26.545  1.00  0.00     0.130 C
HETATM   26  C3  UNL     1       2.989  -3.229 -25.139  1.00  0.00     0.013 C
HETATM   27  C2  UNL     1       1.727  -2.513 -24.716  1.00  0.00     0.079 C
HETATM   28  C1  UNL     1       0.555  -2.932 -25.502  1.00  0.00     0.132 C
HETATM   29  O1  UNL     1      -0.523  -2.433 -25.298  1.00  0.00    -0.298 OA
ATOM     30  H1  UNL     1       0.307  -6.454 -26.576  1.00  0.00     0.159 HD
ENDBRANCH   1  22
TORSDOF 3
ENDMDL