MODEL 2
REMARK VINA RESULT: -9.698110519      1.709      3.333
REMARK  3 active torsions:
REMARK  status: ('A' for Active; 'I' for Inactive)
REMARK    1  A    between atoms: C5_6  and  C6_7
REMARK    2  A    between atoms: C6_7  and  N2_8
REMARK       I    between atoms: N2_8  and  C7_10
REMARK    3  A    between atoms: C7_10  and  C8_12
ROOT
HETATM    1  N1  UNL     1       9.637 -14.769 -25.826  1.00  0.00    -0.191 NA
HETATM    2  C1  UNL     1       8.575 -14.404 -25.533  1.00  0.00     0.099 C
HETATM    3  C2  UNL     1       7.270 -13.948 -25.156  1.00  0.00     0.044 A
HETATM    4  C3  UNL     1       6.117 -14.706 -25.379  1.00  0.00     0.023 A
HETATM    5  C4  UNL     1       4.891 -14.210 -24.993  1.00  0.00     0.010 A
HETATM    6  C5  UNL     1       4.774 -12.971 -24.387  1.00  0.00    -0.040 A
HETATM    7  C23 UNL     1       5.930 -12.254 -24.184  1.00  0.00     0.010 A
HETATM    8  C24 UNL     1       7.175 -12.710 -24.552  1.00  0.00     0.023 A
ENDROOT
BRANCH   6   9
HETATM    9  C6  UNL     1       3.430 -12.525 -24.010  1.00  0.00     0.161 C
BRANCH   9  10
HETATM   10  N2  UNL     1       2.975 -11.366 -24.723  1.00  0.00    -0.356 N
HETATM   11  C7  UNL     1       2.968 -10.077 -24.136  1.00  0.00     0.232 C
HETATM   12  O1  UNL     1       3.375  -9.953 -22.955  1.00  0.00    -0.272 OA
ATOM     13  H2  UNL     1       2.646 -11.474 -25.683  1.00  0.00     0.162 HD
BRANCH  11  14
HETATM   14  C8  UNL     1       2.504  -8.895 -24.861  1.00  0.00     0.153 C
HETATM   15  S1  UNL     1       2.738  -9.077 -26.665  1.00  0.00    -0.139 SA
HETATM   16  C9  UNL     1       1.095  -8.641 -27.381  1.00  0.00     0.115 C
HETATM   17  C10 UNL     1       0.807  -7.313 -26.758  1.00  0.00    -0.033 A
HETATM   18  C22 UNL     1       0.174  -9.601 -26.697  1.00  0.00    -0.033 A
HETATM   19  C11 UNL     1       0.580  -6.168 -27.476  1.00  0.00     0.009 A
HETATM   20  C15 UNL     1       0.790  -7.284 -25.369  1.00  0.00    -0.040 A
HETATM   21  C12 UNL     1       0.335  -4.989 -26.811  1.00  0.00     0.001 A
HETATM   22  C13 UNL     1       0.310  -4.918 -25.435  1.00  0.00     0.001 A
HETATM   23  C14 UNL     1       0.542  -6.089 -24.733  1.00  0.00     0.008 A
HETATM   24  C16 UNL     1       1.031  -8.571 -24.601  1.00  0.00     0.075 C
HETATM   25  C17 UNL     1       0.174  -9.549 -25.318  1.00  0.00    -0.040 A
HETATM   26  C18 UNL     1      -0.627 -10.393 -24.589  1.00  0.00     0.008 A
HETATM   27  C19 UNL     1      -1.458 -11.321 -25.237  1.00  0.00     0.001 A
HETATM   28  C20 UNL     1      -1.456 -11.367 -26.615  1.00  0.00     0.001 A
HETATM   29  C21 UNL     1      -0.632 -10.498 -27.330  1.00  0.00     0.009 A
ENDBRANCH  11  14
ENDBRANCH   9  10
ENDBRANCH   6   9
TORSDOF 3
ENDMDL