MODEL 3
REMARK VINA RESULT: -8.256414139      2.936      8.590
REMARK  4 active torsions:
REMARK  status: ('A' for Active; 'I' for Inactive)
REMARK    1  A    between atoms: C6_6  and  N1_7
REMARK    2  A    between atoms: C9_10  and  N2_11
REMARK    3  A    between atoms: C12_14  and  O1_15
REMARK    4  A    between atoms: C12_14  and  C13_17
ROOT
HETATM    1  N2  UNL     1       6.264 -11.877 -25.070  1.00  0.00    -0.388 N
HETATM    2  C10 UNL     1       7.523 -11.243 -24.769  1.00  0.00     0.125 C
HETATM    3  C11 UNL     1       8.433 -12.368 -24.326  1.00  0.00     0.058 C
HETATM    4  C12 UNL     1       8.712 -13.283 -25.462  1.00  0.00     0.071 C
HETATM    5  C19 UNL     1       7.641 -13.331 -26.513  1.00  0.00     0.054 C
HETATM    6  C20 UNL     1       7.433 -14.776 -27.000  1.00  0.00     0.018 C
HETATM    7  C21 UNL     1       6.334 -12.706 -26.147  1.00  0.00     0.066 C
ENDROOT
BRANCH   1   8
HETATM    8  C9  UNL     1       5.419 -11.841 -24.007  1.00  0.00     0.090 C
HETATM    9  C8  UNL     1       5.489 -10.438 -23.396  1.00  0.00     0.056 C
HETATM   10  C7  UNL     1       4.133  -9.825 -23.178  1.00  0.00     0.275 C
HETATM   11  N1  UNL     1       3.242  -9.935 -24.276  1.00  0.00     0.097 N
HETATM   12  C24 UNL     1       3.289 -11.206 -24.960  1.00  0.00     0.279 C
HETATM   13  C22 UNL     1       3.997 -12.191 -24.083  1.00  0.00     0.033 C
HETATM   14  C23 UNL     1       3.671 -13.626 -24.380  1.00  0.00     0.014 C
BRANCH  11  15
HETATM   15  C6  UNL     1       1.877  -9.696 -23.847  1.00  0.00     0.251 C
HETATM   16  C2  UNL     1       1.347  -8.368 -24.137  1.00  0.00    -0.056 C
HETATM   17  C1  UNL     1       1.639  -7.216 -23.575  1.00  0.00     0.016 C
HETATM   18  C3  UNL     1       0.345  -8.495 -25.232  1.00  0.00     0.035 C
HETATM   19  C4  UNL     1      -0.220  -9.894 -25.089  1.00  0.00     0.007 C
HETATM   20  C5  UNL     1       0.917 -10.677 -24.482  1.00  0.00     0.041 C
ENDBRANCH  11  15
ENDBRANCH   1   8
BRANCH   4  21
HETATM   21  O1  UNL     1       8.732 -14.585 -24.890  1.00  0.00    -0.389 OA
ATOM     22  H1  UNL     1       8.626 -15.177 -25.625  1.00  0.00     0.210 HD
ENDBRANCH   4  21
BRANCH   4  23
HETATM   23  C13 UNL     1      10.097 -13.142 -26.059  1.00  0.00     0.021 C
HETATM   24  C14 UNL     1      10.795 -14.474 -26.180  1.00  0.00     0.007 C
HETATM   25  C15 UNL     1      12.283 -14.222 -26.468  1.00  0.00     0.000 C
HETATM   26  C16 UNL     1      12.950 -13.702 -25.224  1.00  0.00     0.000 C
HETATM   27  C17 UNL     1      12.023 -12.781 -24.470  1.00  0.00     0.000 C
HETATM   28  C18 UNL     1      10.989 -12.154 -25.416  1.00  0.00     0.007 C
ENDBRANCH   4  23
TORSDOF 4
ENDMDL