MODEL 1
REMARK VINA RESULT: -9.951279024      0.000      0.000
REMARK  3 active torsions:
REMARK  status: ('A' for Active; 'I' for Inactive)
REMARK    1  A    between atoms: C1_2  and  C2_4
REMARK    2  A    between atoms: N2_11  and  C9_12
REMARK    3  A    between atoms: C12_15  and  C13_16
ROOT
HETATM    1  C9  UNL     1       3.487  -9.776 -24.003  1.00  0.00     0.253 C
HETATM    2  C10 UNL     1       3.336 -11.278 -24.323  1.00  0.00     0.042 C
HETATM    3  C11 UNL     1       4.348 -11.909 -23.339  1.00  0.00     0.045 C
HETATM    4  C12 UNL     1       5.683 -11.685 -23.984  1.00  0.00     0.088 C
HETATM    5  C19 UNL     1       6.846 -11.635 -23.032  1.00  0.00     0.043 C
HETATM    6  C20 UNL     1       7.858 -10.613 -23.545  1.00  0.00     0.003 C
HETATM    7  C21 UNL     1       7.869  -9.342 -22.760  1.00  0.00     0.000 C
HETATM    8  C22 UNL     1       6.988  -8.337 -23.487  1.00  0.00     0.002 C
HETATM    9  C23 UNL     1       5.557  -8.696 -23.207  1.00  0.00     0.034 C
HETATM   10  C24 UNL     1       4.928  -9.482 -24.339  1.00  0.00     0.156 C
HETATM   11  O2  UNL     1       5.667 -10.544 -24.771  1.00  0.00    -0.368 OA
ENDROOT
BRANCH   1  12
HETATM   12  N2  UNL     1       2.490  -9.019 -24.564  1.00  0.00     0.105 N
HETATM   13  C5  UNL     1       1.125  -9.048 -24.312  1.00  0.00     0.226 C
HETATM   14  C4  UNL     1       0.346  -9.424 -25.577  1.00  0.00     0.037 C
HETATM   15  C6  UNL     1       1.136  -7.550 -24.093  1.00  0.00     0.071 C
HETATM   16  C3  UNL     1       0.568  -8.480 -26.710  1.00  0.00     0.016 C
HETATM   17  C2  UNL     1       2.017  -8.180 -26.908  1.00  0.00     0.077 C
HETATM   18  C8  UNL     1       2.556  -7.113 -26.000  1.00  0.00     0.049 C
HETATM   19  C7  UNL     1       2.574  -7.580 -24.562  1.00  0.00     0.227 C
BRANCH  17  20
HETATM   20  C1  UNL     1       2.175  -7.673 -28.317  1.00  0.00     0.235 C
HETATM   21  N1  UNL     1       1.357  -6.636 -28.807  1.00  0.00    -0.062 NA
HETATM   22  O1  UNL     1       3.040  -8.160 -29.104  1.00  0.00    -0.277 OA
ENDBRANCH  17  20
ENDBRANCH   1  12
BRANCH   4  23
HETATM   23  C13 UNL     1       5.928 -12.831 -24.916  1.00  0.00    -0.024 A
HETATM   24  C14 UNL     1       6.662 -12.707 -26.070  1.00  0.00     0.010 A
HETATM   25  C15 UNL     1       6.902 -13.793 -26.924  1.00  0.00     0.001 A
HETATM   26  C16 UNL     1       6.382 -15.022 -26.591  1.00  0.00     0.000 A
HETATM   27  C17 UNL     1       5.639 -15.188 -25.442  1.00  0.00     0.001 A
HETATM   28  C18 UNL     1       5.424 -14.098 -24.628  1.00  0.00     0.010 A
ENDBRANCH   4  23
TORSDOF 3
ENDMDL