MODEL 3
REMARK VINA RESULT: -9.163918828      2.938      4.279
REMARK  4 active torsions:
REMARK  status: ('A' for Active; 'I' for Inactive)
REMARK    1  A    between atoms: O1_1  and  C1_3
REMARK    2  A    between atoms: N1_6  and  C4_7
REMARK    3  A    between atoms: C12_15  and  C13_16
REMARK    4  A    between atoms: C19_24  and  C20_25
ROOT
HETATM    1  C1  UNL     1       7.568 -10.707 -22.737  1.00  0.00     0.147 C
HETATM    2  C2  UNL     1       7.777 -11.992 -23.527  1.00  0.00     0.054 C
HETATM    3  C3  UNL     1       8.880 -11.738 -24.541  1.00  0.00     0.280 C
HETATM    4  N1  UNL     1       9.130 -12.965 -25.223  1.00  0.00     0.093 N
HETATM    5  C9  UNL     1       7.973 -13.397 -25.977  1.00  0.00     0.273 C
HETATM    6  C10 UNL     1       6.742 -12.576 -25.693  1.00  0.00     0.041 C
HETATM    7  C11 UNL     1       6.513 -12.482 -24.190  1.00  0.00     0.046 C
HETATM    8  C12 UNL     1       5.324 -11.677 -23.896  1.00  0.00     0.020 C
HETATM    9  N2  UNL     1       5.386 -10.408 -23.595  1.00  0.00    -0.385 N
ATOM     10  H2  UNL     1       4.546  -9.865 -23.394  1.00  0.00     0.160 HD
HETATM   11  C19 UNL     1       6.699  -9.809 -23.558  1.00  0.00     0.114 C
ENDROOT
BRANCH   8  12
HETATM   12  C13 UNL     1       3.992 -12.269 -23.928  1.00  0.00    -0.013 A
HETATM   13  C14 UNL     1       3.766 -13.528 -24.394  1.00  0.00     0.013 A
HETATM   14  C15 UNL     1       2.489 -14.092 -24.423  1.00  0.00     0.001 A
HETATM   15  C16 UNL     1       1.425 -13.337 -23.961  1.00  0.00     0.000 A
HETATM   16  C17 UNL     1       1.607 -12.073 -23.485  1.00  0.00     0.001 A
HETATM   17  C18 UNL     1       2.879 -11.550 -23.471  1.00  0.00     0.013 A
ENDBRANCH   8  12
BRANCH  11  18
HETATM   18  C20 UNL     1       6.688  -8.384 -23.133  1.00  0.00     0.011 C
HETATM   19  C21 UNL     1       7.854  -7.560 -23.550  1.00  0.00     0.007 C
HETATM   20  C22 UNL     1       7.494  -6.552 -24.626  1.00  0.00     0.000 C
HETATM   21  C23 UNL     1       6.457  -5.565 -24.123  1.00  0.00     0.000 C
HETATM   22  C24 UNL     1       5.471  -6.242 -23.187  1.00  0.00     0.000 C
HETATM   23  C25 UNL     1       5.405  -7.708 -23.630  1.00  0.00     0.007 C
ENDBRANCH  11  18
BRANCH   1  24
HETATM   24  O1  UNL     1       7.000 -11.071 -21.511  1.00  0.00    -0.393 OA
ATOM     25  H1  UNL     1       6.597 -10.289 -21.150  1.00  0.00     0.210 HD
ENDBRANCH   1  24
BRANCH   4  26
HETATM   26  C4  UNL     1      10.265 -13.008 -26.069  1.00  0.00     0.223 C
HETATM   27  C5  UNL     1      11.535 -12.453 -25.545  1.00  0.00     0.036 C
HETATM   28  C6  UNL     1      12.477 -13.616 -25.310  1.00  0.00     0.002 C
HETATM   29  C7  UNL     1      12.076 -14.522 -26.484  1.00  0.00     0.002 C
HETATM   30  C8  UNL     1      10.566 -14.478 -26.346  1.00  0.00     0.036 C
ENDBRANCH   4  26
TORSDOF 4
ENDMDL