MODEL 4
REMARK VINA RESULT: -5.914033204      0.519      1.590
REMARK  13 active torsions:
REMARK  status: ('A' for Active; 'I' for Inactive)
REMARK    1  A    between atoms: C12_12  and  C13_13
REMARK    2  A    between atoms: C13_13  and  C14_14
REMARK    3  A    between atoms: C13_13  and  C30_41
REMARK    4  A    between atoms: C14_14  and  N1_15
REMARK    5  A    between atoms: N2_18  and  C17_19
REMARK    6  A    between atoms: C17_19  and  C18_20
REMARK    7  A    between atoms: C18_20  and  C19_21
REMARK    8  A    between atoms: C19_21  and  C20_22
REMARK    9  A    between atoms: C20_22  and  N3_23
REMARK       I    between atoms: N3_23  and  C21_25
REMARK   10  A    between atoms: C21_25  and  C22_27
REMARK   11  A    between atoms: C23_28  and  O2_29
REMARK   12  A    between atoms: C26_33  and  O3_34
REMARK   13  A    between atoms: C27_36  and  O4_37
ROOT
HETATM    1  N1  UNL     1       6.653   8.206   0.353  1.00  0.00     0.092 N
HETATM    2  C15 UNL     1       6.599   7.020   1.151  1.00  0.00     0.291 C
HETATM    3  C16 UNL     1       7.821   6.345   1.574  1.00  0.00     0.147 C
HETATM    4  N2  UNL     1       8.957   6.505   0.738  1.00  0.00    -0.409 N
HETATM    5  C28 UNL     1       9.131   7.807   0.223  1.00  0.00     0.147 C
HETATM    6  C29 UNL     1       7.924   8.503  -0.251  1.00  0.00     0.291 C
ENDROOT
BRANCH   1   7
HETATM    7  C14 UNL     1       6.128   9.352   1.072  1.00  0.00     0.286 C
BRANCH   7   8
HETATM    8  C13 UNL     1       4.782   9.075   1.663  1.00  0.00     0.126 C
BRANCH   8   9
HETATM    9  C12 UNL     1       3.703   9.768   0.834  1.00  0.00     0.000 C
HETATM   10  C11 UNL     1       4.080  11.087   0.304  1.00  0.00     0.006 C
HETATM   11  C10 UNL     1       4.232  11.192  -1.178  1.00  0.00     0.006 C
HETATM   12  C9  UNL     1       3.314  10.314  -1.971  1.00  0.00    -0.002 C
HETATM   13  C7  UNL     1       2.763  11.080  -3.181  1.00  0.00    -0.036 C
HETATM   14  C32 UNL     1       2.260   9.613  -1.203  1.00  0.00    -0.009 C
HETATM   15  C6  UNL     1       2.225  10.072  -4.168  1.00  0.00     0.010 C
HETATM   16  C8  UNL     1       3.928  11.774  -3.805  1.00  0.00     0.016 C
HETATM   17  C35 UNL     1       1.674  12.013  -2.705  1.00  0.00     0.002 C
HETATM   18  C5  UNL     1       1.632  10.752  -5.376  1.00  0.00     0.002 C
HETATM   19  C4  UNL     1       0.624  11.768  -4.973  1.00  0.00     0.009 C
HETATM   20  C2  UNL     1       1.014  12.691  -3.875  1.00  0.00    -0.043 C
HETATM   21  C1  UNL     1       1.807  13.902  -4.368  1.00  0.00     0.015 C
HETATM   22  C3  UNL     1      -0.291  13.288  -3.320  1.00  0.00     0.015 C
HETATM   23  C34 UNL     1       0.619  11.247  -1.969  1.00  0.00     0.006 C
HETATM   24  C33 UNL     1       1.093  10.429  -0.818  1.00  0.00     0.005 C
HETATM   25  C31 UNL     1       2.924   8.882  -0.059  1.00  0.00     0.010 C
ENDBRANCH   8   9
BRANCH   8  26
HETATM   26  C30 UNL     1       4.761   9.515   3.099  1.00  0.00     0.393 C
HETATM   27  F1  UNL     1       3.451   9.651   3.603  1.00  0.00    -0.171 F
HETATM   28  F2  UNL     1       5.209  10.829   3.144  1.00  0.00    -0.171 F
HETATM   29  F3  UNL     1       5.592   8.854   3.945  1.00  0.00    -0.171 F
ENDBRANCH   8  26
ENDBRANCH   7   8
ENDBRANCH   1   7
BRANCH   4  30
HETATM   30  C17 UNL     1       9.235   5.416  -0.167  1.00  0.00     0.117 C
BRANCH  30  31
HETATM   31  C18 UNL     1       9.919   5.836  -1.416  1.00  0.00     0.021 C
BRANCH  31  32
HETATM   32  C19 UNL     1       9.135   5.391  -2.622  1.00  0.00     0.021 C
BRANCH  32  33
HETATM   33  C20 UNL     1       9.591   6.137  -3.845  1.00  0.00     0.123 C
BRANCH  33  34
HETATM   34  N3  UNL     1       8.729   7.306  -4.130  1.00  0.00    -0.357 N
HETATM   35  C21 UNL     1       8.115   7.502  -5.361  1.00  0.00     0.257 C
HETATM   36  O1  UNL     1       8.339   6.582  -6.236  1.00  0.00    -0.267 OA
ATOM     37  H3  UNL     1       8.580   7.995  -3.393  1.00  0.00     0.162 HD
BRANCH  35  38
HETATM   38  C22 UNL     1       7.274   8.595  -5.770  1.00  0.00     0.101 A
HETATM   39  C23 UNL     1       5.925   8.284  -6.070  1.00  0.00     0.084 A
HETATM   40  C24 UNL     1       5.068   9.262  -6.475  1.00  0.00     0.040 A
HETATM   41  C25 UNL     1       5.437  10.569  -6.617  1.00  0.00     0.042 A
HETATM   42  C26 UNL     1       6.766  10.872  -6.321  1.00  0.00     0.100 A
HETATM   43  C27 UNL     1       7.663   9.901  -5.906  1.00  0.00     0.117 A
BRANCH  39  44
HETATM   44  O2  UNL     1       5.456   6.987  -5.956  1.00  0.00    -0.360 OA
ATOM     45  H2  UNL     1       4.736   6.682  -6.496  1.00  0.00     0.217 HD
ENDBRANCH  39  44
BRANCH  42  46
HETATM   46  O3  UNL     1       7.183  12.170  -6.448  1.00  0.00    -0.358 OA
ATOM     47  H3  UNL     1       6.526  12.845  -6.567  1.00  0.00     0.217 HD
ENDBRANCH  42  46
BRANCH  43  48
HETATM   48  O4  UNL     1       8.972  10.240  -5.618  1.00  0.00    -0.357 OA
ATOM     49  H4  UNL     1       9.652  10.009  -6.240  1.00  0.00     0.217 HD
ENDBRANCH  43  48
ENDBRANCH  35  38
ENDBRANCH  33  34
ENDBRANCH  32  33
ENDBRANCH  31  32
ENDBRANCH  30  31
ENDBRANCH   4  30
TORSDOF 13
ENDMDL