MODEL 5
REMARK VINA RESULT: -6.384392365      3.734      9.875
REMARK  13 active torsions:
REMARK  status: ('A' for Active; 'I' for Inactive)
REMARK    1  A    between atoms: C2_2  and  C3_3
REMARK    2  A    between atoms: C3_3  and  N1_4
REMARK    3  A    between atoms: C4_5  and  O1_6
REMARK    4  A    between atoms: C5_8  and  C6_9
REMARK    5  A    between atoms: C12_18  and  N2_19
REMARK       I    between atoms: N2_19  and  C13_21
REMARK    6  A    between atoms: C13_21  and  C14_23
REMARK    7  A    between atoms: C18_27  and  C19_28
REMARK    8  A    between atoms: C19_28  and  N3_30
REMARK    9  A    between atoms: C23_33  and  C24_34
REMARK   10  A    between atoms: C24_34  and  C25_35
REMARK   11  A    between atoms: C25_35  and  C26_36
REMARK       I    between atoms: C26_36  and  N4_38
REMARK   12  A    between atoms: N4_38  and  C27_40
REMARK   13  A    between atoms: C30_43  and  O4_44
ROOT
HETATM    1  N1  UNL     1      -6.347  12.112  -1.623  1.00  0.00    -0.324 N
HETATM    2  C4  UNL     1      -6.409  11.183  -0.651  1.00  0.00     0.156 A
HETATM    3  C5  UNL     1      -5.386  11.435   0.288  1.00  0.00     0.057 A
HETATM    4  C12 UNL     1      -4.732  12.534  -0.172  1.00  0.00     0.079 A
HETATM    5  C18 UNL     1      -5.338  12.970  -1.402  1.00  0.00     0.087 A
ENDROOT
BRANCH   5   6
HETATM    6  C19 UNL     1      -4.777  13.992  -2.331  1.00  0.00     0.036 C
HETATM    7  C20 UNL     1      -5.472  15.318  -2.348  1.00  0.00     0.071 C
BRANCH   6   8
HETATM    8  N3  UNL     1      -3.502  13.828  -2.858  1.00  0.00    -0.362 N
HETATM    9  C21 UNL     1      -2.643  14.802  -3.311  1.00  0.00     0.064 C
HETATM   10  C22 UNL     1      -1.435  14.436  -4.130  1.00  0.00     0.049 C
HETATM   11  C23 UNL     1      -1.196  13.008  -4.354  1.00  0.00    -0.008 C
HETATM   12  C33 UNL     1      -1.948  12.123  -3.339  1.00  0.00     0.025 C
HETATM   13  C34 UNL     1      -3.401  12.560  -3.583  1.00  0.00     0.128 C
BRANCH  11  14
HETATM   14  C24 UNL     1       0.188  12.494  -4.379  1.00  0.00     0.014 C
BRANCH  14  15
HETATM   15  C25 UNL     1       0.782  11.899  -3.146  1.00  0.00     0.103 C
BRANCH  15  16
HETATM   16  C26 UNL     1       1.713  10.792  -3.413  1.00  0.00     0.217 C
HETATM   17  O3  UNL     1       1.773   9.741  -2.738  1.00  0.00    -0.274 OA
HETATM   18  N4  UNL     1       2.660  10.862  -4.497  1.00  0.00    -0.356 N
ATOM     19  H4  UNL     1       2.667  11.695  -5.086  1.00  0.00     0.162 HD
BRANCH  18  20
HETATM   20  C27 UNL     1       3.606   9.795  -4.789  1.00  0.00     0.084 C
HETATM   21  C28 UNL     1       3.044   8.954  -5.873  1.00  0.00     0.028 C
HETATM   22  C29 UNL     1       3.919   7.811  -6.266  1.00  0.00     0.034 C
HETATM   23  C30 UNL     1       5.316   8.256  -6.498  1.00  0.00     0.118 C
HETATM   24  C31 UNL     1       5.562   9.726  -6.414  1.00  0.00     0.034 C
HETATM   25  C32 UNL     1       4.898  10.464  -5.327  1.00  0.00     0.028 C
BRANCH  23  26
HETATM   26  O4  UNL     1       6.170   7.534  -5.648  1.00  0.00    -0.396 OA
ATOM     27  H4  UNL     1       7.064   7.821  -5.794  1.00  0.00     0.210 HD
ENDBRANCH  23  26
ENDBRANCH  18  20
ENDBRANCH  15  16
ENDBRANCH  14  15
ENDBRANCH  11  14
ENDBRANCH   6   8
ENDBRANCH   5   6
BRANCH   1  28
HETATM   28  C3  UNL     1      -7.291  12.100  -2.732  1.00  0.00     0.131 C
BRANCH  28  29
HETATM   29  C2  UNL     1      -6.856  11.162  -3.823  1.00  0.00     0.016 C
HETATM   30  C1  UNL     1      -7.985  10.493  -4.551  1.00  0.00     0.006 C
ENDBRANCH  28  29
ENDBRANCH   1  28
BRANCH   4  31
HETATM   31  N2  UNL     1      -3.723  13.287   0.424  1.00  0.00    -0.324 N
HETATM   32  C13 UNL     1      -3.585  14.027   1.575  1.00  0.00     0.230 C
HETATM   33  O2  UNL     1      -4.429  14.182   2.460  1.00  0.00    -0.272 OA
ATOM     34  H2  UNL     1      -2.871  13.291  -0.135  1.00  0.00     0.169 HD
BRANCH  32  35
HETATM   35  C14 UNL     1      -2.288  14.788   1.882  1.00  0.00     0.030 C
HETATM   36  C15 UNL     1      -1.880  15.619   0.696  1.00  0.00     0.025 C
HETATM   37  C16 UNL     1      -1.213  13.816   2.247  1.00  0.00     0.025 C
HETATM   38  C17 UNL     1      -2.617  15.726   3.014  1.00  0.00     0.025 C
ENDBRANCH  32  35
ENDBRANCH   4  31
BRANCH   2  39
HETATM   39  O1  UNL     1      -7.305  10.126  -0.527  1.00  0.00    -0.345 OA
ATOM     40  H1  UNL     1      -8.240  10.164  -0.365  1.00  0.00     0.219 HD
ENDBRANCH   2  39
BRANCH   3  41
HETATM   41  C6  UNL     1      -5.232  10.582   1.459  1.00  0.00     0.023 A
HETATM   42  C7  UNL     1      -5.713  10.956   2.696  1.00  0.00     0.019 A
HETATM   43  C8  UNL     1      -5.469  10.156   3.819  1.00  0.00     0.046 A
HETATM   44  C9  UNL     1      -4.748   8.976   3.733  1.00  0.00     0.158 A
HETATM   45  F1  UNL     1      -4.513   8.209   4.828  1.00  0.00    -0.203 F
HETATM   46  C10 UNL     1      -4.264   8.598   2.489  1.00  0.00     0.194 A
HETATM   47  F2  UNL     1      -3.543   7.430   2.383  1.00  0.00    -0.200 F
HETATM   48  C11 UNL     1      -4.510   9.390   1.398  1.00  0.00     0.169 A
HETATM   49  F3  UNL     1      -4.046   9.031   0.180  1.00  0.00    -0.202 F
ENDBRANCH   3  41
TORSDOF 13
ENDMDL