MODEL 5
REMARK VINA RESULT: -6.088373366      5.358      9.838
REMARK  10 active torsions:
REMARK  status: ('A' for Active; 'I' for Inactive)
REMARK    1  A    between atoms: C2_2  and  C3_3
REMARK    2  A    between atoms: C3_3  and  C4_4
REMARK    3  A    between atoms: C8_8  and  C9_9
REMARK    4  A    between atoms: C12_17  and  O1_18
REMARK       I    between atoms: N3_24  and  C16_25
REMARK    5  A    between atoms: C16_25  and  C17_27
REMARK    6  A    between atoms: C17_27  and  C18_28
REMARK    7  A    between atoms: C17_27  and  N4_35
REMARK    8  A    between atoms: C18_28  and  C19_29
REMARK    9  A    between atoms: N4_35  and  S2_37
REMARK   10  A    between atoms: S2_37  and  C25_40
ROOT
HETATM    1  C4  UNL     1       6.905   9.417   2.585  1.00  0.00     0.011 C
HETATM    2  C5  UNL     1       6.971   7.896   2.655  1.00  0.00     0.032 C
HETATM    3  C6  UNL     1       6.824   7.564   1.150  1.00  0.00     0.092 C
HETATM    4  C7  UNL     1       5.369   7.769   0.843  1.00  0.00     0.060 C
HETATM    5  C8  UNL     1       5.019   9.085   0.375  1.00  0.00    -0.060 C
HETATM    6  C14 UNL     1       6.086  10.162   0.404  1.00  0.00     0.061 C
HETATM    7  C15 UNL     1       7.294   9.749   1.169  1.00  0.00     0.096 C
HETATM    8  N3  UNL     1       7.771   8.464   0.623  1.00  0.00    -0.340 N
HETATM    9  C16 UNL     1       8.938   8.359  -0.178  1.00  0.00     0.244 C
HETATM   10  O2  UNL     1       9.560   9.450  -0.454  1.00  0.00    -0.271 OA
ENDROOT
BRANCH   9  11
HETATM   11  C17 UNL     1       9.541   7.144  -0.732  1.00  0.00     0.185 C
BRANCH  11  12
HETATM   12  C18 UNL     1       9.829   6.020   0.196  1.00  0.00     0.040 C
BRANCH  12  13
HETATM   13  C19 UNL     1      10.528   6.215   1.469  1.00  0.00    -0.012 C
HETATM   14  C20 UNL     1      11.791   5.290   1.472  1.00  0.00     0.005 C
HETATM   15  C21 UNL     1      12.792   5.799   2.465  1.00  0.00     0.000 C
HETATM   16  C22 UNL     1      12.030   6.216   3.708  1.00  0.00     0.000 C
HETATM   17  C23 UNL     1      10.805   5.332   3.750  1.00  0.00     0.000 C
HETATM   18  C24 UNL     1       9.795   5.656   2.678  1.00  0.00     0.005 C
ENDBRANCH  12  13
ENDBRANCH  11  12
BRANCH  11  19
HETATM   19  N4  UNL     1       8.605   6.704  -1.757  1.00  0.00    -0.302 N
ATOM     20  H4  UNL     1       7.729   6.259  -1.482  1.00  0.00     0.173 HD
BRANCH  19  21
HETATM   21  S2  UNL     1       8.945   6.917  -3.353  1.00  0.00     0.259 S
HETATM   22  O3  UNL     1       7.721   7.211  -4.219  1.00  0.00    -0.201 OA
HETATM   23  O4  UNL     1       9.997   7.996  -3.615  1.00  0.00    -0.201 OA
BRANCH  21  24
HETATM   24  C25 UNL     1       9.623   5.456  -4.035  1.00  0.00     0.082 A
HETATM   25  C26 UNL     1       9.959   5.299  -5.356  1.00  0.00     0.028 A
HETATM   26  C27 UNL     1      10.466   4.128  -5.881  1.00  0.00     0.047 A
HETATM   27  C28 UNL     1      10.666   3.024  -5.066  1.00  0.00     0.154 A
HETATM   28  F2  UNL     1      11.167   1.867  -5.576  1.00  0.00    -0.203 F
HETATM   29  C29 UNL     1      10.338   3.159  -3.739  1.00  0.00     0.156 A
HETATM   30  F3  UNL     1      10.521   2.103  -2.922  1.00  0.00    -0.203 F
HETATM   31  C30 UNL     1       9.833   4.327  -3.225  1.00  0.00     0.070 A
ENDBRANCH  21  24
ENDBRANCH  19  21
ENDBRANCH  11  19
ENDBRANCH   9  11
BRANCH   1  32
HETATM   32  C3  UNL     1       7.870  10.012   3.589  1.00  0.00     0.006 C
BRANCH  32  33
HETATM   33  C2  UNL     1       8.956   9.016   3.893  1.00  0.00    -0.004 C
HETATM   34  C1  UNL     1      10.264   9.559   3.299  1.00  0.00     0.005 C
ENDBRANCH  32  33
ENDBRANCH   1  32
BRANCH   5  35
HETATM   35  C9  UNL     1       3.709   9.724   0.775  1.00  0.00     0.039 A
HETATM   36  C10 UNL     1       2.939  10.177  -0.328  1.00  0.00     0.102 A
HETATM   37  N1  UNL     1       3.407   9.947  -1.676  1.00  0.00    -0.093 NA
HETATM   38  S1  UNL     1       1.481  10.954   0.011  1.00  0.00    -0.054 SA
HETATM   39  C11 UNL     1       1.152  11.074   1.672  1.00  0.00     0.106 A
HETATM   40  N2  UNL     1       0.074  11.641   2.166  1.00  0.00    -0.391 N
HETATM   41  C12 UNL     1       2.116  10.527   2.471  1.00  0.00     0.139 A
ATOM     42  H22 UNL     1      -0.646  12.050   1.570  1.00  0.00     0.157 HD
ATOM     43  H21 UNL     1      -0.125  11.714   3.165  1.00  0.00     0.157 HD
HETATM   44  C13 UNL     1       3.285   9.910   2.048  1.00  0.00     0.165 A
HETATM   45  F1  UNL     1       4.046   9.491   3.130  1.00  0.00    -0.202 F
BRANCH  41  46
HETATM   46  O1  UNL     1       1.831  10.633   3.856  1.00  0.00    -0.355 OA
ATOM     47  H1  UNL     1       1.732  11.529   4.156  1.00  0.00     0.218 HD
ENDBRANCH  41  46
ENDBRANCH   5  35
TORSDOF 10
ENDMDL