MODEL 5
REMARK VINA RESULT: -6.570900182      3.925      5.150
REMARK  10 active torsions:
REMARK  status: ('A' for Active; 'I' for Inactive)
REMARK    1  A    between atoms: O1_2  and  C2_3
REMARK    2  A    between atoms: C4_5  and  N1_6
REMARK    3  A    between atoms: N1_6  and  C5_8
REMARK    4  A    between atoms: C8_11  and  N2_12
REMARK       I    between atoms: N2_12  and  C9_14
REMARK    5  A    between atoms: C9_14  and  C10_16
REMARK    6  A    between atoms: C12_18  and  C13_19
REMARK    7  A    between atoms: C20_28  and  C21_29
REMARK    8  A    between atoms: C28_41  and  N5_42
REMARK    9  A    between atoms: N5_42  and  S1_44
REMARK   10  A    between atoms: S1_44  and  C29_47
ROOT
HETATM    1  N2  UNL     1       3.512  10.628   2.166  1.00  0.00    -0.352 N
ATOM      2  H2  UNL     1       3.617  11.237   2.977  1.00  0.00     0.163 HD
HETATM    3  C9  UNL     1       2.359  10.798   1.323  1.00  0.00     0.252 C
HETATM    4  O2  UNL     1       2.226  10.088   0.314  1.00  0.00    -0.268 OA
ENDROOT
BRANCH   1   5
HETATM    5  C8  UNL     1       4.540   9.622   1.910  1.00  0.00     0.084 C
HETATM    6  C7  UNL     1       5.138   9.344   3.264  1.00  0.00     0.027 C
HETATM    7  C6  UNL     1       6.201  10.361   3.508  1.00  0.00     0.027 C
HETATM    8  C5  UNL     1       7.414  10.024   2.659  1.00  0.00     0.082 C
HETATM    9  C25 UNL     1       6.970   9.995   1.242  1.00  0.00     0.027 C
HETATM   10  C24 UNL     1       5.533  10.216   0.948  1.00  0.00     0.027 C
BRANCH   8  11
HETATM   11  N1  UNL     1       8.000   8.772   3.025  1.00  0.00    -0.385 N
ATOM     12  H1  UNL     1       8.243   8.666   4.009  1.00  0.00     0.160 HD
BRANCH  11  13
HETATM   13  C4  UNL     1       8.281   7.680   2.209  1.00  0.00     0.031 A
HETATM   14  C3  UNL     1       9.531   7.627   1.600  1.00  0.00     0.068 A
HETATM   15  C2  UNL     1       9.851   6.578   0.705  1.00  0.00     0.097 A
HETATM   16  C28 UNL     1       8.936   5.597   0.422  1.00  0.00     0.075 A
HETATM   17  C27 UNL     1       7.677   5.657   1.043  1.00  0.00     0.035 A
HETATM   18  C26 UNL     1       7.382   6.681   1.911  1.00  0.00     0.031 A
BRANCH  15  19
HETATM   19  O1  UNL     1      11.101   6.571   0.138  1.00  0.00    -0.354 OA
HETATM   20  C1  UNL     1      11.709   7.727  -0.337  1.00  0.00     0.210 C
ENDBRANCH  15  19
BRANCH  16  21
HETATM   21  N5  UNL     1       9.144   4.511  -0.451  1.00  0.00    -0.282 N
ATOM     22  H5  UNL     1       9.511   3.650  -0.046  1.00  0.00     0.178 HD
BRANCH  21  23
HETATM   23  S1  UNL     1       8.837   4.513  -2.124  1.00  0.00     0.234 S
HETATM   24  O3  UNL     1       7.394   4.972  -2.389  1.00  0.00    -0.205 OA
HETATM   25  O4  UNL     1       9.015   3.084  -2.653  1.00  0.00    -0.205 OA
BRANCH  23  26
HETATM   26  C29 UNL     1       9.909   5.526  -3.085  1.00  0.00     0.121 C
HETATM   27  C30 UNL     1       9.286   6.946  -3.137  1.00  0.00     0.027 C
HETATM   28  C31 UNL     1      10.127   5.122  -4.472  1.00  0.00     0.027 C
ENDBRANCH  23  26
ENDBRANCH  21  23
ENDBRANCH  16  21
ENDBRANCH  11  13
ENDBRANCH   8  11
ENDBRANCH   1   5
BRANCH   3  29
HETATM   29  C10 UNL     1       1.349  11.792   1.643  1.00  0.00     0.035 A
HETATM   30  C11 UNL     1       0.027  11.497   1.858  1.00  0.00     0.031 A
HETATM   31  C12 UNL     1      -0.925  12.487   2.159  1.00  0.00    -0.004 A
HETATM   32  C19 UNL     1      -0.474  13.753   2.230  1.00  0.00     0.071 A
HETATM   33  N3  UNL     1      -1.161  14.888   2.580  1.00  0.00    -0.336 N
HETATM   34  C22 UNL     1       0.827  14.114   2.031  1.00  0.00     0.062 A
HETATM   35  C20 UNL     1      -0.302  15.910   2.591  1.00  0.00     0.191 A
ATOM     36  H3  UNL     1      -2.156  14.941   2.795  1.00  0.00     0.167 HD
HETATM   37  N4  UNL     1       0.921  15.439   2.253  1.00  0.00    -0.337 N
ATOM     38  H4  UNL     1       1.772  15.995   2.180  1.00  0.00     0.167 HD
HETATM   39  C23 UNL     1       1.724  13.121   1.736  1.00  0.00     0.049 A
BRANCH  31  40
HETATM   40  C13 UNL     1      -2.330  12.038   2.197  1.00  0.00    -0.067 C
HETATM   41  C14 UNL     1      -3.096  12.227   0.937  1.00  0.00     0.035 C
HETATM   42  C15 UNL     1      -4.573  12.214   1.217  1.00  0.00     0.004 C
HETATM   43  C16 UNL     1      -4.890  12.231   2.693  1.00  0.00     0.001 C
HETATM   44  C17 UNL     1      -4.202  11.161   3.471  1.00  0.00     0.004 C
HETATM   45  C18 UNL     1      -2.737  10.937   3.050  1.00  0.00     0.035 C
ENDBRANCH  31  40
BRANCH  35  46
HETATM   46  C21 UNL     1      -0.525  17.330   2.966  1.00  0.00     0.449 C
HETATM   47  F1  UNL     1       0.264  18.188   2.202  1.00  0.00    -0.163 F
HETATM   48  F2  UNL     1      -1.836  17.747   2.711  1.00  0.00    -0.163 F
HETATM   49  F3  UNL     1      -0.329  17.506   4.323  1.00  0.00    -0.163 F
ENDBRANCH  35  46
ENDBRANCH   3  29
TORSDOF 10
ENDMDL