MODEL 2
REMARK VINA RESULT: -4.844552363      1.661      2.206
REMARK  16 active torsions:
REMARK  status: ('A' for Active; 'I' for Inactive)
REMARK    1  A    between atoms: C2_2  and  C12_14
REMARK    2  A    between atoms: C3_3  and  C4_4
REMARK    3  A    between atoms: C4_4  and  C5_5
REMARK    4  A    between atoms: C5_5  and  C7_7
REMARK    5  A    between atoms: C7_7  and  O2_9
REMARK    6  A    between atoms: O2_9  and  C8_10
REMARK    7  A    between atoms: C18_20  and  O3_21
REMARK    8  A    between atoms: C22_27  and  O4_28
REMARK    9  A    between atoms: C23_30  and  C24_31
REMARK   10  A    between atoms: C23_30  and  C29_38
REMARK   11  A    between atoms: C24_31  and  C25_32
REMARK   12  A    between atoms: C25_32  and  C26_33
REMARK   13  A    between atoms: C26_33  and  O5_36
REMARK   14  A    between atoms: C31_42  and  C32_43
REMARK   15  A    between atoms: C32_43  and  C33_44
REMARK   16  A    between atoms: C33_44  and  O6_45
ROOT
HETATM    1  C12 UNL     1       1.153  13.465  -0.417  1.00  0.00     0.007 C
HETATM    2  C13 UNL     1       1.025  14.694  -1.329  1.00  0.00     0.025 C
HETATM    3  C14 UNL     1       1.120  14.029   0.978  1.00  0.00    -0.002 C
HETATM    4  C15 UNL     1       0.965  15.520   1.113  1.00  0.00     0.011 C
HETATM    5  C16 UNL     1       0.232  13.401   1.969  1.00  0.00     0.009 C
HETATM    6  C17 UNL     1      -1.247  13.553   1.792  1.00  0.00     0.041 C
HETATM    7  C18 UNL     1      -1.867  12.499   0.876  1.00  0.00     0.097 C
HETATM    8  C19 UNL     1      -1.333  12.670  -0.514  1.00  0.00     0.093 C
HETATM    9 CL1  UNL     1      -1.626  14.281  -1.190  1.00  0.00    -0.111 Cl
HETATM   10  C20 UNL     1      -2.015  11.773  -1.541  1.00  0.00     0.036 C
HETATM   11  C21 UNL     1      -3.078  10.915  -0.970  1.00  0.00     0.035 C
HETATM   12  C22 UNL     1      -3.960  11.857  -0.194  1.00  0.00     0.134 C
HETATM   13  C23 UNL     1      -3.321  12.324   1.105  1.00  0.00     0.069 C
HETATM   14  C31 UNL     1       0.158  12.405  -0.698  1.00  0.00    -0.042 C
ENDROOT
BRANCH   1  15
HETATM   15  C2  UNL     1       2.550  12.991  -0.601  1.00  0.00    -0.074 C
HETATM   16  C1  UNL     1       3.253  13.281  -1.942  1.00  0.00     0.044 C
HETATM   17  C3  UNL     1       3.396  12.348   0.153  1.00  0.00    -0.022 C
BRANCH  17  18
HETATM   18  C4  UNL     1       3.490  11.763   1.465  1.00  0.00     0.041 C
BRANCH  18  19
HETATM   19  C5  UNL     1       3.127  10.294   1.448  1.00  0.00     0.085 C
HETATM   20  C6  UNL     1       2.531   9.974   2.812  1.00  0.00     0.020 C
BRANCH  19  21
HETATM   21  C7  UNL     1       4.148   9.339   1.111  1.00  0.00     0.263 C
HETATM   22  O1  UNL     1       4.362   9.059  -0.123  1.00  0.00    -0.265 OA
BRANCH  21  23
HETATM   23  O2  UNL     1       4.959   8.667   2.008  1.00  0.00    -0.311 OA
BRANCH  23  24
HETATM   24  C8  UNL     1       6.238   9.153   2.380  1.00  0.00     0.060 C
HETATM   25  C9  UNL     1       6.795  10.197   1.483  1.00  0.00     0.045 C
HETATM   26  C10 UNL     1       6.168   9.741   3.784  1.00  0.00     0.045 C
HETATM   27  C11 UNL     1       7.166   7.973   2.445  1.00  0.00     0.045 C
ENDBRANCH  23  24
ENDBRANCH  21  23
ENDBRANCH  19  21
ENDBRANCH  18  19
ENDBRANCH  17  18
ENDBRANCH   1  15
BRANCH  14  28
HETATM   28  C32 UNL     1       0.446  10.966  -0.758  1.00  0.00     0.005 C
BRANCH  28  29
HETATM   29  C33 UNL     1       1.052  10.249  -1.880  1.00  0.00     0.191 C
BRANCH  29  30
HETATM   30  O6  UNL     1       1.728   9.061  -1.401  1.00  0.00    -0.397 OA
ATOM     31  H6  UNL     1       2.307   8.724  -2.074  1.00  0.00     0.209 HD
ENDBRANCH  29  30
ENDBRANCH  28  29
ENDBRANCH  14  28
BRANCH   7  32
HETATM   32  O3  UNL     1      -1.235  11.363   1.378  1.00  0.00    -0.386 OA
ATOM     33  H3  UNL     1      -0.540  11.276   0.736  1.00  0.00     0.210 HD
ENDBRANCH   7  32
BRANCH  13  34
HETATM   34  C24 UNL     1      -3.666  11.317   2.187  1.00  0.00     0.023 C
BRANCH  34  35
HETATM   35  C25 UNL     1      -3.055  10.030   2.334  1.00  0.00     0.038 C
BRANCH  35  36
HETATM   36  C26 UNL     1      -4.256   9.061   2.613  1.00  0.00     0.051 C
HETATM   37  C27 UNL     1      -3.683   7.741   3.023  1.00  0.00     0.045 C
HETATM   38  C28 UNL     1      -5.134   9.621   3.684  1.00  0.00     0.045 C
BRANCH  36  39
HETATM   39  O5  UNL     1      -4.973   8.888   1.436  1.00  0.00    -0.391 OA
ATOM     40  H5  UNL     1      -5.820   8.514   1.647  1.00  0.00     0.210 HD
ENDBRANCH  36  39
ENDBRANCH  35  36
ENDBRANCH  34  35
ENDBRANCH  13  34
BRANCH  13  41
HETATM   41  C29 UNL     1      -4.133  13.512   1.535  1.00  0.00     0.188 C
HETATM   42  C30 UNL     1      -4.629  14.530   0.642  1.00  0.00     0.071 C
HETATM   43  F1  UNL     1      -3.655  14.141   2.692  1.00  0.00    -0.225 F
HETATM   44 CL2  UNL     1      -5.694  12.830   2.213  1.00  0.00    -0.082 Cl
ENDBRANCH  13  41
BRANCH  12  45
HETATM   45  O4  UNL     1      -5.187  11.275  -0.104  1.00  0.00    -0.395 OA
ATOM     46  H4  UNL     1      -5.764  11.901   0.317  1.00  0.00     0.210 HD
ENDBRANCH  12  45
TORSDOF 16
ENDMDL