MODEL 4
REMARK VINA RESULT: -6.134272564      2.428      3.909
REMARK  11 active torsions:
REMARK  status: ('A' for Active; 'I' for Inactive)
REMARK    1  A    between atoms: O1_2  and  C2_3
REMARK    2  A    between atoms: C5_6  and  N1_7
REMARK       I    between atoms: N1_7  and  C6_9
REMARK       I    between atoms: C6_9  and  N3_13
REMARK    3  A    between atoms: N3_13  and  C7_15
REMARK    4  A    between atoms: C9_17  and  C10_18
REMARK    5  A    between atoms: C11_22  and  O2_23
REMARK    6  A    between atoms: O2_23  and  C12_24
REMARK    7  A    between atoms: C26_41  and  O3_42
REMARK    8  A    between atoms: O3_42  and  C27_43
REMARK    9  A    between atoms: C27_43  and  C28_44
REMARK   10  A    between atoms: C28_44  and  C29_45
REMARK   11  A    between atoms: C29_45  and  N6_46
ROOT
HETATM    1  N1  UNL     1      -3.020  13.594  -3.606  1.00  0.00    -0.191 N
ATOM      2  H1  UNL     1      -2.773  14.137  -2.778  1.00  0.00     0.184 HD
HETATM    3  C6  UNL     1      -2.269  13.832  -4.733  1.00  0.00     0.676 C
HETATM    4  N2  UNL     1      -2.819  13.997  -5.889  1.00  0.00    -0.234 N
ATOM      5  H21 UNL     1      -2.263  14.173  -6.725  1.00  0.00     0.174 HD
ATOM      6  H22 UNL     1      -3.835  13.909  -5.908  1.00  0.00     0.174 HD
HETATM    7  N3  UNL     1      -0.853  13.955  -4.706  1.00  0.00    -0.190 N
ATOM      8  H3  UNL     1      -0.447  14.890  -4.743  1.00  0.00     0.184 HD
ENDROOT
BRANCH   1   9
HETATM    9  C5  UNL     1      -3.978  12.783  -3.474  1.00  0.00     0.063 A
HETATM   10  C4  UNL     1      -3.886  11.922  -2.347  1.00  0.00     0.021 A
HETATM   11  C3  UNL     1      -2.817  12.000  -1.486  1.00  0.00     0.055 A
HETATM   12  C24 UNL     1      -4.899  11.019  -2.155  1.00  0.00     0.047 A
HETATM   13  C2  UNL     1      -2.763  11.157  -0.411  1.00  0.00     0.102 A
HETATM   14  C26 UNL     1      -3.770  10.201  -0.146  1.00  0.00     0.104 A
HETATM   15  C25 UNL     1      -4.807  10.175  -1.047  1.00  0.00     0.070 A
HETATM   16  N5  UNL     1      -5.964  10.926  -2.993  1.00  0.00    -0.365 N
HETATM   17  C23 UNL     1      -6.079  11.727  -4.065  1.00  0.00     0.090 A
ATOM     18  H5  UNL     1      -6.690  10.236  -2.804  1.00  0.00     0.165 HD
HETATM   19  C22 UNL     1      -5.065  12.662  -4.297  1.00  0.00     0.048 A
BRANCH  13  20
HETATM   20  O1  UNL     1      -1.703  11.185   0.501  1.00  0.00    -0.353 OA
HETATM   21  C1  UNL     1      -1.143  12.387   0.977  1.00  0.00     0.210 C
ENDBRANCH  13  20
BRANCH  14  22
HETATM   22  O3  UNL     1      -3.648   9.391   0.955  1.00  0.00    -0.348 OA
BRANCH  22  23
HETATM   23  C27 UNL     1      -4.341   9.443   2.149  1.00  0.00     0.177 C
BRANCH  23  24
HETATM   24  C28 UNL     1      -3.803  10.385   3.191  1.00  0.00     0.057 C
BRANCH  24  25
HETATM   25  C29 UNL     1      -4.739  11.585   3.402  1.00  0.00     0.274 C
BRANCH  25  26
HETATM   26  N6  UNL     1      -4.744  12.332   2.153  1.00  0.00     0.088 N
HETATM   27  C30 UNL     1      -4.244  13.681   2.297  1.00  0.00     0.272 C
HETATM   28  C31 UNL     1      -4.600  14.283   0.937  1.00  0.00     0.032 C
HETATM   29  C32 UNL     1      -5.931  13.623   0.651  1.00  0.00     0.032 C
HETATM   30  C33 UNL     1      -6.118  12.566   1.711  1.00  0.00     0.272 C
ENDBRANCH  25  26
ENDBRANCH  24  25
ENDBRANCH  23  24
ENDBRANCH  22  23
ENDBRANCH  14  22
ENDBRANCH   1   9
BRANCH   7  31
HETATM   31  C7  UNL     1       0.015  12.852  -4.630  1.00  0.00     0.074 A
HETATM   32  C8  UNL     1       0.397  12.218  -3.458  1.00  0.00     0.051 A
HETATM   33  C9  UNL     1       1.270  11.133  -3.480  1.00  0.00     0.083 A
HETATM   34  C11 UNL     1       1.801  10.627  -4.650  1.00  0.00     0.086 A
HETATM   35  C20 UNL     1       1.408  11.273  -5.804  1.00  0.00     0.066 A
HETATM   36  C21 UNL     1       0.549  12.346  -5.810  1.00  0.00     0.076 A
HETATM   37  N4  UNL     1       0.192  12.947  -7.042  1.00  0.00    -0.100 NA
BRANCH  33  38
HETATM   38  C10 UNL     1       1.634  10.511  -2.186  1.00  0.00     0.420 C
HETATM   39  F1  UNL     1       1.260   9.196  -2.199  1.00  0.00    -0.166 F
HETATM   40  F2  UNL     1       1.058  11.181  -1.121  1.00  0.00    -0.166 F
HETATM   41  F3  UNL     1       3.009  10.608  -1.966  1.00  0.00    -0.166 F
ENDBRANCH  33  38
BRANCH  34  42
HETATM   42  O2  UNL     1       2.653   9.551  -4.583  1.00  0.00    -0.345 OA
BRANCH  42  43
HETATM   43  C12 UNL     1       3.991   9.474  -4.913  1.00  0.00     0.129 C
HETATM   44  C13 UNL     1       4.237   9.066  -6.355  1.00  0.00     0.033 C
HETATM   45  C14 UNL     1       5.720   8.768  -6.511  1.00  0.00     0.011 C
HETATM   46  C15 UNL     1       6.568   9.952  -6.107  1.00  0.00    -0.048 C
HETATM   47  C16 UNL     1       6.449  11.094  -7.091  1.00  0.00     0.015 C
HETATM   48  C17 UNL     1       8.021   9.495  -6.095  1.00  0.00     0.015 C
HETATM   49  C18 UNL     1       6.221  10.456  -4.733  1.00  0.00     0.011 C
HETATM   50  C19 UNL     1       4.743  10.769  -4.688  1.00  0.00     0.033 C
ENDBRANCH  42  43
ENDBRANCH  34  42
ENDBRANCH   7  31
TORSDOF 11
ENDMDL