MODEL 4
REMARK VINA RESULT: -5.467569223      3.446      6.764
REMARK  11 active torsions:
REMARK  status: ('A' for Active; 'I' for Inactive)
REMARK    1  A    between atoms: C4_5  and  C5_6
REMARK    2  A    between atoms: C5_6  and  N1_8
REMARK    3  A    between atoms: N1_8  and  C7_11
REMARK    4  A    between atoms: C9_13  and  C10_14
REMARK    5  A    between atoms: C14_22  and  N2_23
REMARK    6  A    between atoms: N2_23  and  C15_25
REMARK    7  A    between atoms: C18_29  and  N3_30
REMARK    8  A    between atoms: N3_30  and  C19_32
REMARK    9  A    between atoms: C20_35  and  C21_36
REMARK       I    between atoms: C21_36  and  N5_38
REMARK   10  A    between atoms: N5_38  and  C22_40
REMARK   11  A    between atoms: C22_40  and  C23_41
ROOT
HETATM    1  C1  UNL     1       2.611   9.762   3.017  1.00  0.00     0.051 C
HETATM    2  C2  UNL     1       2.475  10.026   1.523  1.00  0.00    -0.028 A
HETATM    3  C3  UNL     1       2.970   9.102   0.644  1.00  0.00     0.059 A
HETATM    4  S1  UNL     1       2.616   9.775  -0.873  1.00  0.00    -0.101 SA
HETATM    5  C4  UNL     1       1.850  11.213  -0.370  1.00  0.00     0.040 A
HETATM    6  C18 UNL     1       1.890  11.128   0.992  1.00  0.00     0.055 A
ENDROOT
BRANCH   5   7
HETATM    7  C5  UNL     1       1.262  12.320  -1.234  1.00  0.00     0.224 C
HETATM    8  C6  UNL     1       2.293  12.732  -2.263  1.00  0.00     0.046 C
BRANCH   7   9
HETATM    9  N1  UNL     1       0.040  11.875  -1.828  1.00  0.00    -0.059 N
ATOM     10  H12 UNL     1       0.062  11.973  -2.843  1.00  0.00     0.278 HD
ATOM     11  H11 UNL     1      -0.055  10.861  -1.769  1.00  0.00     0.278 HD
BRANCH   9  12
HETATM   12  C7  UNL     1      -1.102  12.541  -1.262  1.00  0.00     0.210 C
HETATM   13  C8  UNL     1      -2.401  11.816  -1.660  1.00  0.00     0.023 C
HETATM   14  C9  UNL     1      -3.648  12.268  -1.476  1.00  0.00     0.059 C
HETATM   15  C11 UNL     1      -4.065  13.575  -0.867  1.00  0.00     0.019 A
HETATM   16  C12 UNL     1      -3.449  14.795  -1.046  1.00  0.00    -0.038 A
HETATM   17  C14 UNL     1      -5.203  13.593  -0.116  1.00  0.00     0.087 A
HETATM   18  C13 UNL     1      -4.019  15.881  -0.477  1.00  0.00     0.060 A
HETATM   19  C16 UNL     1      -2.112  14.992  -1.840  1.00  0.00     0.042 C
HETATM   20  S2  UNL     1      -5.387  15.285   0.309  1.00  0.00    -0.083 SA
HETATM   21  C17 UNL     1      -1.348  13.879  -1.571  1.00  0.00     0.042 C
BRANCH  14  22
HETATM   22  C10 UNL     1      -4.704  11.386  -1.945  1.00  0.00     0.418 C
HETATM   23  F1  UNL     1      -5.734  11.927  -2.680  1.00  0.00    -0.166 F
HETATM   24  F2  UNL     1      -4.031  10.891  -3.161  1.00  0.00    -0.166 F
HETATM   25  F3  UNL     1      -4.855  10.157  -1.402  1.00  0.00    -0.166 F
ENDBRANCH  14  22
BRANCH  17  26
HETATM   26  N2  UNL     1      -6.029  12.544   0.352  1.00  0.00    -0.328 N
ATOM     27  H2  UNL     1      -6.114  11.665  -0.159  1.00  0.00     0.168 HD
BRANCH  26  28
HETATM   28  C15 UNL     1      -6.737  12.770   1.569  1.00  0.00     0.353 C
HETATM   29  O1  UNL     1      -6.125  12.758   2.663  1.00  0.00    -0.283 OA
ENDBRANCH  26  28
ENDBRANCH  17  26
ENDBRANCH   9  12
ENDBRANCH   7   9
ENDBRANCH   5   7
BRANCH   6  30
HETATM   30  N3  UNL     1       1.329  12.189   1.832  1.00  0.00    -0.341 N
ATOM     31  H3  UNL     1       1.966  12.813   2.328  1.00  0.00     0.167 HD
BRANCH  30  32
HETATM   32  C19 UNL     1       0.071  12.361   1.965  1.00  0.00     0.112 A
HETATM   33  N4  UNL     1      -0.847  11.393   2.062  1.00  0.00    -0.338 N
HETATM   34  C20 UNL     1      -2.163  11.628   2.221  1.00  0.00     0.102 A
ATOM     35  H4  UNL     1      -0.533  10.424   2.012  1.00  0.00     0.167 HD
HETATM   36  C28 UNL     1      -2.609  12.949   2.290  1.00  0.00     0.036 A
HETATM   37  C29 UNL     1      -1.691  13.961   2.193  1.00  0.00     0.013 A
HETATM   38  C30 UNL     1      -0.353  13.684   2.032  1.00  0.00    -0.018 A
HETATM   39  C31 UNL     1       0.614  14.812   1.935  1.00  0.00     0.052 C
BRANCH  34  40
HETATM   40  C21 UNL     1      -3.112  10.537   2.333  1.00  0.00     0.268 C
HETATM   41  O2  UNL     1      -4.071  10.499   1.484  1.00  0.00    -0.266 OA
HETATM   42  N5  UNL     1      -3.075   9.511   3.298  1.00  0.00    -0.355 N
ATOM     43  H5  UNL     1      -2.323   9.511   3.986  1.00  0.00     0.162 HD
BRANCH  42  44
HETATM   44  C22 UNL     1      -4.066   8.455   3.347  1.00  0.00     0.127 C
BRANCH  44  45
HETATM   45  C23 UNL     1      -4.992   8.564   4.508  1.00  0.00     0.003 C
HETATM   46  C24 UNL     1      -5.894   9.764   4.496  1.00  0.00     0.006 C
HETATM   47  C25 UNL     1      -6.207  10.073   5.925  1.00  0.00     0.000 C
HETATM   48  C26 UNL     1      -5.193   9.392   6.760  1.00  0.00     0.000 C
HETATM   49  C27 UNL     1      -4.247   8.706   5.824  1.00  0.00     0.006 C
ENDBRANCH  44  45
ENDBRANCH  42  44
ENDBRANCH  34  40
ENDBRANCH  30  32
ENDBRANCH   6  30
TORSDOF 11
ENDMDL