MODEL 2
REMARK VINA RESULT: -5.592798409      1.595      2.499
REMARK  13 active torsions:
REMARK  status: ('A' for Active; 'I' for Inactive)
REMARK    1  A    between atoms: C5_6  and  O1_7
REMARK    2  A    between atoms: N2_9  and  C6_10
REMARK    3  A    between atoms: C7_14  and  O2_15
REMARK    4  A    between atoms: C23_32  and  N3_33
REMARK       I    between atoms: N3_33  and  C24_35
REMARK    5  A    between atoms: C24_35  and  C25_37
REMARK    6  A    between atoms: C25_37  and  C26_38
REMARK    7  A    between atoms: C26_38  and  C27_39
REMARK    8  A    between atoms: C27_39  and  C28_40
REMARK    9  A    between atoms: C28_40  and  C29_41
REMARK   10  A    between atoms: C29_41  and  C30_42
REMARK   11  A    between atoms: C30_42  and  C31_43
REMARK   12  A    between atoms: C31_43  and  C32_44
REMARK   13  A    between atoms: C32_44  and  N4_45
ROOT
HETATM    1  C1  UNL     1      -3.438  14.287  -2.539  1.00  0.00     0.153 C
HETATM    2  N1  UNL     1      -2.327  13.347  -2.792  1.00  0.00    -0.350 N
HETATM    3  C2  UNL     1      -2.377  12.065  -2.112  1.00  0.00     0.169 C
HETATM    4  C3  UNL     1      -3.778  11.533  -1.973  1.00  0.00     0.026 A
HETATM    5  C4  UNL     1      -4.464  11.076  -0.931  1.00  0.00     0.030 A
HETATM    6  C5  UNL     1      -5.725  10.709  -1.454  1.00  0.00     0.162 A
HETATM    7  N2  UNL     1      -5.793  10.940  -2.768  1.00  0.00    -0.212 N
HETATM    8  C7  UNL     1      -4.603  11.445  -3.096  1.00  0.00     0.160 A
HETATM    9  C8  UNL     1      -4.183  10.894   0.514  1.00  0.00    -0.060 C
HETATM   10  C9  UNL     1      -4.109   9.393   0.821  1.00  0.00     0.036 C
HETATM   11  C10 UNL     1      -4.617   8.992   2.150  1.00  0.00     0.004 C
HETATM   12  C11 UNL     1      -5.201  10.078   3.012  1.00  0.00     0.000 C
HETATM   13  C12 UNL     1      -4.131  11.002   3.461  1.00  0.00     0.001 C
HETATM   14  C13 UNL     1      -3.843  12.172   2.585  1.00  0.00     0.009 C
HETATM   15  C14 UNL     1      -3.225  11.699   1.227  1.00  0.00     0.015 C
HETATM   16  C15 UNL     1      -1.945  11.073   1.703  1.00  0.00     0.009 C
HETATM   17  C16 UNL     1      -1.125  11.907   2.608  1.00  0.00     0.001 C
HETATM   18  C17 UNL     1       0.344  11.662   2.325  1.00  0.00     0.000 C
HETATM   19  C18 UNL     1       0.608  12.036   0.880  1.00  0.00     0.000 C
HETATM   20  C19 UNL     1       1.921  12.732   0.662  1.00  0.00     0.000 C
HETATM   21  C20 UNL     1       1.671  14.036  -0.056  1.00  0.00     0.000 C
HETATM   22  C21 UNL     1       1.743  13.918  -1.570  1.00  0.00     0.002 C
HETATM   23  C22 UNL     1       0.464  13.322  -2.023  1.00  0.00     0.035 C
HETATM   24  C23 UNL     1       0.152  13.489  -3.508  1.00  0.00     0.176 C
HETATM   25  C33 UNL     1      -1.304  13.774  -3.673  1.00  0.00     0.242 C
HETATM   26  O4  UNL     1      -1.623  14.459  -4.696  1.00  0.00    -0.271 OA
ENDROOT
BRANCH  24  27
HETATM   27  N3  UNL     1       0.630  12.398  -4.285  1.00  0.00    -0.348 N
HETATM   28  C24 UNL     1       1.332  12.540  -5.530  1.00  0.00     0.218 C
HETATM   29  O3  UNL     1       1.563  13.689  -6.006  1.00  0.00    -0.274 OA
ATOM     30  H3  UNL     1       0.463  11.454  -3.936  1.00  0.00     0.163 HD
BRANCH  28  31
HETATM   31  C25 UNL     1       1.809  11.381  -6.298  1.00  0.00     0.103 C
BRANCH  31  32
HETATM   32  C26 UNL     1       2.575  10.397  -5.500  1.00  0.00     0.009 C
BRANCH  32  33
HETATM   33  C27 UNL     1       3.815  10.864  -4.837  1.00  0.00     0.000 C
BRANCH  33  34
HETATM   34  C28 UNL     1       4.905  11.309  -5.788  1.00  0.00     0.000 C
BRANCH  34  35
HETATM   35  C29 UNL     1       6.160  10.426  -5.631  1.00  0.00     0.000 C
BRANCH  35  36
HETATM   36  C30 UNL     1       6.046   9.368  -6.671  1.00  0.00     0.002 C
BRANCH  36  37
HETATM   37  C31 UNL     1       5.785   7.983  -6.249  1.00  0.00     0.027 C
BRANCH  37  38
HETATM   38  C32 UNL     1       4.357   7.543  -6.288  1.00  0.00     0.229 C
BRANCH  38  39
HETATM   39  N4  UNL     1       4.240   6.109  -6.255  1.00  0.00    -0.079 N
ATOM     40  H43 UNL     1       4.039   5.731  -7.181  1.00  0.00     0.274 HD
ATOM     41  H42 UNL     1       5.144   5.665  -6.095  1.00  0.00     0.274 HD
ATOM     42  H41 UNL     1       3.549   5.802  -5.570  1.00  0.00     0.274 HD
ENDBRANCH  38  39
ENDBRANCH  37  38
ENDBRANCH  36  37
ENDBRANCH  35  36
ENDBRANCH  34  35
ENDBRANCH  33  34
ENDBRANCH  32  33
ENDBRANCH  31  32
ENDBRANCH  28  31
ENDBRANCH  24  27
BRANCH   8  43
HETATM   43  O2  UNL     1      -4.326  11.805  -4.425  1.00  0.00    -0.345 OA
ATOM     44  H2  UNL     1      -4.243  11.247  -5.189  1.00  0.00     0.219 HD
ENDBRANCH   8  43
BRANCH   6  45
HETATM   45  O1  UNL     1      -6.832  10.167  -0.786  1.00  0.00    -0.345 OA
ATOM     46  H1  UNL     1      -6.854   9.499  -0.112  1.00  0.00     0.219 HD
ENDBRANCH   6  45
BRANCH   7  47
HETATM   47  C6  UNL     1      -6.943  10.686  -3.648  1.00  0.00     0.494 C
HETATM   48  F1  UNL     1      -8.109  10.771  -2.911  1.00  0.00    -0.150 F
HETATM   49  F2  UNL     1      -6.809   9.388  -4.118  1.00  0.00    -0.150 F
HETATM   50  F3  UNL     1      -6.910  11.548  -4.697  1.00  0.00    -0.150 F
ENDBRANCH   7  47
TORSDOF 13
ENDMDL