MODEL 3
REMARK VINA RESULT: -7.174805966      5.290      5.880
REMARK  11 active torsions:
REMARK  status: ('A' for Active; 'I' for Inactive)
REMARK    1  A    between atoms: C2_2  and  C3_3
REMARK    2  A    between atoms: C3_3  and  N1_4
REMARK    3  A    between atoms: N1_4  and  C4_6
REMARK    4  A    between atoms: C4_6  and  C5_7
REMARK    5  A    between atoms: C8_10  and  C9_11
REMARK    6  A    between atoms: C9_11  and  N2_12
REMARK    7  A    between atoms: C12_15  and  C13_16
REMARK    8  A    between atoms: C17_21  and  O1_22
REMARK    9  A    between atoms: N3_32  and  C25_33
REMARK   10  A    between atoms: N6_40  and  C27_41
REMARK   11  A    between atoms: C33_47  and  O2_48
ROOT
HETATM    1  N1  UNL     1      -1.605  11.304   1.763  1.00  0.00    -0.401 N
ATOM      2  H1  UNL     1      -1.402  10.819   2.637  1.00  0.00     0.158 HD
ENDROOT
BRANCH   1   3
HETATM    3  C3  UNL     1      -2.742  11.007   1.010  1.00  0.00     0.069 C
BRANCH   3   4
HETATM    4  C2  UNL     1      -3.823  10.327   1.846  1.00  0.00     0.038 C
HETATM    5  C1  UNL     1      -4.517   9.299   0.990  1.00  0.00     0.026 C
HETATM    6  C23 UNL     1      -4.942  11.397   2.029  1.00  0.00     0.039 C
HETATM    7  C24 UNL     1      -4.675  11.820   3.459  1.00  0.00     0.129 C
HETATM    8  N3  UNL     1      -4.405  10.491   4.054  1.00  0.00    -0.332 N
HETATM    9  C34 UNL     1      -3.432   9.871   3.187  1.00  0.00     0.286 C
HETATM   10  F3  UNL     1      -3.422   8.470   3.316  1.00  0.00    -0.226 F
BRANCH   8  11
HETATM   11  C25 UNL     1      -5.100  10.061   5.214  1.00  0.00     0.173 A
HETATM   12  N4  UNL     1      -4.609   9.809   6.431  1.00  0.00    -0.172 N
HETATM   13  C26 UNL     1      -5.693   9.477   7.234  1.00  0.00     0.682 A
ATOM     14  H4  UNL     1      -3.630   9.852   6.715  1.00  0.00     0.186 HD
HETATM   15  N5  UNL     1      -5.493   9.196   8.483  1.00  0.00    -0.234 N
HETATM   16  N6  UNL     1      -6.804   9.514   6.541  1.00  0.00    -0.154 N
ATOM     17  H52 UNL     1      -4.628   9.167   9.023  1.00  0.00     0.174 HD
ATOM     18  H51 UNL     1      -6.289   8.953   9.073  1.00  0.00     0.174 HD
HETATM   19  C33 UNL     1      -6.493   9.866   5.306  1.00  0.00     0.203 A
BRANCH  16  20
HETATM   20  C27 UNL     1      -8.165   9.232   6.990  1.00  0.00     0.110 C
HETATM   21  C28 UNL     1      -8.390   9.944   8.265  1.00  0.00     0.026 C
HETATM   22  C29 UNL     1      -9.581   9.464   9.083  1.00  0.00     0.002 C
HETATM   23  C30 UNL     1      -9.491   7.963   9.212  1.00  0.00     0.000 C
HETATM   24  C31 UNL     1      -9.691   7.454   7.779  1.00  0.00     0.002 C
HETATM   25  C32 UNL     1      -8.409   7.772   7.048  1.00  0.00     0.026 C
ENDBRANCH  16  20
BRANCH  19  26
HETATM   26  O2  UNL     1      -7.290  10.054   4.157  1.00  0.00    -0.343 OA
ATOM     27  H2  UNL     1      -7.985   9.434   3.969  1.00  0.00     0.219 HD
ENDBRANCH  19  26
ENDBRANCH   8  11
ENDBRANCH   3   4
ENDBRANCH   1   3
BRANCH   1  28
HETATM   28  C4  UNL     1      -0.739  12.323   1.248  1.00  0.00     0.123 C
BRANCH  28  29
HETATM   29  C5  UNL     1       0.490  12.681   1.970  1.00  0.00     0.003 C
HETATM   30  C6  UNL     1       1.248  11.390   2.313  1.00  0.00     0.007 C
HETATM   31  C7  UNL     1       2.154  11.032   1.178  1.00  0.00     0.010 C
HETATM   32  C8  UNL     1       3.104  12.098   0.764  1.00  0.00     0.024 C
HETATM   33  C21 UNL     1       2.363  13.402   0.426  1.00  0.00     0.010 C
HETATM   34  C22 UNL     1       1.420  13.710   1.545  1.00  0.00     0.007 C
BRANCH  32  35
HETATM   35  C9  UNL     1       4.299  12.334   1.619  1.00  0.00     0.067 C
BRANCH  35  36
HETATM   36  N2  UNL     1       5.176  11.254   1.824  1.00  0.00    -0.373 N
HETATM   37  C10 UNL     1       5.871  10.806   0.674  1.00  0.00     0.131 C
HETATM   38  C11 UNL     1       5.963   9.311   0.459  1.00  0.00     0.055 C
HETATM   39  C12 UNL     1       6.104   8.589   1.775  1.00  0.00    -0.057 C
HETATM   40  C19 UNL     1       5.384   9.143   2.931  1.00  0.00     0.080 C
HETATM   41  C20 UNL     1       5.241  10.617   3.049  1.00  0.00     0.067 C
BRANCH  39  42
HETATM   42  C13 UNL     1       7.246   7.715   1.946  1.00  0.00     0.047 A
HETATM   43  C14 UNL     1       7.325   6.528   1.258  1.00  0.00     0.130 A
HETATM   44  F1  UNL     1       6.194   6.095   0.630  1.00  0.00    -0.205 F
HETATM   45  C15 UNL     1       8.429   5.704   1.201  1.00  0.00     0.046 A
HETATM   46  C16 UNL     1       9.575   6.056   1.867  1.00  0.00     0.043 A
HETATM   47  C17 UNL     1       9.562   7.255   2.590  1.00  0.00     0.105 A
HETATM   48  C18 UNL     1       8.447   8.057   2.635  1.00  0.00     0.162 A
HETATM   49  F2  UNL     1       8.447   9.217   3.317  1.00  0.00    -0.202 F
BRANCH  47  50
HETATM   50  O1  UNL     1      10.740   7.574   3.246  1.00  0.00    -0.358 OA
ATOM     51  H1  UNL     1      10.646   7.843   4.153  1.00  0.00     0.217 HD
ENDBRANCH  47  50
ENDBRANCH  39  42
ENDBRANCH  35  36
ENDBRANCH  32  35
ENDBRANCH  28  29
ENDBRANCH   1  28
TORSDOF 11
ENDMDL