MODEL 5
REMARK VINA RESULT: -5.712932811      1.016      1.934
REMARK  10 active torsions:
REMARK  status: ('A' for Active; 'I' for Inactive)
REMARK    1  A    between atoms: O1_2  and  C2_3
REMARK    2  A    between atoms: C3_4  and  N1_5
REMARK       I    between atoms: N1_5  and  C4_7
REMARK       I    between atoms: C4_7  and  N2_9
REMARK    3  A    between atoms: N2_9  and  C5_11
REMARK    4  A    between atoms: C8_14  and  S1_15
REMARK    5  A    between atoms: C10_17  and  C11_18
REMARK    6  A    between atoms: C14_24  and  N3_25
REMARK    7  A    between atoms: C17_28  and  N4_29
REMARK    8  A    between atoms: C20_32  and  C21_33
REMARK    9  A    between atoms: C26_38  and  N5_39
REMARK       I    between atoms: N5_39  and  C27_41
REMARK       I    between atoms: C27_41  and  N6_43
REMARK   10  A    between atoms: N6_43  and  C28_45
ROOT
HETATM    1  C2  UNL     1       2.996  10.885   1.251  1.00  0.00     0.122 A
HETATM    2  C3  UNL     1       3.229  10.040   0.153  1.00  0.00     0.074 A
HETATM    3  C13 UNL     1       2.917  10.433  -1.109  1.00  0.00     0.062 A
HETATM    4  C14 UNL     1       2.355  11.690  -1.348  1.00  0.00     0.034 A
HETATM    5  C25 UNL     1       2.130  12.513  -0.266  1.00  0.00     0.062 A
HETATM    6  C26 UNL     1       2.439  12.137   1.028  1.00  0.00     0.074 A
ENDROOT
BRANCH   2   7
HETATM    7  N1  UNL     1       3.789   8.788   0.452  1.00  0.00    -0.306 N
HETATM    8  C4  UNL     1       5.174   8.517   0.526  1.00  0.00     0.325 C
HETATM    9  O2  UNL     1       6.103   9.326   0.346  1.00  0.00    -0.247 OA
HETATM   10  N2  UNL     1       5.509   7.142   0.848  1.00  0.00    -0.309 N
ATOM     11  H2  UNL     1       4.750   6.475   0.989  1.00  0.00     0.170 HD
ATOM     12  H1  UNL     1       3.148   8.015   0.629  1.00  0.00     0.171 HD
BRANCH  10  13
HETATM   13  C5  UNL     1       6.821   6.696   0.971  1.00  0.00     0.037 A
HETATM   14  C6  UNL     1       7.663   6.824   2.037  1.00  0.00     0.031 A
HETATM   15  C7  UNL     1       8.987   6.366   2.049  1.00  0.00     0.021 A
HETATM   16  C8  UNL     1       9.487   5.745   0.923  1.00  0.00     0.015 A
HETATM   17  C10 UNL     1       8.652   5.608  -0.158  1.00  0.00     0.066 A
HETATM   18  C12 UNL     1       7.353   6.058  -0.168  1.00  0.00     0.047 A
BRANCH  16  19
HETATM   19  S1  UNL     1      11.160   5.131   0.858  1.00  0.00    -0.134 SA
HETATM   20  C9  UNL     1      12.034   5.276   2.414  1.00  0.00     0.095 C
ENDBRANCH  16  19
BRANCH  17  21
HETATM   21  C11 UNL     1       9.224   4.924  -1.373  1.00  0.00     0.418 C
HETATM   22  F1  UNL     1       9.476   3.608  -1.041  1.00  0.00    -0.166 F
HETATM   23  F2  UNL     1      10.317   5.566  -1.864  1.00  0.00    -0.166 F
HETATM   24  F3  UNL     1       8.171   4.868  -2.296  1.00  0.00    -0.166 F
ENDBRANCH  17  21
ENDBRANCH  10  13
ENDBRANCH   2   7
BRANCH   1  25
HETATM   25  O1  UNL     1       3.303  10.508   2.531  1.00  0.00    -0.351 OA
HETATM   26  C1  UNL     1       2.453   9.765   3.373  1.00  0.00     0.210 C
ENDBRANCH   1  25
BRANCH   6  27
HETATM   27  N5  UNL     1       2.219  12.956   2.147  1.00  0.00    -0.306 N
HETATM   28  C27 UNL     1       2.889  14.149   2.451  1.00  0.00     0.321 C
HETATM   29  O3  UNL     1       3.786  14.670   1.777  1.00  0.00    -0.247 OA
HETATM   30  N6  UNL     1       2.497  14.837   3.667  1.00  0.00    -0.338 N
ATOM     31  H6  UNL     1       1.764  14.460   4.267  1.00  0.00     0.164 HD
ATOM     32  H5  UNL     1       1.500  12.653   2.804  1.00  0.00     0.171 HD
BRANCH  30  33
HETATM   33  C28 UNL     1       3.168  16.065   4.004  1.00  0.00     0.086 C
HETATM   34  C29 UNL     1       4.220  15.817   5.073  1.00  0.00     0.025 C
HETATM   35  C30 UNL     1       3.099  15.998   6.097  1.00  0.00     0.004 C
HETATM   36  C31 UNL     1       2.396  16.856   5.064  1.00  0.00     0.025 C
ENDBRANCH  30  33
ENDBRANCH   6  27
BRANCH   4  37
HETATM   37  N3  UNL     1       2.064  12.045  -2.699  1.00  0.00    -0.380 N
HETATM   38  C15 UNL     1       2.802  11.434  -3.753  1.00  0.00     0.125 C
HETATM   39  C16 UNL     1       1.820  11.059  -4.870  1.00  0.00     0.056 C
HETATM   40  C17 UNL     1       1.181  12.350  -5.302  1.00  0.00     0.229 C
HETATM   41  C20 UNL     1       0.355  12.966  -4.251  1.00  0.00     0.041 C
HETATM   42  C24 UNL     1       1.011  13.018  -2.901  1.00  0.00     0.130 C
BRANCH  40  43
HETATM   43  N4  UNL     1       0.645  12.357  -6.622  1.00  0.00     0.085 N
HETATM   44  C18 UNL     1       0.274  13.759  -6.987  1.00  0.00     0.309 C
HETATM   45  C19 UNL     1       1.621  12.012  -7.650  1.00  0.00     0.309 C
ENDBRANCH  40  43
BRANCH  41  46
HETATM   46  C21 UNL     1      -1.042  12.433  -4.112  1.00  0.00    -0.007 A
HETATM   47  C22 UNL     1      -2.197  13.378  -4.150  1.00  0.00     0.005 A
HETATM   48  C23 UNL     1      -1.863  12.615  -2.915  1.00  0.00     0.005 A
ENDBRANCH  41  46
ENDBRANCH   4  37
TORSDOF 10
ENDMDL