MODEL 3
REMARK VINA RESULT: -8.068693261      0.935      1.512
REMARK  2 active torsions:
REMARK  status: ('A' for Active; 'I' for Inactive)
REMARK    1  A    between atoms: C21_24  and  O2_25
REMARK    2  A    between atoms: C21_24  and  C22_27
ROOT
HETATM    1  C1  UNL     1       2.800  -7.448 -25.328  1.00  0.00     0.018 C
HETATM    2  C2  UNL     1       1.743  -6.874 -26.105  1.00  0.00    -0.014 C
HETATM    3  C3  UNL     1       1.499  -7.601 -27.437  1.00  0.00     0.012 C
HETATM    4  C4  UNL     1       0.429  -6.925 -27.899  1.00  0.00     0.008 C
HETATM    5  C5  UNL     1       0.211  -5.923 -26.792  1.00  0.00     0.019 C
HETATM    6  C6  UNL     1       0.313  -6.936 -25.641  1.00  0.00     0.019 C
HETATM    7  C7  UNL     1       1.651  -5.482 -26.589  1.00  0.00     0.083 C
HETATM    8  N1  UNL     1       2.276  -5.371 -27.905  1.00  0.00    -0.356 N
ATOM      9  H1  UNL     1       1.701  -5.804 -28.627  1.00  0.00     0.162 HD
HETATM   10  C8  UNL     1       3.335  -4.882 -28.390  1.00  0.00     0.155 C
HETATM   11  C9  UNL     1       3.669  -4.943 -29.795  1.00  0.00     0.015 A
HETATM   12  C10 UNL     1       4.838  -4.406 -30.294  1.00  0.00     0.016 A
HETATM   13  C11 UNL     1       5.152  -4.462 -31.643  1.00  0.00     0.001 A
HETATM   14  C12 UNL     1       4.280  -5.068 -32.521  1.00  0.00     0.000 A
HETATM   15  C13 UNL     1       3.117  -5.606 -32.050  1.00  0.00     0.001 A
HETATM   16  C14 UNL     1       2.829  -5.536 -30.693  1.00  0.00     0.016 A
HETATM   17  O1  UNL     1       4.313  -4.223 -27.636  1.00  0.00    -0.293 OA
HETATM   18  C15 UNL     1       4.378  -4.012 -26.278  1.00  0.00     0.087 A
HETATM   19  C16 UNL     1       5.668  -3.755 -25.881  1.00  0.00     0.038 A
HETATM   20  C17 UNL     1       5.929  -3.524 -24.571  1.00  0.00     0.003 A
HETATM   21  C18 UNL     1       4.885  -3.554 -23.670  1.00  0.00     0.001 A
HETATM   22  C19 UNL     1       3.593  -3.813 -24.085  1.00  0.00     0.013 A
HETATM   23  C20 UNL     1       3.284  -4.057 -25.426  1.00  0.00     0.017 A
HETATM   24  C21 UNL     1       1.850  -4.313 -25.703  1.00  0.00     0.141 C
ENDROOT
BRANCH  24  25
HETATM   25  O2  UNL     1       1.313  -4.636 -24.441  1.00  0.00    -0.377 OA
ATOM     26  H2  UNL     1       1.909  -5.245 -24.021  1.00  0.00     0.211 HD
ENDBRANCH  24  25
BRANCH  24  27
HETATM   27  C22 UNL     1       1.142  -3.079 -26.103  1.00  0.00    -0.017 A
HETATM   28  C23 UNL     1       1.679  -1.983 -26.712  1.00  0.00     0.011 A
HETATM   29  C24 UNL     1       0.945  -0.864 -27.054  1.00  0.00     0.001 A
HETATM   30  C25 UNL     1      -0.388  -0.831 -26.777  1.00  0.00     0.000 A
HETATM   31  C26 UNL     1      -0.990  -1.897 -26.166  1.00  0.00     0.001 A
HETATM   32  C27 UNL     1      -0.218  -2.995 -25.842  1.00  0.00     0.011 A
ENDBRANCH  24  27
TORSDOF 2
ENDMDL