MODEL 4
REMARK VINA RESULT: -8.426151616      4.282      7.116
REMARK  3 active torsions:
REMARK  status: ('A' for Active; 'I' for Inactive)
REMARK       I    between atoms: C1_2  and  N1_3
REMARK       I    between atoms: C1_2  and  N3_15
REMARK    1  A    between atoms: N1_3  and  C2_5
REMARK    2  A    between atoms: C9_18  and  C10_19
REMARK    3  A    between atoms: C17_26  and  C18_27
ROOT
HETATM    1  O1  UNL     1       5.117  -4.942 -24.869  1.00  0.00    -0.245 OA
HETATM    2  C1  UNL     1       4.914  -5.730 -23.922  1.00  0.00     0.343 C
HETATM    3  N1  UNL     1       5.488  -5.431 -22.661  1.00  0.00    -0.287 N
ATOM      4  H1  UNL     1       6.465  -5.638 -22.452  1.00  0.00     0.172 HD
HETATM    5  N3  UNL     1       4.118  -6.878 -24.165  1.00  0.00    -0.233 N
HETATM    6  N4  UNL     1       3.476  -7.315 -25.319  1.00  0.00    -0.297 N
ATOM      7  H4  UNL     1       3.794  -7.130 -26.270  1.00  0.00     0.187 HD
HETATM    8  C9  UNL     1       2.410  -7.996 -25.010  1.00  0.00     0.038 C
HETATM    9  C16 UNL     1       2.308  -8.042 -23.523  1.00  0.00     0.091 C
HETATM   10  C17 UNL     1       3.780  -7.912 -23.172  1.00  0.00     0.151 C
ENDROOT
BRANCH  10  11
HETATM   11  C18 UNL     1       4.548  -9.111 -23.486  1.00  0.00    -0.033 A
HETATM   12  C19 UNL     1       4.002 -10.384 -23.571  1.00  0.00     0.009 A
HETATM   13  C20 UNL     1       4.750 -11.512 -23.875  1.00  0.00     0.001 A
HETATM   14  C21 UNL     1       6.103 -11.363 -24.103  1.00  0.00     0.000 A
HETATM   15  C22 UNL     1       6.682 -10.129 -24.031  1.00  0.00     0.001 A
HETATM   16  C23 UNL     1       5.900  -9.009 -23.721  1.00  0.00     0.009 A
ENDBRANCH  10  11
BRANCH   3  17
HETATM   17  C2  UNL     1       4.690  -4.870 -21.773  1.00  0.00     0.153 A
HETATM   18  N2  UNL     1       4.059  -5.471 -20.765  1.00  0.00    -0.335 N
HETATM   19  C3  UNL     1       3.299  -4.735 -19.978  1.00  0.00     0.051 A
ATOM     20  H2  UNL     1       4.160  -6.473 -20.607  1.00  0.00     0.168 HD
HETATM   21  C4  UNL     1       2.558  -5.192 -18.870  1.00  0.00     0.031 A
HETATM   22  C8  UNL     1       3.208  -3.402 -20.247  1.00  0.00     0.035 A
HETATM   23  C5  UNL     1       1.808  -4.351 -18.125  1.00  0.00     0.002 A
HETATM   24  C6  UNL     1       1.700  -3.004 -18.375  1.00  0.00     0.002 A
HETATM   25  C7  UNL     1       2.423  -2.536 -19.463  1.00  0.00     0.021 A
HETATM   26  S1  UNL     1       4.213  -3.240 -21.618  1.00  0.00    -0.052 SA
ENDBRANCH   3  17
BRANCH   8  27
HETATM   27  C10 UNL     1       1.448  -8.634 -25.896  1.00  0.00    -0.012 A
HETATM   28  C11 UNL     1       0.740  -9.761 -25.540  1.00  0.00     0.013 A
HETATM   29  C12 UNL     1      -0.173 -10.368 -26.378  1.00  0.00     0.001 A
HETATM   30  C13 UNL     1      -0.414  -9.858 -27.624  1.00  0.00     0.000 A
HETATM   31  C14 UNL     1       0.278  -8.730 -28.011  1.00  0.00     0.001 A
HETATM   32  C15 UNL     1       1.187  -8.131 -27.169  1.00  0.00     0.013 A
ENDBRANCH   8  27
TORSDOF 3
ENDMDL