MODEL 5
REMARK VINA RESULT: -8.590027289      3.134      6.825
REMARK  3 active torsions:
REMARK  status: ('A' for Active; 'I' for Inactive)
REMARK    1  A    between atoms: C7_10  and  O3_11
REMARK    2  A    between atoms: C7_10  and  C8_13
REMARK    3  A    between atoms: C17_22  and  C18_23
ROOT
HETATM    1  O1  UNL     1       2.856  -3.395 -26.242  1.00  0.00    -0.217 OA
HETATM    2  S1  UNL     1       2.134  -4.552 -25.653  1.00  0.00     0.208 S
HETATM    3  O2  UNL     1       0.703  -4.257 -25.363  1.00  0.00    -0.217 OA
HETATM    4  C1  UNL     1       2.957  -5.205 -24.243  1.00  0.00     0.074 A
HETATM    5  C2  UNL     1       3.660  -4.337 -23.394  1.00  0.00     0.024 A
HETATM    6  C3  UNL     1       4.293  -4.859 -22.287  1.00  0.00     0.002 A
HETATM    7  C4  UNL     1       4.206  -6.220 -22.063  1.00  0.00     0.001 A
HETATM    8  C5  UNL     1       3.524  -7.076 -22.882  1.00  0.00     0.012 A
HETATM    9  C6  UNL     1       2.871  -6.556 -24.022  1.00  0.00     0.007 A
HETATM   10  C7  UNL     1       2.142  -7.483 -24.885  1.00  0.00     0.143 C
HETATM   11  C14 UNL     1       2.154  -7.189 -26.315  1.00  0.00     0.007 A
HETATM   12  C15 UNL     1       2.159  -8.224 -27.251  1.00  0.00     0.013 A
HETATM   13  C16 UNL     1       2.164  -7.942 -28.600  1.00  0.00     0.013 A
HETATM   14  C17 UNL     1       2.163  -6.660 -29.095  1.00  0.00    -0.025 A
HETATM   15  C24 UNL     1       2.157  -5.655 -28.155  1.00  0.00     0.036 A
HETATM   16  C25 UNL     1       2.152  -5.910 -26.802  1.00  0.00     0.075 A
ENDROOT
BRANCH  10  17
HETATM   17  O3  UNL     1       0.785  -7.390 -24.482  1.00  0.00    -0.375 OA
ATOM     18  H3  UNL     1       0.361  -8.161 -24.840  1.00  0.00     0.211 HD
ENDBRANCH  10  17
BRANCH  10  19
HETATM   19  C8  UNL     1       2.601  -8.870 -24.598  1.00  0.00    -0.015 A
HETATM   20  C9  UNL     1       1.653  -9.829 -24.333  1.00  0.00     0.011 A
HETATM   21  C10 UNL     1       1.987 -11.135 -24.061  1.00  0.00     0.001 A
HETATM   22  C11 UNL     1       3.326 -11.480 -24.056  1.00  0.00     0.000 A
HETATM   23  C12 UNL     1       4.312 -10.551 -24.316  1.00  0.00     0.001 A
HETATM   24  C13 UNL     1       3.929  -9.254 -24.584  1.00  0.00     0.011 A
ENDBRANCH  10  19
BRANCH  14  25
HETATM   25  C18 UNL     1       2.167  -6.359 -30.519  1.00  0.00    -0.026 A
HETATM   26  C19 UNL     1       3.261  -5.758 -31.102  1.00  0.00     0.012 A
HETATM   27  C20 UNL     1       3.227  -5.486 -32.464  1.00  0.00     0.001 A
HETATM   28  C21 UNL     1       2.116  -5.811 -33.239  1.00  0.00     0.000 A
HETATM   29  C22 UNL     1       1.020  -6.414 -32.654  1.00  0.00     0.001 A
HETATM   30  C23 UNL     1       1.068  -6.678 -31.299  1.00  0.00     0.012 A
ENDBRANCH  14  25
TORSDOF 3
ENDMDL