MODEL 1
REMARK VINA RESULT: -10.930872420      0.000      0.000
REMARK  3 active torsions:
REMARK  status: ('A' for Active; 'I' for Inactive)
REMARK    1  A    between atoms: C6_9  and  N3_10
REMARK       I    between atoms: N3_10  and  C7_12
REMARK    2  A    between atoms: C7_12  and  C8_14
REMARK    3  A    between atoms: C11_17  and  C12_18
ROOT
HETATM    1  N1  UNL     1       6.282 -15.225 -25.009  1.00  0.00    -0.191 NA
HETATM    2  C1  UNL     1       7.247 -14.614 -25.198  1.00  0.00     0.103 C
HETATM    3  C2  UNL     1       8.455 -13.882 -25.464  1.00  0.00     0.086 A
HETATM    4  C3  UNL     1       9.261 -14.350 -26.513  1.00  0.00     0.112 A
HETATM    5  N2  UNL     1      10.393 -13.684 -26.781  1.00  0.00    -0.374 N
ATOM      6  H2  UNL     1      10.992 -14.010 -27.540  1.00  0.00     0.164 HD
HETATM    7  C4  UNL     1      10.760 -12.598 -26.077  1.00  0.00     0.090 A
HETATM    8  C5  UNL     1       9.981 -12.142 -25.061  1.00  0.00     0.048 A
HETATM    9  C6  UNL     1       8.766 -12.785 -24.707  1.00  0.00     0.058 A
ENDROOT
BRANCH   9  10
HETATM   10  N3  UNL     1       8.109 -12.316 -23.772  1.00  0.00    -0.321 N
HETATM   11  C7  UNL     1       7.527 -11.134 -23.414  1.00  0.00     0.256 C
HETATM   12  O1  UNL     1       8.203 -10.245 -22.822  1.00  0.00    -0.267 OA
ATOM     13  H3  UNL     1       7.955 -13.024 -23.053  1.00  0.00     0.169 HD
BRANCH  11  14
HETATM   14  C8  UNL     1       6.092 -10.878 -23.710  1.00  0.00     0.032 A
HETATM   15  C9  UNL     1       5.457 -11.629 -24.660  1.00  0.00     0.018 A
HETATM   16  C10 UNL     1       4.151 -11.421 -24.953  1.00  0.00     0.013 A
HETATM   17  C11 UNL     1       3.460 -10.428 -24.273  1.00  0.00    -0.024 A
HETATM   18  C25 UNL     1       4.102  -9.688 -23.332  1.00  0.00     0.013 A
HETATM   19  C26 UNL     1       5.436  -9.885 -23.017  1.00  0.00     0.018 A
BRANCH  17  20
HETATM   20  C12 UNL     1       2.050 -10.257 -24.642  1.00  0.00    -0.001 A
HETATM   21  C13 UNL     1       1.077 -11.160 -24.249  1.00  0.00     0.003 A
HETATM   22  C14 UNL     1       1.467 -12.249 -23.489  1.00  0.00     0.014 A
HETATM   23  C18 UNL     1      -0.263 -10.991 -24.603  1.00  0.00     0.043 A
HETATM   24  C15 UNL     1       0.523 -13.157 -23.088  1.00  0.00     0.001 A
HETATM   25  C16 UNL     1      -0.794 -12.973 -23.446  1.00  0.00     0.002 A
HETATM   26  C17 UNL     1      -1.224 -11.904 -24.203  1.00  0.00     0.030 A
HETATM   27  N4  UNL     1      -0.607  -9.926 -25.339  1.00  0.00    -0.355 N
HETATM   28  C19 UNL     1       0.297  -8.998 -25.760  1.00  0.00     0.043 A
ATOM     29  H4  UNL     1      -1.587  -9.806 -25.596  1.00  0.00     0.166 HD
HETATM   30  C20 UNL     1      -0.113  -7.925 -26.513  1.00  0.00     0.030 A
HETATM   31  C24 UNL     1       1.626  -9.184 -25.399  1.00  0.00     0.003 A
HETATM   32  C21 UNL     1       0.829  -7.010 -26.919  1.00  0.00     0.002 A
HETATM   33  C22 UNL     1       2.150  -7.187 -26.563  1.00  0.00     0.001 A
HETATM   34  C23 UNL     1       2.561  -8.264 -25.807  1.00  0.00     0.014 A
ENDBRANCH  17  20
ENDBRANCH  11  14
ENDBRANCH   9  10
TORSDOF 3
ENDMDL