MODEL 1
REMARK VINA RESULT: -8.257427229      0.000      0.000
REMARK  5 active torsions:
REMARK  status: ('A' for Active; 'I' for Inactive)
REMARK    1  A    between atoms: C3_5  and  C4_6
REMARK    2  A    between atoms: C12_16  and  C13_17
REMARK    3  A    between atoms: C14_18  and  C15_19
REMARK    4  A    between atoms: C18_22  and  C19_23
REMARK       I    between atoms: C19_23  and  N3_25
REMARK    5  A    between atoms: N3_25  and  C20_26
ROOT
HETATM    1  C1  UNL     1       8.872 -10.711 -24.332  1.00  0.00     0.071 C
HETATM    2  C2  UNL     1       9.403 -11.997 -24.906  1.00  0.00     0.041 A
HETATM    3  N1  UNL     1      10.731 -12.082 -25.202  1.00  0.00    -0.355 N
ATOM      4  H1  UNL     1      11.348 -11.288 -25.034  1.00  0.00     0.166 HD
HETATM    5  C3  UNL     1      11.222 -13.233 -25.723  1.00  0.00     0.065 A
HETATM    6  C10 UNL     1      10.400 -14.291 -25.945  1.00  0.00     0.034 A
HETATM    7  C11 UNL     1      10.914 -15.551 -26.497  1.00  0.00     0.070 C
HETATM    8  N2  UNL     1       9.082 -14.171 -25.638  1.00  0.00    -0.349 N
ATOM      9  H2  UNL     1       8.466 -14.966 -25.808  1.00  0.00     0.166 HD
HETATM   10  C12 UNL     1       8.562 -13.061 -25.127  1.00  0.00     0.110 A
ENDROOT
BRANCH  10  11
HETATM   11  C13 UNL     1       7.168 -13.010 -24.812  1.00  0.00    -0.041 C
HETATM   12  C14 UNL     1       5.962 -12.952 -24.579  1.00  0.00    -0.060 C
BRANCH  12  13
HETATM   13  C15 UNL     1       4.552 -12.864 -24.352  1.00  0.00     0.018 A
HETATM   14  C16 UNL     1       3.986 -11.661 -23.906  1.00  0.00     0.022 A
HETATM   15  C17 UNL     1       2.632 -11.561 -23.679  1.00  0.00     0.020 A
HETATM   16  C18 UNL     1       1.837 -12.655 -23.894  1.00  0.00     0.046 A
HETATM   17  C24 UNL     1       2.327 -13.845 -24.325  1.00  0.00     0.020 A
HETATM   18  C25 UNL     1       3.720 -13.918 -24.550  1.00  0.00     0.022 A
BRANCH  16  19
HETATM   19  C19 UNL     1       0.370 -12.532 -23.637  1.00  0.00     0.321 C
HETATM   20  O1  UNL     1      -0.019 -13.200 -22.647  1.00  0.00    -0.251 OA
HETATM   21  N3  UNL     1      -0.362 -11.721 -24.482  1.00  0.00    -0.400 NA
BRANCH  21  22
HETATM   22  C20 UNL     1      -1.085 -10.922 -25.316  1.00  0.00     0.086 C
HETATM   23  C21 UNL     1      -1.077 -11.411 -26.787  1.00  0.00     0.053 C
HETATM   24  C22 UNL     1      -2.568 -10.779 -24.986  1.00  0.00     0.053 C
HETATM   25  C23 UNL     1      -0.482  -9.511 -25.389  1.00  0.00     0.053 C
ENDBRANCH  21  22
ENDBRANCH  16  19
ENDBRANCH  12  13
ENDBRANCH  10  11
BRANCH   5  26
HETATM   26  C4  UNL     1      12.650 -13.256 -26.002  1.00  0.00    -0.007 A
HETATM   27  C5  UNL     1      13.081 -13.275 -27.336  1.00  0.00     0.014 A
HETATM   28  C6  UNL     1      14.401 -13.325 -27.704  1.00  0.00     0.001 A
HETATM   29  C7  UNL     1      15.342 -13.361 -26.699  1.00  0.00     0.000 A
HETATM   30  C8  UNL     1      14.942 -13.345 -25.382  1.00  0.00     0.001 A
HETATM   31  C9  UNL     1      13.613 -13.293 -25.030  1.00  0.00     0.014 A
ENDBRANCH   5  26
TORSDOF 5
ENDMDL