MODEL 5
REMARK VINA RESULT: -9.416564708      4.899      9.318
REMARK  2 active torsions:
REMARK  status: ('A' for Active; 'I' for Inactive)
REMARK    1  A    between atoms: C2_2  and  C4_4
REMARK    2  A    between atoms: C7_7  and  N1_8
REMARK       I    between atoms: N1_8  and  C8_10
REMARK       I    between atoms: C8_10  and  N2_12
ROOT
HETATM    1  N1  UNL     1       3.787  -7.936 -24.368  1.00  0.00    -0.308 N
ATOM      2  H1  UNL     1       4.806  -7.905 -24.383  1.00  0.00     0.170 HD
HETATM    3  C8  UNL     1       3.206  -9.149 -23.998  1.00  0.00     0.341 C
HETATM    4  O1  UNL     1       1.926  -9.227 -23.998  1.00  0.00    -0.245 OA
HETATM    5  N2  UNL     1       3.882 -10.292 -23.633  1.00  0.00    -0.185 N
HETATM    6  C9  UNL     1       5.231 -10.343 -23.238  1.00  0.00     0.066 A
HETATM    7  C10 UNL     1       5.758  -9.266 -22.539  1.00  0.00     0.032 A
HETATM    8  C11 UNL     1       7.081  -9.169 -22.181  1.00  0.00     0.002 A
HETATM    9  C12 UNL     1       7.888 -10.202 -22.547  1.00  0.00     0.001 A
HETATM   10  C13 UNL     1       7.409 -11.317 -23.251  1.00  0.00     0.014 A
HETATM   11  C14 UNL     1       6.071 -11.401 -23.602  1.00  0.00     0.004 A
HETATM   12  C15 UNL     1       5.585 -12.642 -24.176  1.00  0.00    -0.000 A
HETATM   13  C16 UNL     1       6.474 -13.618 -24.624  1.00  0.00     0.014 A
HETATM   14  C17 UNL     1       6.048 -14.782 -25.256  1.00  0.00     0.001 A
HETATM   15  C18 UNL     1       4.716 -15.017 -25.466  1.00  0.00     0.002 A
HETATM   16  C19 UNL     1       3.824 -14.065 -25.030  1.00  0.00     0.026 A
HETATM   17  C20 UNL     1       4.257 -12.931 -24.410  1.00  0.00     0.091 A
HETATM   18  S1  UNL     1       3.049 -11.819 -23.786  1.00  0.00     0.274 S
HETATM   19  O2  UNL     1       2.538 -12.217 -22.453  1.00  0.00    -0.200 OA
HETATM   20  O3  UNL     1       1.944 -11.732 -24.800  1.00  0.00    -0.200 OA
ENDROOT
BRANCH   1  21
HETATM   21  C7  UNL     1       3.105  -6.729 -24.729  1.00  0.00     0.036 A
HETATM   22  C6  UNL     1       2.520  -6.474 -25.932  1.00  0.00     0.030 A
HETATM   23  C5  UNL     1       1.912  -5.248 -26.176  1.00  0.00     0.010 A
HETATM   24  C4  UNL     1       1.877  -4.263 -25.233  1.00  0.00    -0.055 A
HETATM   25  C22 UNL     1       2.460  -4.506 -24.021  1.00  0.00     0.010 A
HETATM   26  C21 UNL     1       3.068  -5.716 -23.759  1.00  0.00     0.030 A
BRANCH  24  27
HETATM   27  C2  UNL     1       1.232  -2.977 -25.508  1.00  0.00     0.010 C
HETATM   28  C1  UNL     1       1.188  -2.198 -24.199  1.00  0.00     0.015 C
HETATM   29  C3  UNL     1      -0.168  -3.190 -26.052  1.00  0.00     0.015 C
ENDBRANCH  24  27
ENDBRANCH   1  21
TORSDOF 2
ENDMDL