MODEL 1
REMARK VINA RESULT: -8.341420148      0.000      0.000
REMARK  5 active torsions:
REMARK  status: ('A' for Active; 'I' for Inactive)
REMARK    1  A    between atoms: C3_3  and  O1_4
REMARK    2  A    between atoms: C8_10  and  C9_11
REMARK    3  A    between atoms: C15_18  and  C16_19
REMARK    4  A    between atoms: C17_20  and  C18_21
REMARK    5  A    between atoms: C21_24  and  O2_25
ROOT
HETATM    1  C1  UNL     1       5.344 -15.199 -25.202  1.00  0.00     0.015 C
HETATM    2  C2  UNL     1       6.122 -14.327 -24.908  1.00  0.00    -0.079 C
HETATM    3  C3  UNL     1       7.072 -13.311 -24.562  1.00  0.00     0.124 C
HETATM    4  C4  UNL     1       7.555 -12.474 -25.726  1.00  0.00     0.052 C
HETATM    5  C5  UNL     1       8.003 -11.147 -25.103  1.00  0.00     0.009 C
HETATM    6  C6  UNL     1       7.769 -11.302 -23.632  1.00  0.00    -0.001 C
HETATM    7  C7  UNL     1       6.567 -12.273 -23.622  1.00  0.00     0.045 C
HETATM    8  C8  UNL     1       5.501 -11.365 -24.174  1.00  0.00     0.025 C
HETATM    9  C12 UNL     1       5.754 -10.101 -23.361  1.00  0.00    -0.031 A
HETATM   10  C13 UNL     1       4.869 -10.186 -22.123  1.00  0.00     0.016 C
HETATM   11  C14 UNL     1       5.487  -8.859 -24.145  1.00  0.00     0.027 A
HETATM   12  C15 UNL     1       6.760  -8.058 -24.181  1.00  0.00     0.066 A
HETATM   13  C25 UNL     1       7.799  -8.807 -23.421  1.00  0.00     0.023 A
HETATM   14  C26 UNL     1       7.190 -10.106 -22.961  1.00  0.00     0.000 A
ENDROOT
BRANCH   3  15
HETATM   15  O1  UNL     1       8.228 -13.859 -23.969  1.00  0.00    -0.377 OA
ATOM     16  H1  UNL     1       8.610 -13.268 -23.331  1.00  0.00     0.211 HD
ENDBRANCH   3  15
BRANCH   8  17
HETATM   17  C9  UNL     1       4.132 -11.878 -23.880  1.00  0.00    -0.010 C
HETATM   18  C10 UNL     1       3.088 -11.335 -24.484  1.00  0.00     0.090 C
HETATM   19  C11 UNL     1       1.763 -11.815 -24.214  1.00  0.00     0.087 C
HETATM   20  N1  UNL     1       0.693 -12.195 -23.988  1.00  0.00    -0.192 NA
ENDBRANCH   8  17
BRANCH  12  21
HETATM   21  C16 UNL     1       6.494  -6.727 -23.619  1.00  0.00    -0.096 C
HETATM   22  C17 UNL     1       6.255  -5.631 -23.157  1.00  0.00    -0.067 C
BRANCH  22  23
HETATM   23  C18 UNL     1       5.961  -4.341 -22.595  1.00  0.00     0.018 A
HETATM   24  C19 UNL     1       6.904  -3.340 -22.496  1.00  0.00     0.023 A
HETATM   25  C20 UNL     1       6.635  -2.106 -21.962  1.00  0.00     0.038 A
HETATM   26  C21 UNL     1       5.366  -1.834 -21.496  1.00  0.00     0.068 A
HETATM   27  C23 UNL     1       4.423  -2.829 -21.593  1.00  0.00     0.038 A
HETATM   28  C24 UNL     1       4.693  -4.071 -22.130  1.00  0.00     0.023 A
BRANCH  26  29
HETATM   29  O2  UNL     1       5.086  -0.587 -20.953  1.00  0.00    -0.356 OA
HETATM   30  C22 UNL     1       3.854  -0.300 -20.319  1.00  0.00     0.210 C
ENDBRANCH  26  29
ENDBRANCH  22  23
ENDBRANCH  12  21
TORSDOF 5
ENDMDL