MODEL 4
REMARK VINA RESULT: -10.982003789      1.665      2.080
REMARK  3 active torsions:
REMARK  status: ('A' for Active; 'I' for Inactive)
REMARK    1  A    between atoms: S1_2  and  N1_4
REMARK    2  A    between atoms: S1_2  and  C14_21
REMARK    3  A    between atoms: N1_4  and  C1_6
ROOT
HETATM    1  N1  UNL     1       5.648 -10.992 -23.304  1.00  0.00    -0.280 N
ATOM      2  H1  UNL     1       5.211 -11.814 -22.886  1.00  0.00     0.179 HD
ENDROOT
BRANCH   1   3
HETATM    3  S1  UNL     1       4.673  -9.601 -23.371  1.00  0.00     0.265 S
HETATM    4  O1  UNL     1       5.331  -8.508 -24.175  1.00  0.00    -0.200 OA
HETATM    5  O2  UNL     1       4.540  -9.043 -21.941  1.00  0.00    -0.200 OA
BRANCH   3   6
HETATM    6  C14 UNL     1       3.056  -9.887 -23.940  1.00  0.00     0.107 A
HETATM    7  C15 UNL     1       2.458 -11.125 -23.924  1.00  0.00     0.028 A
HETATM    8  C16 UNL     1       1.155 -11.312 -24.379  1.00  0.00     0.003 A
HETATM    9  C17 UNL     1       0.428 -10.248 -24.863  1.00  0.00     0.014 A
HETATM   10  C18 UNL     1       1.003  -9.018 -24.885  1.00  0.00    -0.008 A
HETATM   11  C19 UNL     1       0.263  -7.957 -25.373  1.00  0.00     0.015 A
HETATM   12  C22 UNL     1       2.304  -8.833 -24.430  1.00  0.00     0.066 A
HETATM   13  C20 UNL     1       0.887  -6.730 -25.377  1.00  0.00     0.018 A
HETATM   14  C21 UNL     1       2.179  -6.566 -24.921  1.00  0.00     0.088 A
HETATM   15  N3  UNL     1       2.863  -7.612 -24.458  1.00  0.00    -0.364 N
ATOM     16  H3  UNL     1       3.817  -7.484 -24.122  1.00  0.00     0.165 HD
ENDBRANCH   3   6
ENDBRANCH   1   3
BRANCH   1  17
HETATM   17  C1  UNL     1       6.835 -11.151 -23.696  1.00  0.00     0.057 A
HETATM   18  C2  UNL     1       7.771 -10.178 -23.340  1.00  0.00     0.048 A
HETATM   19  C3  UNL     1       9.075 -10.283 -23.716  1.00  0.00     0.090 A
HETATM   20  N2  UNL     1       9.456 -11.336 -24.437  1.00  0.00    -0.365 N
HETATM   21  C4  UNL     1       8.620 -12.305 -24.814  1.00  0.00     0.045 A
ATOM     22  H2  UNL     1      10.436 -11.405 -24.714  1.00  0.00     0.165 HD
HETATM   23  C5  UNL     1       9.076 -13.372 -25.561  1.00  0.00     0.031 A
HETATM   24  C13 UNL     1       7.259 -12.216 -24.434  1.00  0.00     0.029 A
HETATM   25  C6  UNL     1       8.204 -14.356 -25.939  1.00  0.00     0.014 A
HETATM   26  C7  UNL     1       6.873 -14.293 -25.581  1.00  0.00    -0.025 A
HETATM   27  C8  UNL     1       6.006 -15.295 -25.972  1.00  0.00     0.012 A
HETATM   28  C12 UNL     1       6.372 -13.220 -24.820  1.00  0.00    -0.011 A
HETATM   29  C9  UNL     1       4.677 -15.257 -25.631  1.00  0.00     0.001 A
HETATM   30  C10 UNL     1       4.203 -14.200 -24.887  1.00  0.00     0.001 A
HETATM   31  C11 UNL     1       5.057 -13.166 -24.474  1.00  0.00     0.013 A
ENDBRANCH   1  17
TORSDOF 3
ENDMDL