MODEL 1
REMARK VINA RESULT: -9.260012864      0.000      0.000
REMARK  4 active torsions:
REMARK  status: ('A' for Active; 'I' for Inactive)
REMARK    1  A    between atoms: C2_2  and  O2_4
REMARK    2  A    between atoms: O2_4  and  C3_5
REMARK    3  A    between atoms: C4_6  and  C5_7
REMARK    4  A    between atoms: C15_17  and  O3_18
ROOT
HETATM    1  C3  UNL     1       3.704 -11.837 -23.752  1.00  0.00     0.166 C
HETATM    2  C4  UNL     1       4.996 -11.880 -24.495  1.00  0.00    -0.050 C
HETATM    3  C8  UNL     1       5.594 -10.716 -24.298  1.00  0.00    -0.016 C
HETATM    4  C9  UNL     1       4.852  -9.791 -23.461  1.00  0.00     0.016 C
HETATM    5  C10 UNL     1       4.620  -8.426 -24.023  1.00  0.00     0.014 C
HETATM    6  C11 UNL     1       3.220  -8.176 -23.602  1.00  0.00    -0.008 C
HETATM    7  C12 UNL     1       2.462  -7.186 -24.411  1.00  0.00     0.011 C
HETATM    8  C13 UNL     1       1.282  -7.964 -24.853  1.00  0.00     0.002 C
HETATM    9  C14 UNL     1       0.485  -7.464 -25.961  1.00  0.00     0.028 C
HETATM   10  C15 UNL     1       0.673  -6.024 -26.384  1.00  0.00     0.128 C
HETATM   11  C16 UNL     1       0.731  -6.484 -27.810  1.00  0.00     0.019 C
HETATM   12  C17 UNL     1       1.837  -5.928 -28.649  1.00  0.00     0.013 C
HETATM   13  C18 UNL     1       0.872  -7.888 -27.334  1.00  0.00    -0.032 C
HETATM   14  C19 UNL     1      -0.130  -8.786 -28.065  1.00  0.00     0.016 C
HETATM   15  C20 UNL     1       2.215  -8.504 -27.350  1.00  0.00     0.011 C
HETATM   16  C21 UNL     1       2.376  -9.619 -26.324  1.00  0.00     0.011 C
HETATM   17  C22 UNL     1       1.792  -9.419 -25.020  1.00  0.00    -0.035 C
HETATM   18  C23 UNL     1       0.489 -10.240 -24.914  1.00  0.00     0.016 C
HETATM   19  C24 UNL     1       2.502  -9.539 -23.763  1.00  0.00     0.006 C
HETATM   20  C25 UNL     1       3.479 -10.448 -23.299  1.00  0.00     0.032 C
ENDROOT
BRANCH   1  21
HETATM   21  O2  UNL     1       2.663 -12.475 -24.383  1.00  0.00    -0.311 OA
BRANCH  21  22
HETATM   22  C2  UNL     1       1.831 -13.379 -23.795  1.00  0.00     0.255 C
HETATM   23  C1  UNL     1       0.955 -13.033 -22.668  1.00  0.00     0.126 C
HETATM   24  O1  UNL     1       1.846 -14.527 -24.258  1.00  0.00    -0.266 OA
ENDBRANCH  21  22
ENDBRANCH   1  21
BRANCH   2  25
HETATM   25  C5  UNL     1       5.562 -12.999 -25.337  1.00  0.00     0.009 C
HETATM   26  C6  UNL     1       5.240 -14.349 -24.741  1.00  0.00     0.014 C
HETATM   27  C7  UNL     1       7.063 -12.875 -25.417  1.00  0.00     0.014 C
ENDBRANCH   2  25
BRANCH  10  28
HETATM   28  O3  UNL     1      -0.407  -5.193 -26.073  1.00  0.00    -0.395 OA
ATOM     29  H3  UNL     1      -1.246  -5.518 -26.380  1.00  0.00     0.210 HD
ENDBRANCH  10  28
TORSDOF 4
ENDMDL