MODEL 1
REMARK VINA RESULT: -10.054502200      0.000      0.000
REMARK  3 active torsions:
REMARK  status: ('A' for Active; 'I' for Inactive)
REMARK    1  A    between atoms: C2_2  and  C3_3
REMARK    2  A    between atoms: C2_2  and  C12_15
REMARK    3  A    between atoms: C12_15  and  O3_16
ROOT
HETATM    1  C12 UNL     1       4.822 -10.290 -23.389  1.00  0.00     0.118 C
HETATM    2  C13 UNL     1       4.028 -11.508 -23.645  1.00  0.00    -0.008 A
HETATM    3  C14 UNL     1       2.680 -11.834 -23.408  1.00  0.00     0.011 A
HETATM    4  C15 UNL     1       2.207 -13.051 -23.846  1.00  0.00     0.001 A
HETATM    5  C16 UNL     1       3.011 -13.955 -24.506  1.00  0.00     0.001 A
HETATM    6  C17 UNL     1       4.329 -13.613 -24.725  1.00  0.00     0.013 A
HETATM    7  C18 UNL     1       4.849 -12.384 -24.291  1.00  0.00    -0.016 A
HETATM    8  C19 UNL     1       6.215 -11.869 -24.292  1.00  0.00    -0.016 A
HETATM    9  C20 UNL     1       7.403 -12.466 -24.739  1.00  0.00     0.013 A
HETATM   10  C21 UNL     1       8.621 -11.865 -24.531  1.00  0.00     0.001 A
HETATM   11  C22 UNL     1       8.634 -10.668 -23.874  1.00  0.00     0.001 A
HETATM   12  C23 UNL     1       7.468 -10.102 -23.450  1.00  0.00     0.011 A
HETATM   13  C24 UNL     1       6.201 -10.669 -23.638  1.00  0.00    -0.008 A
ENDROOT
BRANCH   1  14
HETATM   14  C2  UNL     1       4.311  -9.160 -24.205  1.00  0.00     0.048 C
HETATM   15  C1  UNL     1       3.067  -9.529 -24.942  1.00  0.00     0.015 C
BRANCH  14  16
HETATM   16  C3  UNL     1       4.013  -7.872 -23.466  1.00  0.00     0.138 C
HETATM   17  C4  UNL     1       5.204  -7.049 -23.498  1.00  0.00    -0.006 C
HETATM   18  C5  UNL     1       5.583  -5.870 -23.909  1.00  0.00     0.011 C
HETATM   19  C6  UNL     1       4.785  -4.876 -24.561  1.00  0.00    -0.002 A
HETATM   20  C7  UNL     1       5.498  -3.673 -24.625  1.00  0.00     0.014 A
HETATM   21  C11 UNL     1       3.528  -4.846 -25.128  1.00  0.00     0.097 A
HETATM   22  C8  UNL     1       4.983  -2.548 -25.208  1.00  0.00     0.001 A
HETATM   23  C9  UNL     1       3.740  -2.543 -25.760  1.00  0.00     0.003 A
HETATM   24  C10 UNL     1       3.007  -3.707 -25.718  1.00  0.00     0.039 A
HETATM   25  O1  UNL     1       2.677  -5.942 -25.159  1.00  0.00    -0.252 OA
HETATM   26  S1  UNL     1       2.523  -7.112 -23.949  1.00  0.00     0.166 S
HETATM   27  O2  UNL     1       1.579  -6.575 -22.691  1.00  0.00    -0.227 OA
ENDBRANCH  14  16
ENDBRANCH   1  14
BRANCH   1  28
HETATM   28  O3  UNL     1       4.688 -10.044 -22.008  1.00  0.00    -0.380 OA
ATOM     29  H3  UNL     1       4.536  -9.124 -21.825  1.00  0.00     0.211 HD
ENDBRANCH   1  28
TORSDOF 3
ENDMDL