MODEL 2
REMARK VINA RESULT: -6.811128147      1.938      5.046
REMARK  3 active torsions:
REMARK  status: ('A' for Active; 'I' for Inactive)
REMARK    1  A    between atoms: C2_2  and  C3_3
REMARK    2  A    between atoms: C13_17  and  O5_18
REMARK    3  A    between atoms: C16_22  and  O6_23
ROOT
HETATM    1  C3  UNL     1     -18.387  -0.422  10.701  1.00  0.00     0.140 C
HETATM    2  O1  UNL     1     -17.996  -0.219  12.009  1.00  0.00    -0.292 OA
HETATM    3  C4  UNL     1     -18.375   0.658  12.965  1.00  0.00     0.414 C
HETATM    4  O2  UNL     1     -17.573   1.548  13.445  1.00  0.00    -0.229 OA
HETATM    5  O3  UNL     1     -19.643   0.697  13.529  1.00  0.00    -0.221 OA
HETATM    6  C5  UNL     1     -20.403  -0.312  14.017  1.00  0.00     0.271 C
HETATM    7  O4  UNL     1     -21.599  -0.398  13.627  1.00  0.00    -0.264 OA
HETATM    8  C6  UNL     1     -19.944  -1.341  14.987  1.00  0.00     0.082 C
HETATM    9  C7  UNL     1     -19.351  -0.557  16.168  1.00  0.00     0.020 C
HETATM   10  C8  UNL     1     -21.086  -2.139  15.545  1.00  0.00     0.014 C
HETATM   11  C9  UNL     1     -20.954  -3.622  15.304  1.00  0.00     0.001 C
HETATM   12  C10 UNL     1     -20.771  -3.928  13.836  1.00  0.00     0.007 C
HETATM   13  C11 UNL     1     -19.890  -5.102  13.573  1.00  0.00     0.011 C
HETATM   14  C12 UNL     1     -20.691  -6.302  13.096  1.00  0.00     0.012 C
HETATM   15  C13 UNL     1     -18.728  -4.810  12.684  1.00  0.00     0.128 C
HETATM   16  C14 UNL     1     -19.073  -4.027  11.446  1.00  0.00     0.040 C
HETATM   17  C15 UNL     1     -18.954  -4.932  10.259  1.00  0.00     0.015 C
HETATM   18  C16 UNL     1     -18.149  -2.834  11.394  1.00  0.00     0.130 C
HETATM   19  C17 UNL     1     -18.478  -1.875  10.305  1.00  0.00     0.040 C
HETATM   20  C18 UNL     1     -17.561  -2.197   9.117  1.00  0.00     0.015 C
ENDROOT
BRANCH   1  21
HETATM   21  C2  UNL     1     -19.680   0.239  10.291  1.00  0.00     0.028 C
HETATM   22  C1  UNL     1     -19.564   1.072   9.041  1.00  0.00     0.007 C
ENDBRANCH   1  21
BRANCH  18  23
HETATM   23  O6  UNL     1     -16.830  -3.258  11.381  1.00  0.00    -0.395 OA
ATOM     24  H6  UNL     1     -16.767  -4.107  10.959  1.00  0.00     0.210 HD
ENDBRANCH  18  23
BRANCH  15  25
HETATM   25  O5  UNL     1     -17.699  -4.186  13.430  1.00  0.00    -0.395 OA
ATOM     26  H5  UNL     1     -16.995  -3.922  12.849  1.00  0.00     0.210 HD
ENDBRANCH  15  25
TORSDOF 3
ENDMDL