MODEL 5
REMARK VINA RESULT: -6.678850193      3.110      5.211
REMARK  2 active torsions:
REMARK  status: ('A' for Active; 'I' for Inactive)
REMARK    1  A    between atoms: O1_2  and  C2_3
REMARK    2  A    between atoms: C12_21  and  N2_22
ROOT
HETATM    1  C2  UNL     1     -20.930  -6.071  13.324  1.00  0.00     0.230 C
HETATM    2  O2  UNL     1     -20.569  -6.980  14.278  1.00  0.00    -0.314 OA
HETATM    3  C3  UNL     1     -20.706  -8.268  13.758  1.00  0.00     0.164 C
HETATM    4  C4  UNL     1     -21.567  -9.173  14.615  1.00  0.00     0.078 C
HETATM    5  C5  UNL     1     -19.399  -9.025  13.652  1.00  0.00     0.078 C
HETATM    6  O3  UNL     1     -21.251  -8.093  12.460  1.00  0.00    -0.317 OA
HETATM    7  C6  UNL     1     -20.641  -6.931  12.099  1.00  0.00     0.363 C
HETATM    8  O4  UNL     1     -20.879  -6.362  10.912  1.00  0.00    -0.202 OA
HETATM    9  O5  UNL     1     -19.983  -5.371  10.779  1.00  0.00    -0.231 OA
HETATM   10  C7  UNL     1     -20.309  -4.408  11.743  1.00  0.00     0.184 C
HETATM   11  C8  UNL     1     -19.900  -3.029  11.413  1.00  0.00     0.014 C
HETATM   12  C9  UNL     1     -21.082  -2.068  11.330  1.00  0.00     0.020 C
HETATM   13  C10 UNL     1     -19.204  -2.926  10.049  1.00  0.00     0.189 C
HETATM   14  O6  UNL     1     -19.177  -1.545   9.731  1.00  0.00    -0.337 OA
HETATM   15  C11 UNL     1     -18.865  -0.612  10.692  1.00  0.00     0.142 C
HETATM   16  N1  UNL     1     -18.625   0.614  10.359  1.00  0.00    -0.382 N
ATOM     17  H11 UNL     1     -18.394   1.307  11.071  1.00  0.00     0.158 HD
ATOM     18  H12 UNL     1     -18.683   0.827   9.363  1.00  0.00     0.158 HD
HETATM   19  C12 UNL     1     -18.780  -0.923  12.146  1.00  0.00     0.262 C
HETATM   20  C13 UNL     1     -18.923  -2.418  12.397  1.00  0.00     0.037 C
HETATM   21  C14 UNL     1     -19.328  -2.627  13.809  1.00  0.00     0.009 C
HETATM   22  C15 UNL     1     -20.260  -3.770  14.066  1.00  0.00     0.018 C
HETATM   23  C16 UNL     1     -19.937  -4.904  13.126  1.00  0.00     0.048 C
HETATM   24  C17 UNL     1     -18.524  -5.293  13.314  1.00  0.00     0.024 C
ENDROOT
BRANCH  19  25
HETATM   25  N2  UNL     1     -17.411  -0.537  12.541  1.00  0.00    -0.067 N
ATOM     26  H23 UNL     1     -16.815  -0.269  11.757  1.00  0.00     0.275 HD
ATOM     27  H22 UNL     1     -17.360   0.353  13.037  1.00  0.00     0.275 HD
ATOM     28  H21 UNL     1     -17.057  -1.330  13.076  1.00  0.00     0.275 HD
ENDBRANCH  19  25
BRANCH   1  29
HETATM   29  O1  UNL     1     -22.118  -5.485  13.371  1.00  0.00    -0.355 OA
HETATM   30  C1  UNL     1     -23.054  -5.644  14.290  1.00  0.00     0.205 C
ENDBRANCH   1  29
TORSDOF 2
ENDMDL