MODEL 3
REMARK VINA RESULT: -8.121121365      1.561      2.693
REMARK  6 active torsions:
REMARK  status: ('A' for Active; 'I' for Inactive)
REMARK    1  A    between atoms: C6_7  and  O2_9
REMARK    2  A    between atoms: O2_9  and  C8_10
REMARK    3  A    between atoms: C8_10  and  O4_12
REMARK    4  A    between atoms: O4_12  and  C9_13
REMARK    5  A    between atoms: C9_13  and  N2_17
REMARK       I    between atoms: N2_17  and  C10_19
REMARK    6  A    between atoms: C10_19  and  C11_21
ROOT
HETATM    1  C8  UNL     1     -20.860   1.103  15.255  1.00  0.00     0.415 C
HETATM    2  O3  UNL     1     -21.861   0.532  15.693  1.00  0.00    -0.229 OA
ENDROOT
BRANCH   1   3
HETATM    3  O2  UNL     1     -20.518   0.808  13.948  1.00  0.00    -0.271 OA
BRANCH   3   4
HETATM    4  C6  UNL     1     -19.975  -0.379  13.480  1.00  0.00     0.189 C
HETATM    5  C5  UNL     1     -18.590  -0.021  12.977  1.00  0.00     0.170 C
HETATM    6  C4  UNL     1     -17.830  -1.069  12.304  1.00  0.00     0.091 C
HETATM    7  O1  UNL     1     -18.109   1.085  13.114  1.00  0.00    -0.294 OA
HETATM    8  C2  UNL     1     -18.537  -1.891  11.302  1.00  0.00    -0.035 C
HETATM    9  C1  UNL     1     -17.960  -3.308  11.369  1.00  0.00     0.015 C
HETATM   10  C3  UNL     1     -18.188  -1.385   9.899  1.00  0.00     0.015 C
HETATM   11  C16 UNL     1     -20.021  -1.961  11.406  1.00  0.00     0.091 C
HETATM   12  C15 UNL     1     -20.629  -0.912  12.244  1.00  0.00     0.170 C
HETATM   13  O6  UNL     1     -21.703  -0.449  11.935  1.00  0.00    -0.294 OA
HETATM   14  C7  UNL     1     -19.808  -1.449  14.509  1.00  0.00     0.064 C
ENDBRANCH   3   4
ENDBRANCH   1   3
BRANCH   1  15
HETATM   15  O4  UNL     1     -20.167   1.965  16.049  1.00  0.00    -0.222 OA
BRANCH  15  16
HETATM   16  C9  UNL     1     -20.164   3.347  15.953  1.00  0.00     0.229 C
HETATM   17  N1  UNL     1     -19.676   3.941  14.984  1.00  0.00    -0.365 N
ATOM     18  H12 UNL     1     -19.258   3.405  14.223  1.00  0.00     0.159 HD
ATOM     19  H11 UNL     1     -19.675   4.959  14.913  1.00  0.00     0.159 HD
BRANCH  16  20
HETATM   20  N2  UNL     1     -20.761   4.113  17.040  1.00  0.00    -0.292 N
HETATM   21  C10 UNL     1     -21.948   4.847  16.829  1.00  0.00     0.232 C
HETATM   22  O5  UNL     1     -22.489   4.841  15.706  1.00  0.00    -0.272 OA
ATOM     23  H2  UNL     1     -20.318   4.119  17.959  1.00  0.00     0.172 HD
BRANCH  21  24
HETATM   24  C11 UNL     1     -22.561   5.624  17.921  1.00  0.00     0.030 C
HETATM   25  C12 UNL     1     -23.290   6.848  17.393  1.00  0.00     0.025 C
HETATM   26  C13 UNL     1     -21.556   6.105  18.930  1.00  0.00     0.025 C
HETATM   27  C14 UNL     1     -23.581   4.784  18.660  1.00  0.00     0.025 C
ENDBRANCH  21  24
ENDBRANCH  16  20
ENDBRANCH  15  16
ENDBRANCH   1  15
TORSDOF 6
ENDMDL