MODEL 3
REMARK VINA RESULT: -7.877926642      1.165      1.772
REMARK  4 active torsions:
REMARK  status: ('A' for Active; 'I' for Inactive)
REMARK    1  A    between atoms: C2_2  and  N1_5
REMARK    2  A    between atoms: C7_13  and  N4_14
REMARK    3  A    between atoms: N4_14  and  N5_16
REMARK    4  A    between atoms: N5_16  and  C8_18
ROOT
HETATM    1  N1  UNL     1     -18.539  -1.292  12.972  1.00  0.00    -0.361 N
ATOM      2  H1  UNL     1     -17.743  -0.874  12.491  1.00  0.00     0.162 HD
HETATM    3  C5  UNL     1     -19.210  -0.494  13.721  1.00  0.00     0.162 A
HETATM    4  N2  UNL     1     -20.287  -0.855  14.433  1.00  0.00    -0.280 N
ATOM      5  H2  UNL     1     -20.575  -1.830  14.362  1.00  0.00     0.189 HD
HETATM    6  N3  UNL     1     -21.004  -0.090  15.208  1.00  0.00    -0.307 N
ATOM      7  H3  UNL     1     -21.791  -0.546  15.670  1.00  0.00     0.186 HD
HETATM    8  C6  UNL     1     -20.854   1.192  15.478  1.00  0.00     0.145 A
HETATM    9  C7  UNL     1     -19.859   1.992  14.958  1.00  0.00     0.109 A
HETATM   10  S2  UNL     1     -18.801   1.177  13.909  1.00  0.00    -0.032 SA
ENDROOT
BRANCH   9  11
HETATM   11  N4  UNL     1     -19.762   3.245  15.259  1.00  0.00    -0.291 N
ATOM     12  H4  UNL     1     -19.582   3.941  14.536  1.00  0.00     0.187 HD
BRANCH  11  13
HETATM   13  N5  UNL     1     -19.905   3.621  16.573  1.00  0.00    -0.279 N
ATOM     14  H5  UNL     1     -19.139   3.429  17.217  1.00  0.00     0.189 HD
BRANCH  13  15
HETATM   15  C8  UNL     1     -21.080   4.273  17.087  1.00  0.00     0.156 C
HETATM   16  N6  UNL     1     -21.270   4.756  18.241  1.00  0.00    -0.360 N
HETATM   17  C9  UNL     1     -22.476   5.359  18.585  1.00  0.00     0.041 C
ATOM     18  H6  UNL     1     -20.523   4.701  18.934  1.00  0.00     0.162 HD
HETATM   19  C10 UNL     1     -23.414   4.455  19.386  1.00  0.00     0.039 C
HETATM   20  C11 UNL     1     -22.160   6.518  19.531  1.00  0.00     0.039 C
HETATM   21  C12 UNL     1     -23.220   5.857  17.363  1.00  0.00     0.033 C
HETATM   22  C13 UNL     1     -24.699   5.683  17.476  1.00  0.00     0.030 C
HETATM   23  C14 UNL     1     -22.814   7.224  16.936  1.00  0.00     0.030 C
HETATM   24  S1  UNL     1     -22.602   4.578  16.185  1.00  0.00    -0.081 SA
ENDBRANCH  13  15
ENDBRANCH  11  13
ENDBRANCH   9  11
BRANCH   1  25
HETATM   25  C2  UNL     1     -18.746  -2.669  12.718  1.00  0.00     0.021 C
HETATM   26  C1  UNL     1     -20.037  -2.927  11.932  1.00  0.00     0.037 C
HETATM   27  C3  UNL     1     -17.599  -3.149  11.800  1.00  0.00     0.037 C
HETATM   28  C4  UNL     1     -18.731  -3.543  13.926  1.00  0.00     0.037 C
ENDBRANCH   1  25
TORSDOF 4
ENDMDL