MODEL 2
REMARK VINA RESULT: -7.230457020      1.238      1.366
REMARK  4 active torsions:
REMARK  status: ('A' for Active; 'I' for Inactive)
REMARK    1  A    between atoms: C2_2  and  O2_4
REMARK    2  A    between atoms: O2_4  and  C3_5
REMARK    3  A    between atoms: C5_8  and  O4_9
REMARK    4  A    between atoms: C8_13  and  O5_14
ROOT
HETATM    1  C3  UNL     1     -20.576  -3.377  13.868  1.00  0.00     0.310 C
HETATM    2  O3  UNL     1     -20.026  -4.569  13.374  1.00  0.00    -0.311 OA
HETATM    3  C4  UNL     1     -19.795  -4.731  12.013  1.00  0.00     0.142 A
HETATM    4  C5  UNL     1     -19.468  -5.987  11.564  1.00  0.00     0.110 A
HETATM    5  C6  UNL     1     -19.238  -6.143  10.207  1.00  0.00     0.000 A
HETATM    6  C7  UNL     1     -19.318  -5.121   9.300  1.00  0.00     0.056 A
HETATM    7  C8  UNL     1     -19.654  -3.858   9.799  1.00  0.00     0.116 A
HETATM    8  C9  UNL     1     -19.888  -3.665  11.126  1.00  0.00     0.140 A
HETATM    9  O6  UNL     1     -20.226  -2.427  11.675  1.00  0.00    -0.330 OA
HETATM   10  C10 UNL     1     -19.953  -2.241  13.046  1.00  0.00     0.111 C
HETATM   11  C11 UNL     1     -20.501  -0.961  13.588  1.00  0.00     0.051 C
HETATM   12  C12 UNL     1     -18.473  -2.275  13.297  1.00  0.00     0.051 C
HETATM   13  C13 UNL     1     -19.020  -5.619   7.962  1.00  0.00     0.168 A
HETATM   14  O7  UNL     1     -19.036  -4.943   6.925  1.00  0.00    -0.292 OA
HETATM   15  C14 UNL     1     -18.697  -7.060   8.065  1.00  0.00     0.078 A
HETATM   16  C15 UNL     1     -18.875  -7.375   9.484  1.00  0.00     0.043 A
HETATM   17  C16 UNL     1     -17.513  -7.403   8.887  1.00  0.00    -0.028 A
HETATM   18  C17 UNL     1     -16.904  -8.794   8.779  1.00  0.00     0.016 C
HETATM   19  C18 UNL     1     -16.526  -6.307   9.135  1.00  0.00     0.016 C
ENDROOT
BRANCH   1  20
HETATM   20  O2  UNL     1     -20.237  -3.135  15.221  1.00  0.00    -0.286 OA
BRANCH  20  21
HETATM   21  C2  UNL     1     -21.158  -3.174  16.253  1.00  0.00     0.257 C
HETATM   22  C1  UNL     1     -22.006  -4.366  16.541  1.00  0.00     0.126 C
HETATM   23  O1  UNL     1     -21.259  -2.124  16.970  1.00  0.00    -0.266 OA
ENDBRANCH  20  21
ENDBRANCH   1  20
BRANCH   4  24
HETATM   24  O4  UNL     1     -19.378  -7.039  12.455  1.00  0.00    -0.357 OA
ATOM     25  H4  UNL     1     -18.612  -7.601  12.453  1.00  0.00     0.217 HD
ENDBRANCH   4  24
BRANCH   7  26
HETATM   26  O5  UNL     1     -19.744  -2.810   8.919  1.00  0.00    -0.357 OA
ATOM     27  H5  UNL     1     -20.049  -1.971   9.244  1.00  0.00     0.217 HD
ENDBRANCH   7  26
TORSDOF 4
ENDMDL