MODEL 5
REMARK VINA RESULT: -6.047900169      2.453      4.280
REMARK  3 active torsions:
REMARK  status: ('A' for Active; 'I' for Inactive)
REMARK    1  A    between atoms: C2_2  and  C3_4
REMARK    2  A    between atoms: C3_4  and  O2_5
REMARK    3  A    between atoms: C6_11  and  O5_12
ROOT
HETATM    1  C3  UNL     1     -19.035  -2.659  10.119  1.00  0.00     0.234 C
HETATM    2  O3  UNL     1     -18.988  -2.682  11.506  1.00  0.00    -0.311 OA
HETATM    3  C4  UNL     1     -20.221  -2.572  12.121  1.00  0.00     0.176 C
HETATM    4  C5  UNL     1     -20.949  -1.282  11.974  1.00  0.00     0.080 C
HETATM    5  O4  UNL     1     -20.967  -3.719  11.769  1.00  0.00    -0.316 OA
HETATM    6  C6  UNL     1     -20.541  -4.400  12.875  1.00  0.00     0.200 C
HETATM    7  C7  UNL     1     -19.193  -5.047  12.742  1.00  0.00     0.119 C
HETATM    8  C8  UNL     1     -18.209  -4.295  13.538  1.00  0.00     0.018 C
HETATM    9  C9  UNL     1     -18.983  -3.185  14.261  1.00  0.00     0.016 C
HETATM   10  C10 UNL     1     -20.279  -3.066  13.539  1.00  0.00     0.112 C
HETATM   11  C11 UNL     1     -18.849  -5.290  11.332  1.00  0.00     0.137 C
HETATM   12  O6  UNL     1     -19.627  -6.054  10.735  1.00  0.00    -0.297 OA
HETATM   13  C12 UNL     1     -17.737  -4.761  10.565  1.00  0.00     0.093 C
HETATM   14  C13 UNL     1     -18.101  -3.676   9.561  1.00  0.00     0.023 C
HETATM   15  C14 UNL     1     -16.786  -3.068   9.117  1.00  0.00     0.021 C
HETATM   16  C15 UNL     1     -18.637  -4.355   8.312  1.00  0.00     0.021 C
ENDROOT
BRANCH   1  17
HETATM   17  C2  UNL     1     -18.616  -1.288   9.717  1.00  0.00     0.185 C
HETATM   18  C1  UNL     1     -17.979  -0.314  10.668  1.00  0.00     0.097 C
HETATM   19  O1  UNL     1     -18.758  -0.844   8.577  1.00  0.00    -0.292 OA
ENDBRANCH   1  17
BRANCH   1  20
HETATM   20  O2  UNL     1     -20.335  -2.802   9.620  1.00  0.00    -0.359 OA
ATOM     21  H2  UNL     1     -20.709  -3.525  10.110  1.00  0.00     0.213 HD
ENDBRANCH   1  20
BRANCH   6  22
HETATM   22  O5  UNL     1     -21.535  -5.154  13.492  1.00  0.00    -0.267 OA
HETATM   23  S1  UNL     1     -21.071  -6.758  13.816  1.00  0.00     0.096 SA
ENDBRANCH   6  22
TORSDOF 3
ENDMDL