MODEL 1
REMARK VINA RESULT: -6.837088497      0.000      0.000
REMARK  5 active torsions:
REMARK  status: ('A' for Active; 'I' for Inactive)
REMARK    1  A    between atoms: C2_2  and  C4_4
REMARK    2  A    between atoms: C4_4  and  O1_5
REMARK    3  A    between atoms: C7_12  and  O5_14
REMARK    4  A    between atoms: C9_16  and  O6_17
REMARK    5  A    between atoms: O6_17  and  C10_18
ROOT
HETATM    1  C4  UNL     1     -20.278  -5.996  13.203  1.00  0.00     0.225 C
HETATM    2  O2  UNL     1     -20.335  -6.078  11.791  1.00  0.00    -0.194 OA
HETATM    3  O3  UNL     1     -20.613  -4.845  11.349  1.00  0.00    -0.223 OA
HETATM    4  C5  UNL     1     -19.623  -4.139  12.069  1.00  0.00     0.131 C
HETATM    5  C6  UNL     1     -18.319  -4.699  11.621  1.00  0.00     0.213 C
HETATM    6  O4  UNL     1     -18.405  -4.697  10.207  1.00  0.00    -0.350 OA
HETATM    7  C7  UNL     1     -18.161  -3.477   9.638  1.00  0.00     0.185 C
HETATM    8  C8  UNL     1     -17.750  -3.833   8.187  1.00  0.00     0.081 C
HETATM    9  C9  UNL     1     -19.309  -2.562   9.478  1.00  0.00     0.194 C
HETATM   10  C12 UNL     1     -20.172  -2.287  10.650  1.00  0.00     0.046 C
HETATM   11  C13 UNL     1     -19.603  -2.689  11.959  1.00  0.00     0.032 C
HETATM   12  C14 UNL     1     -20.238  -2.036  13.155  1.00  0.00    -0.011 C
HETATM   13  C15 UNL     1     -19.947  -0.531  13.013  1.00  0.00     0.010 C
HETATM   14  C16 UNL     1     -19.496  -2.467  14.404  1.00  0.00     0.005 C
HETATM   15  C17 UNL     1     -19.286  -3.989  14.460  1.00  0.00     0.014 C
HETATM   16  C18 UNL     1     -20.109  -4.560  13.427  1.00  0.00     0.096 C
ENDROOT
BRANCH   1  17
HETATM   17  C2  UNL     1     -21.622  -6.471  13.698  1.00  0.00    -0.029 C
HETATM   18  C1  UNL     1     -22.665  -5.677  13.757  1.00  0.00     0.019 C
HETATM   19  C3  UNL     1     -21.764  -7.887  14.134  1.00  0.00     0.048 C
ENDBRANCH   1  17
BRANCH   1  20
HETATM   20  O1  UNL     1     -19.340  -6.828  13.748  1.00  0.00    -0.359 OA
ATOM     21  H1  UNL     1     -18.493  -6.525  13.443  1.00  0.00     0.213 HD
ENDBRANCH   1  20
BRANCH   7  22
HETATM   22  O5  UNL     1     -17.012  -2.895  10.163  1.00  0.00    -0.363 OA
ATOM     23  H5  UNL     1     -17.074  -1.947  10.164  1.00  0.00     0.213 HD
ENDBRANCH   7  22
BRANCH   9  24
HETATM   24  O6  UNL     1     -18.848  -1.382   8.832  1.00  0.00    -0.311 OA
BRANCH  24  25
HETATM   25  C10 UNL     1     -18.722  -0.152   9.409  1.00  0.00     0.255 C
HETATM   26  C11 UNL     1     -19.565   1.025   9.052  1.00  0.00     0.126 C
HETATM   27  O7  UNL     1     -17.846  -0.005  10.289  1.00  0.00    -0.266 OA
ENDBRANCH  24  25
ENDBRANCH   9  24
TORSDOF 5
ENDMDL