MODEL 2
REMARK VINA RESULT: -6.672592852      2.226      7.268
REMARK  8 active torsions:
REMARK  status: ('A' for Active; 'I' for Inactive)
REMARK    1  A    between atoms: S1_2  and  C2_3
REMARK    2  A    between atoms: C2_3  and  N1_4
REMARK    3  A    between atoms: C2_3  and  O6_21
REMARK       I    between atoms: N1_4  and  C3_6
REMARK    4  A    between atoms: C3_6  and  O2_8
REMARK    5  A    between atoms: O2_8  and  C4_9
REMARK    6  A    between atoms: C7_14  and  O5_15
REMARK    7  A    between atoms: C7_14  and  C8_17
REMARK    8  A    between atoms: O6_21  and  C12_22
ROOT
HETATM    1  O2  UNL     1     -21.279   0.824  15.367  1.00  0.00    -0.268 OA
ENDROOT
BRANCH   1   2
HETATM    2  C3  UNL     1     -21.467   2.155  15.657  1.00  0.00     0.369 C
HETATM    3  N1  UNL     1     -22.665   2.681  16.217  1.00  0.00    -0.277 N
ATOM      4  H1  UNL     1     -23.430   2.036  16.415  1.00  0.00     0.173 HD
HETATM    5  O1  UNL     1     -20.534   2.961  15.416  1.00  0.00    -0.238 OA
BRANCH   3   6
HETATM    6  C2  UNL     1     -22.850   4.045  16.512  1.00  0.00     0.186 C
BRANCH   6   7
HETATM    7  S1  UNL     1     -24.275   4.738  16.229  1.00  0.00    -0.091 SA
HETATM    8  C1  UNL     1     -24.861   6.080  17.318  1.00  0.00     0.099 C
ENDBRANCH   6   7
BRANCH   6   9
HETATM    9  O6  UNL     1     -21.816   4.769  17.035  1.00  0.00    -0.320 OA
BRANCH   9  10
HETATM   10  C12 UNL     1     -21.523   5.024  18.370  1.00  0.00     0.059 C
HETATM   11  C13 UNL     1     -20.052   4.654  18.568  1.00  0.00     0.045 C
HETATM   12  C14 UNL     1     -22.317   4.192  19.346  1.00  0.00     0.045 C
HETATM   13  C15 UNL     1     -21.706   6.491  18.729  1.00  0.00     0.045 C
ENDBRANCH   9  10
ENDBRANCH   6   9
ENDBRANCH   3   6
ENDBRANCH   1   2
BRANCH   1  14
HETATM   14  C4  UNL     1     -20.018   0.265  15.040  1.00  0.00     0.316 C
HETATM   15  O3  UNL     1     -19.749  -0.734  16.022  1.00  0.00    -0.286 OA
HETATM   16  C5  UNL     1     -20.281  -1.921  15.554  1.00  0.00     0.264 C
HETATM   17  O4  UNL     1     -20.873  -2.845  16.202  1.00  0.00    -0.265 OA
HETATM   18  C6  UNL     1     -20.030  -1.939  14.090  1.00  0.00     0.154 C
HETATM   19  C7  UNL     1     -20.020  -0.466  13.740  1.00  0.00     0.123 C
BRANCH  19  20
HETATM   20  O5  UNL     1     -21.133  -0.200  12.957  1.00  0.00    -0.384 OA
ATOM     21  H5  UNL     1     -20.999  -0.379  12.034  1.00  0.00     0.210 HD
ENDBRANCH  19  20
BRANCH  19  22
HETATM   22  C8  UNL     1     -18.790  -0.133  12.906  1.00  0.00    -0.015 C
HETATM   23  C9  UNL     1     -19.171   0.203  11.486  1.00  0.00     0.018 C
HETATM   24  C10 UNL     1     -17.772  -1.228  12.890  1.00  0.00     0.018 C
HETATM   25  C11 UNL     1     -18.120   1.106  13.487  1.00  0.00     0.018 C
ENDBRANCH  19  22
ENDBRANCH   1  14
TORSDOF 8
ENDMDL