MODEL 5
REMARK VINA RESULT: -7.227825202      2.996      4.236
REMARK  3 active torsions:
REMARK  status: ('A' for Active; 'I' for Inactive)
REMARK    1  A    between atoms: C2_2  and  O1_3
REMARK    2  A    between atoms: O1_3  and  C3_4
REMARK       I    between atoms: C3_4  and  N1_6
REMARK       I    between atoms: N1_6  and  C4_8
REMARK       I    between atoms: C4_8  and  N2_10
REMARK    3  A    between atoms: N2_10  and  C5_12
ROOT
HETATM    1  C5  UNL     1     -19.943  -1.854  14.310  1.00  0.00     0.153 A
HETATM    2  N3  UNL     1     -20.250  -3.033  13.812  1.00  0.00    -0.335 N
ATOM      3  H3  UNL     1     -20.859  -3.668  14.328  1.00  0.00     0.168 HD
HETATM    4  C6  UNL     1     -19.756  -3.387  12.627  1.00  0.00     0.063 A
HETATM    5  C7  UNL     1     -18.951  -2.470  12.018  1.00  0.00     0.043 A
HETATM    6  S1  UNL     1     -18.932  -1.157  13.142  1.00  0.00    -0.053 SA
HETATM    7  C8  UNL     1     -18.271  -2.605  10.706  1.00  0.00     0.167 A
HETATM    8  C9  UNL     1     -18.839  -1.500   9.810  1.00  0.00     0.046 C
HETATM    9  O4  UNL     1     -18.567  -3.819  10.156  1.00  0.00    -0.340 OA
HETATM   10  C10 UNL     1     -19.381  -4.839  10.691  1.00  0.00     0.089 A
HETATM   11  C11 UNL     1     -19.603  -6.043  10.024  1.00  0.00     0.087 A
HETATM   12  S2  UNL     1     -20.621  -6.890  11.069  1.00  0.00    -0.110 SA
HETATM   13  C12 UNL     1     -20.755  -5.741  12.316  1.00  0.00     0.066 A
HETATM   14  C13 UNL     1     -19.976  -4.688  11.872  1.00  0.00     0.032 A
ENDROOT
BRANCH   1  15
HETATM   15  N2  UNL     1     -20.337  -1.341  15.460  1.00  0.00    -0.288 N
HETATM   16  C4  UNL     1     -20.772   0.000  15.528  1.00  0.00     0.330 C
HETATM   17  N1  UNL     1     -19.851   1.057  15.337  1.00  0.00    -0.254 N
HETATM   18  O3  UNL     1     -21.971   0.250  15.756  1.00  0.00    -0.246 OA
HETATM   19  C3  UNL     1     -20.296   2.417  15.407  1.00  0.00     0.368 C
ATOM     20  H1  UNL     1     -18.870   0.850  15.149  1.00  0.00     0.175 HD
HETATM   21  O2  UNL     1     -19.522   3.381  15.247  1.00  0.00    -0.238 OA
ATOM     22  H2  UNL     1     -20.328  -1.916  16.302  1.00  0.00     0.172 HD
BRANCH  19  23
HETATM   23  O1  UNL     1     -21.635   2.690  15.662  1.00  0.00    -0.304 OA
BRANCH  23  24
HETATM   24  C2  UNL     1     -22.089   3.734  16.472  1.00  0.00     0.176 C
HETATM   25  C1  UNL     1     -23.508   4.161  16.162  1.00  0.00     0.034 C
ENDBRANCH  23  24
ENDBRANCH  19  23
ENDBRANCH   1  15
TORSDOF 3
ENDMDL