MODEL 2
REMARK VINA RESULT: -6.558827407      1.027      2.375
REMARK  7 active torsions:
REMARK  status: ('A' for Active; 'I' for Inactive)
REMARK    1  A    between atoms: C2_3  and  O1_4
REMARK    2  A    between atoms: C3_6  and  O2_7
REMARK    3  A    between atoms: C6_12  and  C7_13
REMARK    4  A    between atoms: C7_13  and  O3_14
REMARK    5  A    between atoms: C7_13  and  O4_16
REMARK    6  A    between atoms: O4_16  and  C8_17
REMARK       I    between atoms: C8_17  and  N3_19
REMARK    7  A    between atoms: C12_23  and  C13_24
ROOT
HETATM    1  C1  UNL     1      12.252 -36.992  13.016  1.00  0.00     0.158 C
HETATM    2  N1  UNL     1      11.714 -36.216  14.113  1.00  0.00    -0.328 N
HETATM    3  C2  UNL     1      10.722 -36.660  14.906  1.00  0.00     0.178 A
HETATM    4  C3  UNL     1      10.439 -35.677  15.861  1.00  0.00     0.140 A
HETATM    5  C4  UNL     1      11.291 -34.634  15.613  1.00  0.00     0.109 A
HETATM    6  C5  UNL     1      11.399 -33.376  16.322  1.00  0.00     0.104 C
HETATM    7  N2  UNL     1      11.477 -32.361  16.873  1.00  0.00    -0.191 NA
HETATM    8  C6  UNL     1      12.078 -34.994  14.518  1.00  0.00     0.092 A
ENDROOT
BRANCH   4   9
HETATM    9  O2  UNL     1       9.484 -35.741  16.863  1.00  0.00    -0.355 OA
ATOM     10  H2  UNL     1       8.549 -35.596  16.770  1.00  0.00     0.218 HD
ENDBRANCH   4   9
BRANCH   8  11
HETATM   11  C7  UNL     1      13.129 -34.178  13.905  1.00  0.00     0.321 C
BRANCH  11  12
HETATM   12  O3  UNL     1      14.304 -34.911  13.793  1.00  0.00    -0.365 OA
ATOM     13  H3  UNL     1      14.204 -35.597  13.144  1.00  0.00     0.213 HD
ENDBRANCH  11  12
BRANCH  11  14
HETATM   14  O4  UNL     1      12.790 -33.690  12.630  1.00  0.00    -0.267 OA
BRANCH  14  15
HETATM   15  C8  UNL     1      13.680 -33.019  11.796  1.00  0.00     0.366 C
HETATM   16  O5  UNL     1      14.228 -32.006  12.302  1.00  0.00    -0.238 OA
HETATM   17  N3  UNL     1      13.954 -33.443  10.469  1.00  0.00    -0.318 N
HETATM   18  C9  UNL     1      14.876 -32.749   9.595  1.00  0.00     0.129 C
HETATM   19  C12 UNL     1      13.412 -34.568   9.760  1.00  0.00     0.135 C
HETATM   20  C10 UNL     1      15.001 -33.583   8.363  1.00  0.00     0.022 C
HETATM   21  C11 UNL     1      13.649 -34.256   8.275  1.00  0.00     0.033 C
BRANCH  19  22
HETATM   22  C13 UNL     1      14.154 -35.841  10.034  1.00  0.00     0.009 C
HETATM   23  N4  UNL     1      15.050 -36.086  10.907  1.00  0.00    -0.374 N
HETATM   24  C14 UNL     1      15.536 -37.404  10.885  1.00  0.00     0.061 C
ATOM     25  H4  UNL     1      15.386 -35.384  11.567  1.00  0.00     0.164 HD
HETATM   26  C15 UNL     1      15.142 -37.919   9.522  1.00  0.00     0.050 C
HETATM   27  C16 UNL     1      13.911 -37.081   9.242  1.00  0.00     0.059 C
ENDBRANCH  19  22
ENDBRANCH  14  15
ENDBRANCH  11  14
ENDBRANCH   8  11
BRANCH   3  28
HETATM   28  O1  UNL     1      10.033 -37.864  14.870  1.00  0.00    -0.344 OA
ATOM     29  H1  UNL     1       9.644 -38.317  14.132  1.00  0.00     0.219 HD
ENDBRANCH   3  28
TORSDOF 7
ENDMDL