MODEL 5
REMARK VINA RESULT: -6.388375039      1.288      1.288
REMARK  3 active torsions:
REMARK  status: ('A' for Active; 'I' for Inactive)
REMARK    1  A    between atoms: S1_2  and  C2_3
REMARK    2  A    between atoms: C3_8  and  S2_9
REMARK    3  A    between atoms: S2_9  and  C4_10
ROOT
HETATM    1  C4  UNL     1      14.443 -32.107  11.335  1.00  0.00     0.039 A
HETATM    2  C5  UNL     1      14.001 -30.876  11.245  1.00  0.00     0.093 A
HETATM    3  C6  UNL     1      13.672 -30.530   9.872  1.00  0.00     0.244 A
HETATM    4  O1  UNL     1      13.222 -29.420   9.446  1.00  0.00    -0.269 OA
HETATM    5  N3  UNL     1      13.957 -31.677   9.111  1.00  0.00    -0.326 N
ATOM      6  H3  UNL     1      13.836 -31.765   8.102  1.00  0.00     0.165 HD
HETATM    7  C7  UNL     1      14.443 -32.696   9.980  1.00  0.00     0.144 A
HETATM    8  C8  UNL     1      13.598 -33.929   9.890  1.00  0.00     0.070 C
HETATM    9  C9  UNL     1      13.620 -34.610   8.575  1.00  0.00     0.087 C
HETATM   10  S3  UNL     1      15.302 -35.202   8.240  1.00  0.00    -0.095 SA
HETATM   11  C10 UNL     1      16.368 -34.140   9.178  1.00  0.00     0.135 C
HETATM   12  N4  UNL     1      17.573 -34.488   9.406  1.00  0.00    -0.380 N
ATOM     13  H41 UNL     1      18.185 -33.878   9.946  1.00  0.00     0.158 HD
ATOM     14  H42 UNL     1      17.961 -35.369   9.067  1.00  0.00     0.158 HD
HETATM   15  N5  UNL     1      15.835 -32.931   9.644  1.00  0.00    -0.340 N
ATOM     16  H5  UNL     1      16.480 -32.149   9.755  1.00  0.00     0.164 HD
ENDROOT
BRANCH   1  17
HETATM   17  S2  UNL     1      14.980 -32.999  12.826  1.00  0.00    -0.064 SA
BRANCH  17  18
HETATM   18  C3  UNL     1      13.671 -33.999  13.489  1.00  0.00     0.134 A
HETATM   19  N2  UNL     1      13.365 -35.255  13.245  1.00  0.00    -0.286 N
HETATM   20  N1  UNL     1      12.386 -35.812  13.816  1.00  0.00    -0.287 N
ATOM     21  H2  UNL     1      13.928 -35.789  12.584  1.00  0.00     0.188 HD
HETATM   22  C2  UNL     1      11.651 -35.114  14.679  1.00  0.00     0.128 A
ATOM     23  H1  UNL     1      12.161 -36.787  13.617  1.00  0.00     0.188 HD
HETATM   24  S4  UNL     1      12.445 -33.599  14.631  1.00  0.00    -0.037 SA
BRANCH  22  25
HETATM   25  S1  UNL     1      10.217 -35.651  15.623  1.00  0.00    -0.108 SA
HETATM   26  C1  UNL     1      10.186 -34.862  17.259  1.00  0.00     0.097 C
ENDBRANCH  22  25
ENDBRANCH  17  18
ENDBRANCH   1  17
TORSDOF 3
ENDMDL