MODEL 5
REMARK VINA RESULT: -5.838026745      2.605      5.152
REMARK  6 active torsions:
REMARK  status: ('A' for Active; 'I' for Inactive)
REMARK    1  A    between atoms: C8_11  and  C9_12
REMARK    2  A    between atoms: C9_12  and  C10_13
REMARK    3  A    between atoms: C10_13  and  N1_14
REMARK    4  A    between atoms: C10_13  and  C11_18
REMARK    5  A    between atoms: C11_18  and  O4_19
REMARK    6  A    between atoms: N2_21  and  O5_23
ROOT
HETATM    1  C1  UNL     1      13.557 -35.768  13.657  1.00  0.00     0.055 C
HETATM    2  C2  UNL     1      13.266 -36.124  12.216  1.00  0.00     0.127 C
HETATM    3  C3  UNL     1      12.070 -37.093  12.272  1.00  0.00     0.055 C
HETATM    4  O1  UNL     1      14.324 -36.864  11.680  1.00  0.00    -0.302 OA
HETATM    5  C4  UNL     1      15.410 -36.597  10.894  1.00  0.00     0.279 C
HETATM    6  O2  UNL     1      16.281 -37.476  10.766  1.00  0.00    -0.264 OA
HETATM    7  C5  UNL     1      15.650 -35.339  10.168  1.00  0.00     0.138 C
HETATM    8  C6  UNL     1      17.122 -35.216   9.854  1.00  0.00     0.038 C
HETATM    9  C7  UNL     1      15.169 -34.216  11.010  1.00  0.00     0.190 C
HETATM   10  O3  UNL     1      15.851 -33.618  11.795  1.00  0.00    -0.293 OA
HETATM   11  C8  UNL     1      13.762 -34.051  10.655  1.00  0.00     0.188 C
HETATM   12  O6  UNL     1      13.608 -34.616   9.369  1.00  0.00    -0.352 OA
HETATM   13  C12 UNL     1      14.767 -35.207   8.982  1.00  0.00     0.079 C
HETATM   14  C13 UNL     1      14.545 -36.625   8.435  1.00  0.00     0.047 C
HETATM   15  C14 UNL     1      15.371 -34.372   7.871  1.00  0.00     0.047 C
HETATM   16  C15 UNL     1      12.898 -34.924  11.488  1.00  0.00     0.203 C
HETATM   17  O7  UNL     1      11.749 -34.561  11.541  1.00  0.00    -0.291 OA
ENDROOT
BRANCH  11  18
HETATM   18  C9  UNL     1      13.357 -32.628  10.562  1.00  0.00     0.096 C
BRANCH  18  19
HETATM   19  C10 UNL     1      12.854 -31.954  11.774  1.00  0.00     0.262 C
BRANCH  19  20
HETATM   20  N1  UNL     1      11.572 -31.331  11.669  1.00  0.00    -0.068 N
ATOM     21  H13 UNL     1      11.541 -30.505  12.266  1.00  0.00     0.275 HD
ATOM     22  H12 UNL     1      11.475 -30.899  10.750  1.00  0.00     0.275 HD
ATOM     23  H11 UNL     1      10.763 -31.923  11.857  1.00  0.00     0.275 HD
ENDBRANCH  19  20
BRANCH  19  24
HETATM   24  C11 UNL     1      13.823 -30.832  12.078  1.00  0.00     0.166 C
HETATM   25  N2  UNL     1      13.660 -30.047  13.075  1.00  0.00    -0.249 N
ATOM     26  H2  UNL     1      14.357 -29.315  13.213  1.00  0.00     0.196 HD
BRANCH  24  27
HETATM   27  O4  UNL     1      14.897 -30.709  11.210  1.00  0.00    -0.347 OA
ATOM     28  H4  UNL     1      15.470 -29.966  11.362  1.00  0.00     0.219 HD
ENDBRANCH  24  27
BRANCH  25  29
HETATM   29  O5  UNL     1      12.639 -30.109  13.960  1.00  0.00    -0.288 OA
ATOM     30  H5  UNL     1      11.747 -30.365  13.754  1.00  0.00     0.244 HD
ENDBRANCH  25  29
ENDBRANCH  19  24
ENDBRANCH  18  19
ENDBRANCH  11  18
TORSDOF 6
ENDMDL