MODEL 5
REMARK VINA RESULT: -5.734270903      3.163      7.378
REMARK  6 active torsions:
REMARK  status: ('A' for Active; 'I' for Inactive)
REMARK    1  A    between atoms: O1_2  and  C2_3
REMARK    2  A    between atoms: C3_6  and  N2_7
REMARK    3  A    between atoms: C9_14  and  O2_16
REMARK    4  A    between atoms: C11_19  and  C12_20
REMARK    5  A    between atoms: C14_23  and  O4_24
REMARK    6  A    between atoms: C15_26  and  O5_27
ROOT
HETATM    1  C2  UNL     1      13.364 -34.235  10.252  1.00  0.00     0.160 A
HETATM    2  N1  UNL     1      12.589 -34.560  11.233  1.00  0.00    -0.316 N
ATOM      3  H1  UNL     1      11.953 -33.865  11.625  1.00  0.00     0.170 HD
HETATM    4  C3  UNL     1      12.610 -35.782  11.735  1.00  0.00     0.151 A
HETATM    5  S1  UNL     1      13.798 -36.528  10.767  1.00  0.00    -0.051 SA
HETATM    6  C11 UNL     1      14.202 -35.202   9.759  1.00  0.00     0.068 A
ENDROOT
BRANCH   4   7
HETATM    7  N2  UNL     1      11.797 -36.226  12.810  1.00  0.00    -0.341 N
HETATM    8  C4  UNL     1      11.721 -35.737  13.973  1.00  0.00     0.022 C
HETATM    9  C5  UNL     1      10.779 -36.396  14.928  1.00  0.00     0.056 C
HETATM   10  C9  UNL     1      12.466 -34.573  14.504  1.00  0.00     0.092 C
HETATM   11  C6  UNL     1       9.968 -35.374  15.691  1.00  0.00     0.006 C
HETATM   12  C7  UNL     1      10.812 -34.348  16.370  1.00  0.00     0.004 C
HETATM   13  C8  UNL     1      12.268 -34.491  16.001  1.00  0.00     0.043 C
HETATM   14  C10 UNL     1      13.945 -34.658  14.247  1.00  0.00     0.052 C
ATOM     15  H2  UNL     1      11.204 -37.034  12.622  1.00  0.00     0.167 HD
BRANCH  10  16
HETATM   16  O2  UNL     1      12.000 -33.434  13.856  1.00  0.00    -0.384 OA
ATOM     17  H2  UNL     1      11.843 -33.658  12.947  1.00  0.00     0.211 HD
ENDBRANCH  10  16
ENDBRANCH   4   7
BRANCH   1  18
HETATM   18  O1  UNL     1      13.360 -32.931   9.694  1.00  0.00    -0.340 OA
HETATM   19  C1  UNL     1      13.981 -31.839  10.311  1.00  0.00     0.211 C
ENDBRANCH   1  18
BRANCH   6  20
HETATM   20  C12 UNL     1      15.177 -35.057   8.638  1.00  0.00     0.197 C
HETATM   21  O3  UNL     1      16.233 -35.907   8.786  1.00  0.00    -0.375 OA
HETATM   22  C13 UNL     1      16.336 -36.736   7.704  1.00  0.00     0.203 C
HETATM   23  C14 UNL     1      15.645 -36.007   6.552  1.00  0.00     0.173 C
HETATM   24  C15 UNL     1      14.502 -35.339   7.328  1.00  0.00     0.183 C
BRANCH  23  25
HETATM   25  O4  UNL     1      16.522 -35.033   6.059  1.00  0.00    -0.391 OA
ATOM     26  H4  UNL     1      16.069 -34.536   5.386  1.00  0.00     0.210 HD
ENDBRANCH  23  25
BRANCH  24  27
HETATM   27  O5  UNL     1      13.410 -36.165   7.418  1.00  0.00    -0.390 OA
ATOM     28  H5  UNL     1      13.036 -36.229   8.289  1.00  0.00     0.210 HD
ENDBRANCH  24  27
ENDBRANCH   6  20
TORSDOF 6
ENDMDL