MODEL 4
REMARK VINA RESULT: -6.620645799      2.192      4.799
REMARK  5 active torsions:
REMARK  status: ('A' for Active; 'I' for Inactive)
REMARK    1  A    between atoms: C1_2  and  C2_4
REMARK    2  A    between atoms: N2_9  and  C5_10
REMARK    3  A    between atoms: C11_18  and  O3_19
REMARK    4  A    between atoms: C13_23  and  C14_24
REMARK    5  A    between atoms: C14_24  and  N4_25
ROOT
HETATM    1  C2  UNL     1      13.357 -31.526  12.346  1.00  0.00     0.144 A
HETATM    2  C3  UNL     1      12.994 -32.829  12.547  1.00  0.00     0.079 A
HETATM    3  C4  UNL     1      12.813 -33.374  11.280  1.00  0.00     0.134 A
HETATM    4  N1  UNL     1      13.066 -32.419  10.408  1.00  0.00    -0.282 N
ATOM      5  H1  UNL     1      13.011 -32.543   9.397  1.00  0.00     0.189 HD
HETATM    6  N2  UNL     1      13.396 -31.293  10.987  1.00  0.00    -0.279 N
HETATM    7  N3  UNL     1      12.427 -34.726  11.149  1.00  0.00    -0.342 N
ATOM      8  H3  UNL     1      11.961 -35.052  10.303  1.00  0.00     0.164 HD
HETATM    9  C8  UNL     1      12.700 -35.631  12.224  1.00  0.00     0.144 C
HETATM   10  C9  UNL     1      14.128 -36.132  12.161  1.00  0.00     0.064 C
HETATM   11  C10 UNL     1      14.066 -36.994  10.895  1.00  0.00     0.036 C
HETATM   12  C11 UNL     1      12.727 -37.651  10.976  1.00  0.00     0.122 C
HETATM   13  C12 UNL     1      11.919 -36.910  12.009  1.00  0.00     0.093 C
HETATM   14  O4  UNL     1      12.401 -35.045  13.476  1.00  0.00    -0.317 OA
HETATM   15  C13 UNL     1      12.784 -33.696  13.677  1.00  0.00     0.110 C
ENDROOT
BRANCH  12  16
HETATM   16  O3  UNL     1      12.902 -38.988  11.327  1.00  0.00    -0.395 OA
ATOM     17  H3  UNL     1      12.344 -39.185  12.070  1.00  0.00     0.210 HD
ENDBRANCH  12  16
BRANCH  15  18
HETATM   18  C14 UNL     1      12.940 -33.281  14.901  1.00  0.00     0.205 C
BRANCH  18  19
HETATM   19  N4  UNL     1      11.754 -33.138  15.721  1.00  0.00    -0.124 N
HETATM   20  O5  UNL     1      11.391 -31.984  15.994  1.00  0.00    -0.532 OA
HETATM   21  O6  UNL     1      11.059 -34.202  16.182  1.00  0.00    -0.532 OA
ENDBRANCH  18  19
ENDBRANCH  15  18
BRANCH   1  22
HETATM   22  C1  UNL     1      13.598 -30.476  13.257  1.00  0.00     0.229 C
HETATM   23  O1  UNL     1      14.623 -29.983  13.697  1.00  0.00    -0.643 OA
HETATM   24  O2  UNL     1      12.466 -29.787  13.831  1.00  0.00    -0.643 OA
ENDBRANCH   1  22
BRANCH   6  25
HETATM   25  C5  UNL     1      13.719 -30.109  10.276  1.00  0.00     0.109 A
HETATM   26  C6  UNL     1      15.108 -30.121   9.604  1.00  0.00     0.029 A
HETATM   27  C7  UNL     1      13.843 -30.007   8.824  1.00  0.00     0.029 A
ENDBRANCH   6  25
TORSDOF 5
ENDMDL