MODEL 5
REMARK VINA RESULT: -6.901647656      1.977      3.923
REMARK  6 active torsions:
REMARK  status: ('A' for Active; 'I' for Inactive)
REMARK    1  A    between atoms: C2_2  and  C3_4
REMARK    2  A    between atoms: C4_5  and  N1_6
REMARK    3  A    between atoms: N1_6  and  N2_8
REMARK    4  A    between atoms: N2_8  and  C5_10
REMARK    5  A    between atoms: C10_15  and  C11_16
REMARK    6  A    between atoms: C14_25  and  O4_26
ROOT
HETATM    1  C3  UNL     1      14.772 -33.034  10.970  1.00  0.00     0.105 C
HETATM    2  C4  UNL     1      14.690 -33.062  12.302  1.00  0.00     0.138 C
HETATM    3  N3  UNL     1      14.643 -31.941  13.167  1.00  0.00    -0.331 N
ATOM      4  H3  UNL     1      14.896 -32.136  14.135  1.00  0.00     0.168 HD
HETATM    5  C12 UNL     1      14.332 -30.717  12.927  1.00  0.00     0.076 C
HETATM    6  C13 UNL     1      14.375 -29.750  14.056  1.00  0.00     0.089 C
HETATM    7  N4  UNL     1      13.945 -30.183  11.670  1.00  0.00    -0.347 N
ATOM      8  H4  UNL     1      13.319 -29.382  11.754  1.00  0.00     0.163 HD
HETATM    9  C14 UNL     1      14.242 -30.522  10.303  1.00  0.00     0.295 C
HETATM   10  C15 UNL     1      14.841 -31.843  10.121  1.00  0.00     0.215 C
HETATM   11  O5  UNL     1      15.516 -31.984   9.085  1.00  0.00    -0.287 OA
ENDROOT
BRANCH   2  12
HETATM   12  N1  UNL     1      14.641 -34.322  12.914  1.00  0.00    -0.289 N
ATOM     13  H1  UNL     1      14.930 -35.139  12.377  1.00  0.00     0.188 HD
BRANCH  12  14
HETATM   14  N2  UNL     1      14.245 -34.488  14.129  1.00  0.00    -0.329 N
ATOM     15  H2  UNL     1      14.695 -34.006  14.907  1.00  0.00     0.180 HD
BRANCH  14  16
HETATM   16  C5  UNL     1      13.133 -35.389  14.340  1.00  0.00     0.113 C
HETATM   17  C6  UNL     1      12.980 -36.341  13.192  1.00  0.00     0.028 C
HETATM   18  C7  UNL     1      11.591 -36.569  12.730  1.00  0.00     0.002 C
HETATM   19  C8  UNL     1      10.530 -36.552  13.776  1.00  0.00     0.001 C
HETATM   20  C9  UNL     1      10.818 -35.687  14.954  1.00  0.00     0.017 C
HETATM   21  C10 UNL     1      11.832 -34.646  14.534  1.00  0.00     0.111 C
BRANCH  21  22
HETATM   22  C11 UNL     1      11.904 -33.606  15.551  1.00  0.00     0.179 C
HETATM   23  O2  UNL     1      12.398 -32.487  15.265  1.00  0.00    -0.648 OA
HETATM   24  O3  UNL     1      11.454 -33.755  16.859  1.00  0.00    -0.648 OA
ENDBRANCH  21  22
ENDBRANCH  14  16
ENDBRANCH  12  14
ENDBRANCH   2  12
BRANCH   1  25
HETATM   25  C2  UNL     1      14.796 -34.318  10.328  1.00  0.00     0.163 C
HETATM   26  C1  UNL     1      13.651 -34.846   9.576  1.00  0.00     0.097 C
HETATM   27  O1  UNL     1      15.852 -35.030  10.415  1.00  0.00    -0.293 OA
ENDBRANCH   1  25
BRANCH   9  28
HETATM   28  O4  UNL     1      13.039 -30.479   9.582  1.00  0.00    -0.369 OA
ATOM     29  H4  UNL     1      13.230 -30.120   8.723  1.00  0.00     0.212 HD
ENDBRANCH   9  28
TORSDOF 6
ENDMDL