MODEL 1
REMARK VINA RESULT: -6.840738542      0.000      0.000
REMARK  6 active torsions:
REMARK  status: ('A' for Active; 'I' for Inactive)
REMARK    1  A    between atoms: N1_2  and  C3_4
REMARK    2  A    between atoms: C3_4  and  S2_6
REMARK    3  A    between atoms: S2_6  and  C4_7
REMARK    4  A    between atoms: C6_11  and  N3_12
REMARK    5  A    between atoms: N3_12  and  C7_14
REMARK    6  A    between atoms: C9_18  and  N5_19
ROOT
HETATM    1  C4  UNL     1      13.885 -32.337  13.332  1.00  0.00     0.097 A
HETATM    2  C5  UNL     1      14.003 -30.785  13.351  1.00  0.00     0.138 A
HETATM    3  N2  UNL     1      13.981 -30.343  12.009  1.00  0.00    -0.377 N
ATOM      4  H2  UNL     1      14.072 -29.362  11.745  1.00  0.00     0.160 HD
HETATM    5  C6  UNL     1      13.839 -31.276  11.161  1.00  0.00     0.097 A
HETATM    6  C10 UNL     1      13.751 -32.579  11.838  1.00  0.00     0.175 A
HETATM    7  C11 UNL     1      14.883 -33.372  11.322  1.00  0.00     0.073 C
HETATM    8  N6  UNL     1      15.788 -33.992  10.899  1.00  0.00    -0.196 NA
ENDROOT
BRANCH   1   9
HETATM    9  S2  UNL     1      12.435 -32.758  14.230  1.00  0.00    -0.092 SA
BRANCH   9  10
HETATM   10  C3  UNL     1      12.004 -34.373  14.617  1.00  0.00     0.136 C
HETATM   11  S1  UNL     1      12.801 -35.619  13.765  1.00  0.00    -0.053 SA
BRANCH  10  12
HETATM   12  N1  UNL     1      11.078 -34.841  15.556  1.00  0.00    -0.375 N
HETATM   13  C1  UNL     1      10.204 -35.996  15.251  1.00  0.00     0.150 C
HETATM   14  C2  UNL     1      10.913 -34.240  16.849  1.00  0.00     0.150 C
ENDBRANCH  10  12
ENDBRANCH   9  10
ENDBRANCH   1   9
BRANCH   5  15
HETATM   15  N3  UNL     1      13.790 -31.078   9.762  1.00  0.00    -0.338 N
ATOM     16  H3  UNL     1      13.384 -31.810   9.179  1.00  0.00     0.168 HD
BRANCH  15  17
HETATM   17  C7  UNL     1      14.293 -29.880   9.125  1.00  0.00     0.094 A
HETATM   18  C8  UNL     1      13.625 -28.750   8.731  1.00  0.00     0.127 A
HETATM   19  N4  UNL     1      14.324 -27.777   8.213  1.00  0.00    -0.344 N
HETATM   20  C9  UNL     1      15.640 -27.925   8.092  1.00  0.00     0.144 A
ATOM     21  H4  UNL     1      13.868 -26.918   7.906  1.00  0.00     0.167 HD
HETATM   22  S3  UNL     1      15.913 -29.488   8.726  1.00  0.00    -0.035 SA
BRANCH  20  23
HETATM   23  N5  UNL     1      16.494 -27.065   7.602  1.00  0.00    -0.380 N
ATOM     24  H52 UNL     1      16.328 -26.145   7.194  1.00  0.00     0.158 HD
ATOM     25  H51 UNL     1      17.507 -27.165   7.539  1.00  0.00     0.158 HD
ENDBRANCH  20  23
ENDBRANCH  15  17
ENDBRANCH   5  15
TORSDOF 6
ENDMDL