MODEL 1
REMARK VINA RESULT: -6.979287533      0.000      0.000
REMARK  5 active torsions:
REMARK  status: ('A' for Active; 'I' for Inactive)
REMARK    1  A    between atoms: C2_3  and  C3_4
REMARK       I    between atoms: C3_4  and  N2_6
REMARK    2  A    between atoms: N2_6  and  C4_8
REMARK    3  A    between atoms: C6_10  and  N3_11
REMARK    4  A    between atoms: C7_12  and  O2_13
REMARK    5  A    between atoms: C11_21  and  N4_22
ROOT
HETATM    1  N1  UNL     1       9.831 -36.520  14.429  1.00  0.00    -0.196 NA
HETATM    2  C1  UNL     1      10.183 -35.701  15.168  1.00  0.00     0.079 C
HETATM    3  C2  UNL     1      10.621 -34.665  16.129  1.00  0.00     0.129 A
HETATM    4  C12 UNL     1      10.764 -35.175  17.601  1.00  0.00     0.037 A
HETATM    5  C13 UNL     1       9.631 -34.295  17.171  1.00  0.00     0.037 A
ENDROOT
BRANCH   3   6
HETATM    6  C3  UNL     1      11.663 -33.709  15.712  1.00  0.00     0.241 C
HETATM    7  O1  UNL     1      11.788 -32.659  16.396  1.00  0.00    -0.272 OA
HETATM    8  N2  UNL     1      12.489 -33.929  14.618  1.00  0.00    -0.351 N
ATOM      9  H2  UNL     1      12.335 -34.800  14.110  1.00  0.00     0.163 HD
BRANCH   8  10
HETATM   10  C4  UNL     1      13.540 -33.079  14.107  1.00  0.00     0.142 C
HETATM   11  C5  UNL     1      14.576 -33.847  13.391  1.00  0.00     0.057 C
HETATM   12  C6  UNL     1      14.663 -33.699  11.924  1.00  0.00     0.119 C
HETATM   13  C10 UNL     1      13.603 -32.916  11.248  1.00  0.00     0.196 C
HETATM   14  O3  UNL     1      12.477 -32.690  12.083  1.00  0.00    -0.356 OA
HETATM   15  C11 UNL     1      12.980 -32.012  13.171  1.00  0.00     0.341 C
BRANCH  12  16
HETATM   16  N3  UNL     1      14.893 -35.014  11.244  1.00  0.00    -0.305 N
HETATM   17  C7  UNL     1      15.998 -35.274  10.555  1.00  0.00     0.150 A
HETATM   18  C8  UNL     1      16.111 -36.491   9.950  1.00  0.00     0.108 A
HETATM   19  S1  UNL     1      14.647 -37.245  10.370  1.00  0.00    -0.068 SA
HETATM   20  C9  UNL     1      13.972 -35.981  11.287  1.00  0.00     0.147 A
HETATM   21  S2  UNL     1      12.510 -36.097  11.995  1.00  0.00    -0.052 SA
BRANCH  17  22
HETATM   22  O2  UNL     1      17.074 -34.342  10.418  1.00  0.00    -0.346 OA
ATOM     23  H2  UNL     1      17.158 -33.747   9.681  1.00  0.00     0.219 HD
ENDBRANCH  17  22
ENDBRANCH  12  16
BRANCH  15  24
HETATM   24  N4  UNL     1      11.996 -31.187  13.833  1.00  0.00    -0.051 N
ATOM     25  H43 UNL     1      11.726 -31.580  14.735  1.00  0.00     0.277 HD
ATOM     26  H42 UNL     1      12.403 -30.309  14.158  1.00  0.00     0.277 HD
ATOM     27  H41 UNL     1      11.182 -31.024  13.240  1.00  0.00     0.277 HD
ENDBRANCH  15  24
ENDBRANCH   8  10
ENDBRANCH   3   6
TORSDOF 5
ENDMDL