MODEL 2
REMARK VINA RESULT: -5.885276875      4.762      7.244
REMARK  5 active torsions:
REMARK  status: ('A' for Active; 'I' for Inactive)
REMARK    1  A    between atoms: S1_2  and  C2_3
REMARK    2  A    between atoms: C3_4  and  C4_5
REMARK    3  A    between atoms: C6_9  and  O1_10
REMARK    4  A    between atoms: C7_12  and  C8_13
REMARK    5  A    between atoms: C8_13  and  O2_14
ROOT
HETATM    1  C4  UNL     1      12.419 -33.350  14.377  1.00  0.00     0.157 C
HETATM    2  N1  UNL     1      12.124 -32.164  14.721  1.00  0.00    -0.367 N
ATOM      3  H1  UNL     1      12.101 -31.442  14.001  1.00  0.00     0.161 HD
HETATM    4  C5  UNL     1      11.823 -31.790  16.068  1.00  0.00     0.156 C
HETATM    5  C6  UNL     1      11.224 -32.881  16.889  1.00  0.00     0.167 C
HETATM    6  C7  UNL     1      11.534 -34.265  16.434  1.00  0.00     0.184 C
HETATM    7  O3  UNL     1      12.449 -34.330  15.357  1.00  0.00    -0.325 OA
ENDROOT
BRANCH   1   8
HETATM    8  C3  UNL     1      12.728 -33.726  12.985  1.00  0.00     0.073 A
HETATM    9  C2  UNL     1      13.043 -34.967  12.495  1.00  0.00     0.029 A
HETATM   10  C10 UNL     1      13.286 -35.050  11.163  1.00  0.00    -0.018 A
HETATM   11  C9  UNL     1      13.198 -33.901  10.431  1.00  0.00    -0.007 A
HETATM   12  C11 UNL     1      13.654 -36.303  10.377  1.00  0.00     0.115 C
HETATM   13  S2  UNL     1      12.783 -32.743  11.597  1.00  0.00    -0.088 SA
HETATM   14  C13 UNL     1      13.423 -33.786   8.982  1.00  0.00     0.057 C
HETATM   15  C12 UNL     1      14.745 -34.363   8.530  1.00  0.00     0.079 C
HETATM   16  S3  UNL     1      15.194 -35.833   9.495  1.00  0.00    -0.164 SA
BRANCH   9  17
HETATM   17  S1  UNL     1      13.111 -36.396  13.652  1.00  0.00    -0.132 SA
HETATM   18  C1  UNL     1      11.579 -37.323  13.366  1.00  0.00     0.095 C
ENDBRANCH   9  17
ENDBRANCH   1   8
BRANCH   6  19
HETATM   19  C8  UNL     1      10.302 -35.032  15.989  1.00  0.00     0.199 C
BRANCH  19  20
HETATM   20  O2  UNL     1       9.643 -35.662  17.015  1.00  0.00    -0.398 OA
ATOM     21  H2  UNL     1       9.885 -35.345  17.877  1.00  0.00     0.209 HD
ENDBRANCH  19  20
ENDBRANCH   6  19
BRANCH   5  22
HETATM   22  O1  UNL     1       9.830 -32.756  17.006  1.00  0.00    -0.391 OA
ATOM     23  H1  UNL     1       9.488 -33.232  17.753  1.00  0.00     0.210 HD
ENDBRANCH   5  22
TORSDOF 5
ENDMDL