MODEL 1
REMARK VINA RESULT: -5.924582886      0.000      0.000
REMARK  5 active torsions:
REMARK  status: ('A' for Active; 'I' for Inactive)
REMARK    1  A    between atoms: C2_2  and  O1_3
REMARK    2  A    between atoms: C5_8  and  O2_9
REMARK    3  A    between atoms: O2_9  and  C6_10
REMARK    4  A    between atoms: C6_10  and  C7_11
REMARK    5  A    between atoms: C12_20  and  O5_21
ROOT
HETATM    1  C1  UNL     1      16.428 -34.456   9.425  1.00  0.00     0.049 C
HETATM    2  C2  UNL     1      15.151 -33.670   9.224  1.00  0.00     0.091 C
HETATM    3  C3  UNL     1      15.387 -32.251   9.692  1.00  0.00     0.114 C
HETATM    4  S1  UNL     1      13.868 -31.614  10.452  1.00  0.00    -0.153 SA
HETATM    5  C4  UNL     1      13.437 -32.749  11.811  1.00  0.00     0.140 C
HETATM    6  C5  UNL     1      14.305 -32.541  13.008  1.00  0.00     0.313 C
HETATM    7  O3  UNL     1      15.504 -33.176  12.541  1.00  0.00    -0.206 OA
HETATM    8  O4  UNL     1      15.134 -34.293  12.020  1.00  0.00    -0.229 OA
HETATM    9  C11 UNL     1      13.946 -34.128  11.375  1.00  0.00     0.210 C
HETATM   10  C12 UNL     1      13.966 -34.301   9.905  1.00  0.00     0.186 C
ENDROOT
BRANCH   6  11
HETATM   11  O2  UNL     1      13.897 -33.288  14.061  1.00  0.00    -0.352 OA
BRANCH  11  12
HETATM   12  C6  UNL     1      12.745 -32.944  14.688  1.00  0.00     0.218 C
BRANCH  12  13
HETATM   13  C7  UNL     1      11.904 -34.163  14.936  1.00  0.00     0.024 A
HETATM   14  S2  UNL     1      11.782 -35.641  14.095  1.00  0.00    -0.103 SA
HETATM   15  C8  UNL     1      10.615 -36.425  15.044  1.00  0.00     0.051 A
HETATM   16  C9  UNL     1      10.338 -35.503  16.017  1.00  0.00     0.027 A
HETATM   17  C10 UNL     1      11.004 -34.333  15.962  1.00  0.00     0.027 A
HETATM   18  S3  UNL     1      10.743 -33.010  17.183  1.00  0.00    -0.051 SA
ENDBRANCH  12  13
ENDBRANCH  11  12
ENDBRANCH   6  11
BRANCH  10  19
HETATM   19  O5  UNL     1      12.788 -33.801   9.355  1.00  0.00    -0.390 OA
ATOM     20  H5  UNL     1      12.173 -34.512   9.213  1.00  0.00     0.210 HD
ENDBRANCH  10  19
BRANCH   2  21
HETATM   21  O1  UNL     1      14.874 -33.704   7.839  1.00  0.00    -0.387 OA
ATOM     22  H1  UNL     1      13.968 -33.436   7.739  1.00  0.00     0.210 HD
ENDBRANCH   2  21
TORSDOF 5
ENDMDL