MODEL 1
REMARK VINA RESULT: -8.598975782      0.000      0.000
REMARK  5 active torsions:
REMARK  status: ('A' for Active; 'I' for Inactive)
REMARK    1  A    between atoms: O1_2  and  C2_3
REMARK    2  A    between atoms: C2_3  and  C3_4
REMARK    3  A    between atoms: C6_9  and  N2_10
REMARK    4  A    between atoms: N3_17  and  C13_18
REMARK    5  A    between atoms: C13_18  and  C14_19
ROOT
HETATM    1  N2  UNL     1      16.235  66.138  42.056  1.00  0.00    -0.217 N
HETATM    2  C7  UNL     1      15.268  66.523  43.046  1.00  0.00     0.143 C
HETATM    3  C8  UNL     1      15.610  66.281  44.448  1.00  0.00     0.052 C
HETATM    4  C9  UNL     1      17.053  66.144  44.845  1.00  0.00     0.043 C
HETATM    5  C10 UNL     1      17.159  67.051  46.086  1.00  0.00     0.033 C
HETATM    6  C11 UNL     1      17.930  66.346  47.130  1.00  0.00     0.022 C
HETATM    7  C12 UNL     1      18.070  64.971  46.633  1.00  0.00     0.123 C
HETATM    8  N3  UNL     1      17.488  64.935  45.326  1.00  0.00    -0.378 N
HETATM    9  C17 UNL     1      17.967  66.715  43.737  1.00  0.00     0.005 C
HETATM   10  C18 UNL     1      19.397  66.298  43.925  1.00  0.00     0.040 C
HETATM   11  C19 UNL     1      20.289  67.283  44.545  1.00  0.00    -0.030 C
HETATM   12  C20 UNL     1      20.091  68.554  44.329  1.00  0.00    -0.031 C
HETATM   13  C21 UNL     1      19.000  69.016  43.487  1.00  0.00     0.028 C
HETATM   14  C22 UNL     1      17.775  68.159  43.468  1.00  0.00     0.018 C
HETATM   15  C23 UNL     1      17.601  66.018  42.404  1.00  0.00     0.153 C
ENDROOT
BRANCH   8  16
HETATM   16  C13 UNL     1      17.421  63.672  44.805  1.00  0.00     0.117 C
BRANCH  16  17
HETATM   17  C14 UNL     1      17.028  62.506  45.641  1.00  0.00     0.064 A
HETATM   18  C15 UNL     1      15.759  61.975  45.774  1.00  0.00     0.119 A
HETATM   19  N4  UNL     1      15.816  60.959  46.629  1.00  0.00    -0.360 N
HETATM   20  C16 UNL     1      17.085  60.828  47.043  1.00  0.00     0.180 A
ATOM     21  H4  UNL     1      15.029  60.378  46.921  1.00  0.00     0.166 HD
HETATM   22  N5  UNL     1      17.802  61.769  46.437  1.00  0.00    -0.350 N
ATOM     23  H5  UNL     1      18.804  61.908  46.563  1.00  0.00     0.166 HD
ENDBRANCH  16  17
ENDBRANCH   8  16
BRANCH   1  24
HETATM   24  C6  UNL     1      15.805  65.870  40.692  1.00  0.00     0.680 A
HETATM   25  N1  UNL     1      14.890  64.939  40.444  1.00  0.00    -0.202 N
HETATM   26  C5  UNL     1      14.491  64.688  39.198  1.00  0.00     0.108 A
ATOM     27  H1  UNL     1      14.487  64.411  41.217  1.00  0.00     0.183 HD
HETATM   28  C4  UNL     1      15.034  65.402  38.156  1.00  0.00     0.045 A
HETATM   29  C3  UNL     1      15.989  66.377  38.393  1.00  0.00     0.051 A
HETATM   30  N6  UNL     1      16.332  66.563  39.677  1.00  0.00    -0.193 N
ATOM     31  H6  UNL     1      17.033  67.273  39.891  1.00  0.00     0.184 HD
BRANCH  29  32
HETATM   32  C2  UNL     1      16.589  67.161  37.284  1.00  0.00     0.224 C
BRANCH  32  33
HETATM   33  O1  UNL     1      17.423  66.392  36.509  1.00  0.00    -0.390 OA
HETATM   34  C1  UNL     1      18.729  66.451  36.963  1.00  0.00     0.201 C
ENDBRANCH  32  33
ENDBRANCH  29  32
ENDBRANCH   1  24
TORSDOF 5
ENDMDL