MODEL 4
REMARK VINA RESULT: -9.543025693      1.731      2.620
REMARK  5 active torsions:
REMARK  status: ('A' for Active; 'I' for Inactive)
REMARK    1  A    between atoms: C4_5  and  C5_6
REMARK    2  A    between atoms: C5_6  and  C6_7
REMARK    3  A    between atoms: C9_10  and  O1_11
REMARK    4  A    between atoms: O1_11  and  C10_12
REMARK    5  A    between atoms: C13_15  and  N2_16
ROOT
HETATM    1  C6  UNL     1      21.262  72.257  47.699  1.00  0.00     0.024 A
HETATM    2  C7  UNL     1      20.727  72.403  46.451  1.00  0.00     0.029 A
HETATM    3  C8  UNL     1      19.968  71.368  45.853  1.00  0.00     0.040 A
HETATM    4  C9  UNL     1      19.785  70.214  46.556  1.00  0.00     0.084 A
HETATM    5  C20 UNL     1      20.360  70.121  47.823  1.00  0.00     0.124 A
HETATM    6  N4  UNL     1      21.073  71.099  48.381  1.00  0.00    -0.365 N
ATOM      7  H4  UNL     1      21.472  70.978  49.313  1.00  0.00     0.165 HD
ENDROOT
BRANCH   4   8
HETATM    8  O1  UNL     1      19.047  69.183  46.019  1.00  0.00    -0.344 OA
BRANCH   8   9
HETATM    9  C10 UNL     1      19.516  67.899  45.757  1.00  0.00     0.130 C
HETATM   10  C11 UNL     1      19.598  67.793  44.189  1.00  0.00     0.034 C
HETATM   11  C12 UNL     1      18.069  67.782  43.924  1.00  0.00     0.023 C
HETATM   12  C13 UNL     1      17.717  66.632  44.789  1.00  0.00     0.073 C
HETATM   13  C19 UNL     1      18.462  66.876  46.090  1.00  0.00     0.053 C
BRANCH  12  14
HETATM   14  N2  UNL     1      16.373  66.307  44.996  1.00  0.00    -0.245 NA
HETATM   15  C14 UNL     1      15.762  65.835  43.876  1.00  0.00    -0.095 C
HETATM   16  C15 UNL     1      15.064  65.393  42.755  1.00  0.00     0.118 C
HETATM   17  C16 UNL     1      13.759  66.284  42.699  1.00  0.00     0.131 C
HETATM   18  N3  UNL     1      13.537  66.857  44.034  1.00  0.00    -0.400 N
HETATM   19  C17 UNL     1      14.379  67.785  44.594  1.00  0.00     0.071 C
ATOM     20  H3  UNL     1      12.722  66.552  44.566  1.00  0.00     0.158 HD
HETATM   21  C18 UNL     1      15.526  67.414  45.521  1.00  0.00     0.148 C
ENDBRANCH  12  14
ENDBRANCH   8   9
ENDBRANCH   4   8
BRANCH   1  22
HETATM   22  C5  UNL     1      21.994  73.365  48.415  1.00  0.00     0.046 C
HETATM   23  C21 UNL     1      21.885  74.731  47.788  1.00  0.00     0.022 C
HETATM   24  C22 UNL     1      23.354  74.687  47.389  1.00  0.00     0.003 C
HETATM   25  C23 UNL     1      23.460  73.421  48.221  1.00  0.00     0.022 C
BRANCH  22  26
HETATM   26  C4  UNL     1      21.495  73.421  49.825  1.00  0.00     0.042 A
HETATM   27  C3  UNL     1      20.247  73.929  50.128  1.00  0.00     0.046 A
HETATM   28  C2  UNL     1      20.136  73.850  51.487  1.00  0.00     0.111 A
HETATM   29  N1  UNL     1      21.286  73.313  51.963  1.00  0.00    -0.308 N
HETATM   30  C1  UNL     1      21.596  73.064  53.341  1.00  0.00     0.177 C
HETATM   31  N5  UNL     1      22.105  73.054  50.939  1.00  0.00    -0.302 N
ATOM     32  H5  UNL     1      23.037  72.646  51.006  1.00  0.00     0.186 HD
ENDBRANCH  22  26
ENDBRANCH   1  22
TORSDOF 5
ENDMDL