MODEL 1
REMARK VINA RESULT: -8.943903745      0.000      0.000
REMARK  7 active torsions:
REMARK  status: ('A' for Active; 'I' for Inactive)
REMARK    1  A    between atoms: N1_2  and  C2_3
REMARK    2  A    between atoms: N1_2  and  C7_12
REMARK    3  A    between atoms: C2_3  and  C3_4
REMARK    4  A    between atoms: C6_7  and  N2_8
REMARK    5  A    between atoms: C7_12  and  C8_18
REMARK    6  A    between atoms: N3_13  and  N4_15
REMARK    7  A    between atoms: N5_23  and  C13_24
ROOT
HETATM    1  C7  UNL     1      16.363  67.158  45.259  1.00  0.00     0.127 C
HETATM    2  N3  UNL     1      15.163  67.535  44.983  1.00  0.00    -0.294 N
ATOM      3  H3  UNL     1      14.823  68.372  45.457  1.00  0.00     0.187 HD
ENDROOT
BRANCH   1   4
HETATM    4  N1  UNL     1      17.021  67.999  46.203  1.00  0.00    -0.367 N
HETATM    5  C1  UNL     1      16.308  69.042  46.908  1.00  0.00     0.151 C
BRANCH   4   6
HETATM    6  C2  UNL     1      18.430  67.857  46.495  1.00  0.00     0.169 C
BRANCH   6   7
HETATM    7  C3  UNL     1      19.227  69.084  46.268  1.00  0.00     0.003 A
HETATM    8  C4  UNL     1      19.656  69.746  45.166  1.00  0.00     0.019 A
HETATM    9  C5  UNL     1      20.384  70.864  45.340  1.00  0.00     0.045 A
HETATM   10  C6  UNL     1      20.640  71.253  46.626  1.00  0.00     0.144 A
HETATM   11  S1  UNL     1      19.844  70.030  47.546  1.00  0.00    -0.069 SA
BRANCH  10  12
HETATM   12  N2  UNL     1      21.380  72.392  47.093  1.00  0.00    -0.108 N
HETATM   13  O1  UNL     1      22.581  72.453  46.804  1.00  0.00    -0.531 OA
HETATM   14  O2  UNL     1      20.801  73.381  47.829  1.00  0.00    -0.531 OA
ENDBRANCH  10  12
ENDBRANCH   6   7
ENDBRANCH   4   6
ENDBRANCH   1   4
BRANCH   1  15
HETATM   15  C8  UNL     1      16.931  65.968  44.647  1.00  0.00     0.291 C
HETATM   16  C9  UNL     1      17.499  65.064  45.763  1.00  0.00     0.044 C
HETATM   17  C10 UNL     1      17.255  63.609  45.313  1.00  0.00     0.004 C
HETATM   18  C11 UNL     1      17.698  63.533  43.862  1.00  0.00     0.030 C
HETATM   19  C12 UNL     1      18.532  64.724  43.487  1.00  0.00     0.274 C
HETATM   20  N5  UNL     1      17.888  66.019  43.652  1.00  0.00     0.105 N
BRANCH  20  21
HETATM   21  C13 UNL     1      17.647  66.579  42.369  1.00  0.00     0.224 C
HETATM   22  C14 UNL     1      16.677  65.694  41.600  1.00  0.00     0.036 C
HETATM   23  C15 UNL     1      15.602  66.519  40.918  1.00  0.00     0.002 C
HETATM   24  C16 UNL     1      16.045  66.972  39.525  1.00  0.00     0.000 C
HETATM   25  C17 UNL     1      17.239  67.850  39.723  1.00  0.00     0.000 C
HETATM   26  C18 UNL     1      18.442  66.993  40.009  1.00  0.00     0.002 C
HETATM   27  C19 UNL     1      18.754  66.921  41.487  1.00  0.00     0.036 C
ENDBRANCH  20  21
ENDBRANCH   1  15
BRANCH   2  28
HETATM   28  N4  UNL     1      14.292  66.919  44.112  1.00  0.00    -0.344 N
ATOM     29  H42 UNL     1      14.212  65.907  44.208  1.00  0.00     0.176 HD
ATOM     30  H41 UNL     1      13.730  67.375  43.393  1.00  0.00     0.176 HD
ENDBRANCH   2  28
TORSDOF 7
ENDMDL