MODEL 1
REMARK VINA RESULT: -8.673598736      0.000      0.000
REMARK  6 active torsions:
REMARK  status: ('A' for Active; 'I' for Inactive)
REMARK    1  A    between atoms: N1_1  and  C1_5
REMARK    2  A    between atoms: C1_5  and  C2_6
REMARK    3  A    between atoms: C1_5  and  C7_12
REMARK    4  A    between atoms: C2_6  and  C3_7
REMARK       I    between atoms: C7_12  and  N2_14
REMARK    5  A    between atoms: N3_23  and  C16_24
REMARK    6  A    between atoms: C19_29  and  C20_30
ROOT
HETATM    1  C7  UNL     1      16.404  68.967  46.870  1.00  0.00     0.269 C
HETATM    2  O2  UNL     1      16.425  70.219  46.840  1.00  0.00    -0.269 OA
HETATM    3  N2  UNL     1      17.526  68.237  46.421  1.00  0.00    -0.256 N
HETATM    4  C8  UNL     1      17.451  66.772  46.370  1.00  0.00     0.153 C
HETATM    5  C9  UNL     1      17.378  66.291  44.950  1.00  0.00     0.031 C
HETATM    6  C10 UNL     1      18.372  66.818  44.003  1.00  0.00    -0.037 C
HETATM    7  C11 UNL     1      18.661  65.792  42.896  1.00  0.00     0.010 C
HETATM    8  C12 UNL     1      17.452  66.371  42.163  1.00  0.00     0.002 C
HETATM    9  C13 UNL     1      17.724  67.663  42.925  1.00  0.00     0.010 C
HETATM   10  C14 UNL     1      19.645  67.348  44.549  1.00  0.00     0.031 C
HETATM   11  C15 UNL     1      19.559  68.814  44.933  1.00  0.00     0.152 C
HETATM   12  N3  UNL     1      18.635  68.986  46.062  1.00  0.00    -0.271 N
ENDROOT
BRANCH   1  13
HETATM   13  C1  UNL     1      15.168  68.347  47.387  1.00  0.00     0.282 C
BRANCH  13  14
HETATM   14  N1  UNL     1      14.295  68.072  46.230  1.00  0.00    -0.066 N
ATOM     15  H13 UNL     1      13.317  67.917  46.475  1.00  0.00     0.275 HD
ATOM     16  H12 UNL     1      14.134  68.880  45.628  1.00  0.00     0.275 HD
ATOM     17  H11 UNL     1      14.737  67.283  45.759  1.00  0.00     0.275 HD
ENDBRANCH  13  14
BRANCH  13  18
HETATM   18  C2  UNL     1      14.364  69.293  48.252  1.00  0.00     0.107 C
BRANCH  18  19
HETATM   19  C3  UNL     1      13.286  68.531  48.935  1.00  0.00     0.055 A
HETATM   20  C4  UNL     1      13.082  68.449  50.297  1.00  0.00     0.034 A
HETATM   21  C5  UNL     1      11.976  67.642  50.520  1.00  0.00     0.027 A
HETATM   22  C6  UNL     1      11.561  67.271  49.244  1.00  0.00     0.142 A
HETATM   23  O1  UNL     1      12.361  67.818  48.361  1.00  0.00    -0.327 OA
ENDBRANCH  18  19
ENDBRANCH  13  18
ENDBRANCH   1  13
BRANCH  12  24
HETATM   24  C16 UNL     1      18.987  70.074  46.879  1.00  0.00     0.138 A
HETATM   25  C17 UNL     1      19.575  69.862  48.102  1.00  0.00     0.138 A
HETATM   26  N4  UNL     1      19.933  70.853  48.925  1.00  0.00    -0.370 N
HETATM   27  C18 UNL     1      19.709  72.122  48.542  1.00  0.00     0.113 A
ATOM     28  H4  UNL     1      20.366  70.650  49.825  1.00  0.00     0.164 HD
HETATM   29  C19 UNL     1      19.122  72.392  47.322  1.00  0.00     0.030 A
HETATM   30  N5  UNL     1      18.780  71.373  46.532  1.00  0.00    -0.342 N
ATOM     31  H5  UNL     1      18.346  71.576  45.632  1.00  0.00     0.167 HD
BRANCH  29  32
HETATM   32  C20 UNL     1      18.903  73.819  46.960  1.00  0.00     0.037 A
HETATM   33  C21 UNL     1      18.024  74.118  45.803  1.00  0.00     0.011 A
HETATM   34  C22 UNL     1      19.485  74.347  45.695  1.00  0.00     0.011 A
ENDBRANCH  29  32
ENDBRANCH  12  24
TORSDOF 6
ENDMDL