MODEL 5
REMARK VINA RESULT: -9.409212292      5.184      8.065
REMARK  5 active torsions:
REMARK  status: ('A' for Active; 'I' for Inactive)
REMARK    1  A    between atoms: N2_6  and  C5_7
REMARK    2  A    between atoms: C5_7  and  C6_8
REMARK    3  A    between atoms: C6_8  and  N3_9
REMARK       I    between atoms: N3_9  and  C7_11
REMARK    4  A    between atoms: C7_11  and  C8_13
REMARK    5  A    between atoms: C11_18  and  N5_19
ROOT
HETATM    1  N1  UNL     1      12.418  64.892  52.817  1.00  0.00    -0.197 NA
HETATM    2  C1  UNL     1      11.460  65.460  52.488  1.00  0.00     0.065 C
HETATM    3  C2  UNL     1      10.248  66.159  52.053  1.00  0.00     0.122 C
HETATM    4  C3  UNL     1       9.425  65.326  51.124  1.00  0.00     0.051 C
HETATM    5  C4  UNL     1       9.474  66.002  49.764  1.00  0.00     0.273 C
HETATM    6  N2  UNL     1      10.482  66.986  49.850  1.00  0.00     0.091 N
HETATM    7  C22 UNL     1      10.648  67.363  51.229  1.00  0.00     0.291 C
ENDROOT
BRANCH   6   8
HETATM    8  C5  UNL     1      10.470  68.051  48.923  1.00  0.00     0.292 C
BRANCH   8   9
HETATM    9  C6  UNL     1      11.481  69.113  49.135  1.00  0.00     0.153 C
BRANCH   9  10
HETATM   10  N3  UNL     1      12.800  68.830  48.632  1.00  0.00    -0.354 N
HETATM   11  C7  UNL     1      13.478  69.653  47.705  1.00  0.00     0.268 C
HETATM   12  O1  UNL     1      12.942  70.683  47.271  1.00  0.00    -0.266 OA
ATOM     13  H3  UNL     1      13.272  67.989  48.964  1.00  0.00     0.162 HD
BRANCH  11  14
HETATM   14  C8  UNL     1      14.828  69.283  47.251  1.00  0.00     0.118 A
HETATM   15  C9  UNL     1      14.998  68.085  46.594  1.00  0.00     0.053 A
HETATM   16  C10 UNL     1      16.265  67.747  46.168  1.00  0.00     0.108 A
HETATM   17  N4  UNL     1      17.285  68.596  46.410  1.00  0.00    -0.202 N
HETATM   18  C11 UNL     1      17.128  69.768  47.050  1.00  0.00     0.680 A
ATOM     19  H4  UNL     1      18.218  68.338  46.091  1.00  0.00     0.183 HD
HETATM   20  N6  UNL     1      15.886  70.087  47.460  1.00  0.00    -0.186 N
ATOM     21  H6  UNL     1      15.741  70.970  47.948  1.00  0.00     0.184 HD
BRANCH  18  22
HETATM   22  N5  UNL     1      18.225  70.650  47.290  1.00  0.00    -0.218 N
HETATM   23  C12 UNL     1      19.403  70.215  48.010  1.00  0.00     0.142 C
HETATM   24  C13 UNL     1      20.576  70.944  47.340  1.00  0.00     0.030 C
HETATM   25  C14 UNL     1      20.521  72.391  47.702  1.00  0.00    -0.037 C
HETATM   26  C15 UNL     1      21.178  72.696  49.024  1.00  0.00     0.010 C
HETATM   27  C19 UNL     1      21.203  73.200  46.621  1.00  0.00     0.010 C
HETATM   28  C20 UNL     1      19.060  72.799  47.818  1.00  0.00     0.030 C
HETATM   29  C16 UNL     1      22.684  72.746  48.851  1.00  0.00     0.001 C
HETATM   30  C17 UNL     1      22.990  74.064  48.146  1.00  0.00     0.000 C
HETATM   31  C18 UNL     1      21.887  74.428  47.176  1.00  0.00     0.001 C
HETATM   32  C21 UNL     1      18.208  72.022  46.824  1.00  0.00     0.142 C
ENDBRANCH  18  22
ENDBRANCH  11  14
ENDBRANCH   9  10
ENDBRANCH   8   9
ENDBRANCH   6   8
TORSDOF 5
ENDMDL