MODEL 5
REMARK VINA RESULT: -9.018557760      6.765      9.663
REMARK  6 active torsions:
REMARK  status: ('A' for Active; 'I' for Inactive)
REMARK    1  A    between atoms: C4_9  and  N4_10
REMARK    2  A    between atoms: C9_17  and  N6_18
REMARK    3  A    between atoms: N6_18  and  C10_20
REMARK    4  A    between atoms: C13_23  and  C14_24
REMARK    5  A    between atoms: C14_24  and  C15_25
REMARK    6  A    between atoms: C15_25  and  N7_26
ROOT
HETATM    1  C1  UNL     1      16.701  71.327  46.951  1.00  0.00     0.157 C
HETATM    2  N1  UNL     1      17.439  72.560  47.007  1.00  0.00    -0.341 N
HETATM    3  C2  UNL     1      17.041  73.802  46.683  1.00  0.00     0.184 A
HETATM    4  N2  UNL     1      18.037  74.679  46.879  1.00  0.00    -0.336 N
ATOM      5  H2  UNL     1      17.988  75.684  46.708  1.00  0.00     0.168 HD
HETATM    6  C3  UNL     1      19.127  74.003  47.344  1.00  0.00     0.152 A
HETATM    7  N3  UNL     1      20.364  74.403  47.692  1.00  0.00    -0.174 N
ATOM      8  H3  UNL     1      20.620  75.388  47.624  1.00  0.00     0.186 HD
HETATM    9  C4  UNL     1      21.262  73.507  48.128  1.00  0.00     0.683 A
HETATM   10  N5  UNL     1      20.886  72.217  48.203  1.00  0.00    -0.174 N
ATOM     11  H5  UNL     1      21.569  71.537  48.535  1.00  0.00     0.186 HD
HETATM   12  C9  UNL     1      19.666  71.774  47.866  1.00  0.00     0.152 A
HETATM   13  C22 UNL     1      18.713  72.689  47.409  1.00  0.00     0.125 A
ENDROOT
BRANCH  12  14
HETATM   14  N6  UNL     1      19.301  70.556  47.942  1.00  0.00    -0.340 N
ATOM     15  H6  UNL     1      18.927  70.200  48.822  1.00  0.00     0.167 HD
BRANCH  14  16
HETATM   16  C10 UNL     1      19.404  69.684  46.827  1.00  0.00     0.033 A
HETATM   17  C11 UNL     1      18.889  68.383  46.898  1.00  0.00     0.030 A
HETATM   18  C12 UNL     1      18.980  67.539  45.822  1.00  0.00     0.010 A
HETATM   19  C13 UNL     1      19.570  67.944  44.669  1.00  0.00    -0.053 A
HETATM   20  C20 UNL     1      20.080  69.201  44.571  1.00  0.00     0.010 A
HETATM   21  C21 UNL     1      20.001  70.077  45.647  1.00  0.00     0.030 A
BRANCH  19  22
HETATM   22  C14 UNL     1      19.664  67.056  43.455  1.00  0.00     0.082 C
BRANCH  22  23
HETATM   23  C15 UNL     1      18.234  66.863  43.002  1.00  0.00     0.062 C
BRANCH  23  24
HETATM   24  N7  UNL     1      17.615  65.661  43.270  1.00  0.00    -0.393 N
HETATM   25  C16 UNL     1      18.359  64.499  43.589  1.00  0.00     0.122 C
HETATM   26  C17 UNL     1      17.387  63.448  44.009  1.00  0.00     0.021 C
HETATM   27  C18 UNL     1      16.037  64.100  43.944  1.00  0.00     0.021 C
HETATM   28  C19 UNL     1      16.374  65.598  43.947  1.00  0.00     0.122 C
ENDBRANCH  23  24
ENDBRANCH  22  23
ENDBRANCH  19  22
ENDBRANCH  14  16
ENDBRANCH  12  14
BRANCH   9  29
HETATM   29  N4  UNL     1      22.591  73.920  48.507  1.00  0.00    -0.217 N
HETATM   30  C5  UNL     1      23.730  73.943  47.583  1.00  0.00     0.141 C
HETATM   31  C6  UNL     1      24.675  74.987  48.143  1.00  0.00     0.022 C
HETATM   32  C7  UNL     1      23.987  75.544  49.356  1.00  0.00     0.022 C
HETATM   33  C8  UNL     1      23.079  74.375  49.769  1.00  0.00     0.141 C
ENDBRANCH   9  29
TORSDOF 6
ENDMDL