MODEL 4
REMARK VINA RESULT: -9.947174788      3.818     10.300
REMARK  5 active torsions:
REMARK  status: ('A' for Active; 'I' for Inactive)
REMARK    1  A    between atoms: N1_7  and  C6_8
REMARK    2  A    between atoms: C6_8  and  C7_9
REMARK    3  A    between atoms: C7_9  and  C8_10
REMARK    4  A    between atoms: C11_13  and  N2_14
REMARK    5  A    between atoms: C13_19  and  C14_20
ROOT
HETATM    1  N2  UNL     1      18.668  67.863  46.440  1.00  0.00    -0.192 N
ATOM      2  H2  UNL     1      18.890  67.420  47.332  1.00  0.00     0.184 HD
HETATM    3  C12 UNL     1      18.144  67.071  45.618  1.00  0.00     0.683 A
HETATM    4  N3  UNL     1      17.924  65.766  45.968  1.00  0.00    -0.191 N
ATOM      5  H3  UNL     1      18.221  65.472  46.898  1.00  0.00     0.184 HD
HETATM    6  C13 UNL     1      17.353  64.852  45.187  1.00  0.00     0.063 A
HETATM    7  C18 UNL     1      16.962  65.267  43.932  1.00  0.00     0.048 A
HETATM    8  C19 UNL     1      17.169  66.578  43.536  1.00  0.00     0.108 A
HETATM    9  N6  UNL     1      17.745  67.434  44.378  1.00  0.00    -0.202 N
ATOM     10  H6  UNL     1      17.889  68.397  44.077  1.00  0.00     0.183 HD
ENDROOT
BRANCH   1  11
HETATM   11  C11 UNL     1      19.009  69.190  46.404  1.00  0.00     0.049 A
HETATM   12  C10 UNL     1      18.287  70.041  47.274  1.00  0.00     0.030 A
HETATM   13  C9  UNL     1      18.583  71.359  47.351  1.00  0.00     0.010 A
HETATM   14  C8  UNL     1      19.608  71.947  46.588  1.00  0.00    -0.044 A
HETATM   15  C21 UNL     1      20.283  71.138  45.766  1.00  0.00     0.010 A
HETATM   16  C20 UNL     1      19.992  69.761  45.667  1.00  0.00     0.030 A
BRANCH  14  17
HETATM   17  C7  UNL     1      19.873  73.370  46.846  1.00  0.00     0.019 A
HETATM   18  C22 UNL     1      20.596  74.185  45.820  1.00  0.00     0.021 A
HETATM   19  C23 UNL     1      19.144  74.338  45.915  1.00  0.00     0.021 A
BRANCH  17  20
HETATM   20  C6  UNL     1      20.133  73.784  48.276  1.00  0.00     0.078 C
BRANCH  20  21
HETATM   21  N1  UNL     1      21.137  73.143  48.948  1.00  0.00    -0.364 N
HETATM   22  C2  UNL     1      21.049  73.261  50.413  1.00  0.00     0.108 C
HETATM   23  C1  UNL     1      19.923  74.059  50.929  1.00  0.00     0.035 C
HETATM   24  C3  UNL     1      22.318  73.675  51.066  1.00  0.00     0.193 C
HETATM   25  O1  UNL     1      22.989  74.690  50.387  1.00  0.00    -0.384 OA
HETATM   26  C4  UNL     1      23.368  74.199  49.166  1.00  0.00     0.212 C
HETATM   27  C5  UNL     1      22.495  73.056  48.660  1.00  0.00     0.089 C
ENDBRANCH  20  21
ENDBRANCH  17  20
ENDBRANCH  14  17
ENDBRANCH   1  11
BRANCH   6  28
HETATM   28  C14 UNL     1      17.123  63.480  45.623  1.00  0.00     0.022 A
HETATM   29  C15 UNL     1      17.953  62.918  46.587  1.00  0.00     0.104 A
HETATM   30  N4  UNL     1      17.738  61.669  47.060  1.00  0.00    -0.361 N
HETATM   31  C16 UNL     1      16.717  60.912  46.620  1.00  0.00     0.180 A
ATOM     32  H4  UNL     1      18.368  61.292  47.768  1.00  0.00     0.166 HD
HETATM   33  N5  UNL     1      15.913  61.439  45.694  1.00  0.00    -0.361 N
HETATM   34  C17 UNL     1      16.086  62.699  45.181  1.00  0.00     0.104 A
ATOM     35  H5  UNL     1      15.133  60.877  45.351  1.00  0.00     0.166 HD
ENDBRANCH   6  28
TORSDOF 5
ENDMDL