MODEL 1
REMARK VINA RESULT: -10.316319334      0.000      0.000
REMARK  7 active torsions:
REMARK  status: ('A' for Active; 'I' for Inactive)
REMARK    1  A    between atoms: C5_5  and  N1_6
REMARK       I    between atoms: N1_6  and  C6_7
REMARK    2  A    between atoms: N1_6  and  C15_24
REMARK    3  A    between atoms: C6_7  and  C7_9
REMARK    4  A    between atoms: C7_9  and  N2_10
REMARK    5  A    between atoms: C8_15  and  C9_16
REMARK    6  A    between atoms: C15_24  and  C16_30
REMARK    7  A    between atoms: N6_25  and  N7_27
ROOT
HETATM    1  N1  UNL     1      16.771  66.083  44.515  1.00  0.00    -0.265 N
HETATM    2  C6  UNL     1      15.478  66.444  44.172  1.00  0.00     0.251 C
HETATM    3  O1  UNL     1      15.090  67.635  44.501  1.00  0.00    -0.271 OA
ENDROOT
BRANCH   1   4
HETATM    4  C5  UNL     1      17.585  67.164  45.092  1.00  0.00     0.044 A
HETATM    5  C4  UNL     1      17.611  67.377  46.441  1.00  0.00     0.030 A
HETATM    6  C3  UNL     1      18.396  68.411  46.960  1.00  0.00     0.009 A
HETATM    7  C2  UNL     1      19.141  69.210  46.104  1.00  0.00    -0.062 A
HETATM    8  C1  UNL     1      19.976  70.304  46.610  1.00  0.00     0.048 C
HETATM    9  C23 UNL     1      19.107  68.984  44.745  1.00  0.00     0.009 A
HETATM   10  C22 UNL     1      18.316  67.944  44.240  1.00  0.00     0.030 A
ENDBRANCH   1   4
BRANCH   1  11
HETATM   11  C15 UNL     1      17.392  64.844  44.425  1.00  0.00     0.139 C
HETATM   12  N6  UNL     1      18.357  64.703  43.489  1.00  0.00    -0.291 N
ATOM     13  H6  UNL     1      18.619  65.473  42.874  1.00  0.00     0.188 HD
BRANCH  12  14
HETATM   14  N7  UNL     1      18.971  63.474  43.403  1.00  0.00    -0.344 N
ATOM     15  H72 UNL     1      18.438  62.617  43.545  1.00  0.00     0.176 HD
ATOM     16  H71 UNL     1      19.969  63.468  43.194  1.00  0.00     0.176 HD
ENDBRANCH  12  14
BRANCH  11  17
HETATM   17  C16 UNL     1      17.130  63.709  45.270  1.00  0.00     0.010 A
HETATM   18  C17 UNL     1      17.901  63.599  46.445  1.00  0.00     0.015 A
HETATM   19  C18 UNL     1      17.759  62.527  47.287  1.00  0.00     0.001 A
HETATM   20  C19 UNL     1      16.867  61.513  47.035  1.00  0.00     0.000 A
HETATM   21  C20 UNL     1      16.099  61.606  45.881  1.00  0.00     0.001 A
HETATM   22  C21 UNL     1      16.250  62.694  45.035  1.00  0.00     0.015 A
ENDBRANCH  11  17
ENDBRANCH   1  11
BRANCH   2  23
HETATM   23  C7  UNL     1      14.459  65.658  43.475  1.00  0.00     0.274 C
BRANCH  23  24
HETATM   24  N2  UNL     1      14.500  66.013  42.042  1.00  0.00    -0.209 N
HETATM   25  N3  UNL     1      13.519  66.416  41.280  1.00  0.00    -0.224 N
HETATM   26  N4  UNL     1      14.050  66.647  40.061  1.00  0.00    -0.268 N
ATOM     27  H3  UNL     1      12.543  66.532  41.553  1.00  0.00     0.210 HD
HETATM   28  C8  UNL     1      15.355  66.387  40.075  1.00  0.00     0.147 A
ATOM     29  H4  UNL     1      13.528  66.974  39.248  1.00  0.00     0.190 HD
HETATM   30  N5  UNL     1      15.618  65.985  41.346  1.00  0.00    -0.265 N
ATOM     31  H5  UNL     1      16.532  65.707  41.703  1.00  0.00     0.190 HD
BRANCH  28  32
HETATM   32  C9  UNL     1      16.365  66.495  39.039  1.00  0.00     0.011 A
HETATM   33  C10 UNL     1      16.161  65.977  37.769  1.00  0.00     0.015 A
HETATM   34  C11 UNL     1      17.083  66.032  36.752  1.00  0.00     0.001 A
HETATM   35  C12 UNL     1      18.285  66.649  37.035  1.00  0.00     0.000 A
HETATM   36  C13 UNL     1      18.546  67.182  38.273  1.00  0.00     0.001 A
HETATM   37  C14 UNL     1      17.578  67.103  39.281  1.00  0.00     0.015 A
ENDBRANCH  28  32
ENDBRANCH  23  24
ENDBRANCH   2  23
TORSDOF 7
ENDMDL