MODEL 2
REMARK VINA RESULT: -9.870202535      2.196      5.840
REMARK  5 active torsions:
REMARK  status: ('A' for Active; 'I' for Inactive)
REMARK    1  A    between atoms: C5_5  and  C6_6
REMARK    2  A    between atoms: C6_6  and  C7_7
REMARK    3  A    between atoms: C6_6  and  N4_19
REMARK    4  A    between atoms: C7_7  and  N1_8
REMARK    5  A    between atoms: N5_22  and  C16_23
ROOT
HETATM    1  C6  UNL     1      17.969  65.797  44.593  1.00  0.00     0.018 C
ENDROOT
BRANCH   1   2
HETATM    2  C5  UNL     1      17.606  64.494  45.270  1.00  0.00    -0.017 A
HETATM    3  C4  UNL     1      16.697  63.600  44.694  1.00  0.00     0.013 A
HETATM    4  C3  UNL     1      16.364  62.416  45.290  1.00  0.00     0.007 A
HETATM    5  C2  UNL     1      16.920  62.058  46.495  1.00  0.00    -0.062 A
HETATM    6  C1  UNL     1      16.515  60.761  47.091  1.00  0.00     0.048 C
HETATM    7  C24 UNL     1      17.814  62.914  47.082  1.00  0.00     0.007 A
HETATM    8  C23 UNL     1      18.149  64.115  46.473  1.00  0.00     0.013 A
ENDBRANCH   1   2
BRANCH   1   9
HETATM    9  C7  UNL     1      18.328  65.555  43.183  1.00  0.00     0.201 C
BRANCH   9  10
HETATM   10  N1  UNL     1      17.340  65.873  42.181  1.00  0.00    -0.287 N
HETATM   11  N2  UNL     1      16.012  65.588  42.297  1.00  0.00    -0.308 N
HETATM   12  C8  UNL     1      15.337  66.024  41.253  1.00  0.00     0.122 A
ATOM     13  H2  UNL     1      15.594  65.100  43.090  1.00  0.00     0.186 HD
HETATM   14  C9  UNL     1      16.221  66.629  40.388  1.00  0.00     0.024 A
HETATM   15  C10 UNL     1      16.109  67.241  39.165  1.00  0.00     0.102 A
HETATM   16  C13 UNL     1      17.470  66.512  41.008  1.00  0.00     0.065 A
HETATM   17  N3  UNL     1      17.178  67.739  38.526  1.00  0.00    -0.374 N
HETATM   18  C11 UNL     1      18.399  67.635  39.109  1.00  0.00     0.090 A
ATOM     19  H3  UNL     1      17.074  68.190  37.617  1.00  0.00     0.164 HD
HETATM   20  C12 UNL     1      18.543  67.036  40.317  1.00  0.00     0.049 A
ENDBRANCH   9  10
ENDBRANCH   1   9
BRANCH   1  21
HETATM   21  N4  UNL     1      17.125  66.797  45.022  1.00  0.00    -0.278 NA
HETATM   22  C14 UNL     1      17.254  66.967  46.470  1.00  0.00     0.140 C
HETATM   23  C15 UNL     1      18.511  67.716  46.873  1.00  0.00     0.073 C
HETATM   24  N5  UNL     1      18.644  68.915  46.147  1.00  0.00    -0.385 N
HETATM   25  C21 UNL     1      18.568  68.689  44.710  1.00  0.00     0.137 C
HETATM   26  C22 UNL     1      17.187  68.116  44.476  1.00  0.00     0.115 C
BRANCH  24  27
HETATM   27  C16 UNL     1      19.622  69.854  46.523  1.00  0.00     0.109 C
HETATM   28  C17 UNL     1      19.495  71.110  45.739  1.00  0.00     0.028 C
HETATM   29  C18 UNL     1      20.471  72.181  46.179  1.00  0.00     0.029 C
HETATM   30  C19 UNL     1      20.671  72.182  47.674  1.00  0.00     0.232 C
HETATM   31  N6  UNL     1      19.546  71.524  48.302  1.00  0.00    -0.073 N
HETATM   32  C20 UNL     1      19.710  70.089  48.015  1.00  0.00     0.257 C
ATOM     33  H62 UNL     1      19.453  71.734  49.295  1.00  0.00     0.277 HD
ATOM     34  H61 UNL     1      18.642  71.897  48.013  1.00  0.00     0.277 HD
ENDBRANCH  24  27
ENDBRANCH   1  21
TORSDOF 5
ENDMDL