MODEL 1
REMARK VINA RESULT: -7.045062797      0.000      0.000
REMARK  5 active torsions:
REMARK  status: ('A' for Active; 'I' for Inactive)
REMARK    1  A    between atoms: N1_2  and  C3_4
REMARK    2  A    between atoms: C3_4  and  C4_5
REMARK    3  A    between atoms: C4_5  and  C5_6
REMARK    4  A    between atoms: C5_6  and  N2_7
REMARK    5  A    between atoms: C20_25  and  N4_26
ROOT
HETATM    1  N2  UNL     1      16.670  65.574  43.085  1.00  0.00    -0.307 N
HETATM    2  C6  UNL     1      17.956  66.117  42.820  1.00  0.00     0.320 C
HETATM    3  O1  UNL     1      18.496  66.342  41.705  1.00  0.00    -0.247 OA
HETATM    4  N3  UNL     1      18.567  66.379  44.085  1.00  0.00    -0.329 N
ATOM      5  H3  UNL     1      19.552  66.587  44.253  1.00  0.00     0.165 HD
HETATM    6  C7  UNL     1      17.507  66.293  45.097  1.00  0.00     0.080 C
HETATM    7  C8  UNL     1      18.064  65.931  46.425  1.00  0.00     0.036 C
HETATM    8  C9  UNL     1      18.527  67.250  47.015  1.00  0.00     0.008 C
HETATM    9  C10 UNL     1      18.188  68.317  46.002  1.00  0.00    -0.000 C
HETATM   10  C11 UNL     1      16.984  67.688  45.304  1.00  0.00     0.023 C
HETATM   11  C12 UNL     1      15.891  67.670  46.345  1.00  0.00     0.016 C
HETATM   12  C13 UNL     1      15.484  69.029  46.795  1.00  0.00    -0.047 C
HETATM   13  C14 UNL     1      14.255  69.422  45.955  1.00  0.00     0.015 C
HETATM   14  C15 UNL     1      14.918  68.860  48.215  1.00  0.00     0.015 C
HETATM   15  C16 UNL     1      16.533  70.071  46.753  1.00  0.00     0.018 C
HETATM   16  C17 UNL     1      17.929  69.652  46.555  1.00  0.00    -0.043 C
HETATM   17  C18 UNL     1      18.730  69.793  47.858  1.00  0.00     0.015 C
HETATM   18  C19 UNL     1      18.589  70.651  45.587  1.00  0.00     0.015 C
HETATM   19  C20 UNL     1      16.526  65.343  44.524  1.00  0.00     0.261 C
ENDROOT
BRANCH  19  20
HETATM   20  N4  UNL     1      17.035  63.984  44.760  1.00  0.00    -0.192 N
HETATM   21  N5  UNL     1      16.624  63.211  45.732  1.00  0.00    -0.275 N
HETATM   22  C21 UNL     1      17.275  62.044  45.679  1.00  0.00     0.217 A
ATOM     23  H5  UNL     1      15.916  63.460  46.423  1.00  0.00     0.189 HD
HETATM   24  N6  UNL     1      18.109  62.112  44.637  1.00  0.00    -0.279 N
HETATM   25  N7  UNL     1      17.937  63.314  44.095  1.00  0.00    -0.223 N
ATOM     26  H6  UNL     1      18.751  61.386  44.320  1.00  0.00     0.189 HD
ATOM     27  H7  UNL     1      18.437  63.662  43.278  1.00  0.00     0.210 HD
ENDBRANCH  19  20
BRANCH   1  28
HETATM   28  C5  UNL     1      15.653  65.285  42.120  1.00  0.00     0.132 C
BRANCH  28  29
HETATM   29  C4  UNL     1      14.820  66.524  41.769  1.00  0.00     0.050 C
BRANCH  29  30
HETATM   30  C3  UNL     1      14.406  66.360  40.329  1.00  0.00     0.273 C
BRANCH  30  31
HETATM   31  N1  UNL     1      15.508  65.986  39.474  1.00  0.00     0.080 N
HETATM   32  C1  UNL     1      15.096  65.091  38.444  1.00  0.00     0.309 C
HETATM   33  C2  UNL     1      16.273  67.110  39.014  1.00  0.00     0.309 C
ENDBRANCH  30  31
ENDBRANCH  29  30
ENDBRANCH  28  29
ENDBRANCH   1  28
TORSDOF 5
ENDMDL