MODEL 3
REMARK VINA RESULT: -6.072300567      2.620      5.543
REMARK  11 active torsions:
REMARK  status: ('A' for Active; 'I' for Inactive)
REMARK    1  A    between atoms: C2_2  and  N1_3
REMARK       I    between atoms: N1_3  and  C3_5
REMARK    2  A    between atoms: C3_5  and  C4_7
REMARK    3  A    between atoms: C16_20  and  O2_21
REMARK    4  A    between atoms: C16_20  and  C21_29
REMARK    5  A    between atoms: O2_21  and  C17_22
REMARK    6  A    between atoms: C17_22  and  C18_23
REMARK    7  A    between atoms: C18_23  and  S1_24
REMARK    8  A    between atoms: S1_24  and  C19_25
REMARK    9  A    between atoms: C19_25  and  C20_26
REMARK   10  A    between atoms: C20_26  and  O3_27
REMARK   11  A    between atoms: C21_29  and  O5_31
ROOT
HETATM    1  C4  UNL     1      -7.861   6.712  29.091  1.00  0.00     0.121 C
HETATM    2  C5  UNL     1      -7.702   5.185  29.208  1.00  0.00     0.017 C
HETATM    3  C6  UNL     1      -6.565   4.787  30.085  1.00  0.00     0.001 C
HETATM    4  C7  UNL     1      -6.783   4.924  31.558  1.00  0.00     0.000 C
HETATM    5  C8  UNL     1      -5.380   4.853  32.189  1.00  0.00     0.000 C
HETATM    6  C9  UNL     1      -4.599   6.058  31.780  1.00  0.00     0.000 C
HETATM    7  C10 UNL     1      -3.304   5.710  31.035  1.00  0.00     0.002 C
HETATM    8  C11 UNL     1      -2.711   6.899  30.373  1.00  0.00     0.035 C
HETATM    9  C12 UNL     1      -3.134   7.133  28.943  1.00  0.00     0.218 C
HETATM   10  C13 UNL     1      -3.143   5.939  28.076  1.00  0.00     0.043 C
HETATM   11  N2  UNL     1      -4.315   7.972  28.936  1.00  0.00     0.092 N
HETATM   12  C14 UNL     1      -3.813   9.326  29.061  1.00  0.00     0.310 C
HETATM   13  C15 UNL     1      -5.116   7.696  27.814  1.00  0.00     0.324 C
HETATM   14  C16 UNL     1      -6.446   8.283  27.637  1.00  0.00     0.210 C
HETATM   15  C23 UNL     1      -7.598   7.232  27.733  1.00  0.00     0.154 C
HETATM   16  C24 UNL     1      -8.834   7.927  27.141  1.00  0.00     0.057 C
HETATM   17  F1  UNL     1      -7.240   6.271  26.808  1.00  0.00    -0.239 F
ENDROOT
BRANCH  14  18
HETATM   18  O2  UNL     1      -6.608   8.646  26.303  1.00  0.00    -0.364 OA
BRANCH  18  19
HETATM   19  C17 UNL     1      -5.586   8.765  25.475  1.00  0.00     0.179 C
BRANCH  19  20
HETATM   20  C18 UNL     1      -5.805  10.044  24.627  1.00  0.00     0.100 C
BRANCH  20  21
HETATM   21  S1  UNL     1      -7.579  10.265  24.331  1.00  0.00    -0.165 SA
BRANCH  21  22
HETATM   22  C19 UNL     1      -8.163   9.078  23.108  1.00  0.00     0.100 C
BRANCH  22  23
HETATM   23  C20 UNL     1      -8.144   9.745  21.747  1.00  0.00     0.174 C
BRANCH  23  24
HETATM   24  O3  UNL     1      -7.092   9.185  21.013  1.00  0.00    -0.400 OA
ATOM     25  H3  UNL     1      -7.459   8.523  20.440  1.00  0.00     0.209 HD
ENDBRANCH  23  24
ENDBRANCH  22  23
ENDBRANCH  21  22
ENDBRANCH  20  21
ENDBRANCH  19  20
ENDBRANCH  18  19
ENDBRANCH  14  18
BRANCH  14  26
HETATM   26  C21 UNL     1      -6.813   9.461  28.451  1.00  0.00     0.298 C
HETATM   27  O4  UNL     1      -6.994   9.404  29.706  1.00  0.00    -0.262 OA
BRANCH  26  28
HETATM   28  O5  UNL     1      -6.999  10.745  27.955  1.00  0.00    -0.324 OA
HETATM   29  C22 UNL     1      -8.184  11.498  28.122  1.00  0.00     0.213 C
ENDBRANCH  26  28
ENDBRANCH  14  26
BRANCH   1  30
HETATM   30  C3  UNL     1      -9.255   6.951  29.549  1.00  0.00     0.225 C
HETATM   31  N1  UNL     1      -9.621   8.235  30.012  1.00  0.00    -0.361 N
ATOM     32  H1  UNL     1      -8.926   8.982  30.025  1.00  0.00     0.162 HD
HETATM   33  O1  UNL     1     -10.120   6.062  29.541  1.00  0.00    -0.273 OA
BRANCH  31  34
HETATM   34  C2  UNL     1     -10.981   8.507  30.473  1.00  0.00     0.118 C
HETATM   35  C1  UNL     1     -11.032   9.288  31.745  1.00  0.00     0.026 C
ENDBRANCH  31  34
ENDBRANCH   1  30
TORSDOF 11
ENDMDL