MODEL 5
REMARK VINA RESULT: -7.242690158      2.181      3.468
REMARK  12 active torsions:
REMARK  status: ('A' for Active; 'I' for Inactive)
REMARK    1  A    between atoms: C2_2  and  C3_3
REMARK    2  A    between atoms: C3_3  and  C4_4
REMARK    3  A    between atoms: C4_4  and  C5_5
REMARK    4  A    between atoms: C5_5  and  O2_7
REMARK    5  A    between atoms: O2_7  and  C6_8
REMARK    6  A    between atoms: C6_8  and  C7_9
REMARK    7  A    between atoms: C7_9  and  C8_10
REMARK    8  A    between atoms: C7_9  and  C13_17
REMARK    9  A    between atoms: C8_10  and  C9_11
REMARK   10  A    between atoms: C13_17  and  C14_19
REMARK   11  A    between atoms: C17_23  and  O6_24
REMARK   12  A    between atoms: C22_30  and  O7_31
ROOT
HETATM    1  C14 UNL     1      -8.044   7.130  29.277  1.00  0.00     0.083 C
HETATM    2  C15 UNL     1      -7.890   8.621  29.425  1.00  0.00     0.135 C
HETATM    3  O5  UNL     1      -6.907   9.235  29.093  1.00  0.00    -0.297 OA
HETATM    4  C16 UNL     1      -9.013   9.395  30.012  1.00  0.00     0.111 C
HETATM    5  C17 UNL     1     -10.275   8.755  29.459  1.00  0.00     0.130 C
HETATM    6  C18 UNL     1     -10.063   7.988  28.209  1.00  0.00     0.034 C
HETATM    7  C19 UNL     1     -11.352   7.765  27.513  1.00  0.00    -0.015 C
HETATM    8  C20 UNL     1     -11.208   7.818  25.984  1.00  0.00     0.018 C
HETATM    9  C21 UNL     1     -12.343   8.911  27.797  1.00  0.00     0.018 C
HETATM   10  C22 UNL     1     -12.107   6.528  27.935  1.00  0.00     0.126 C
HETATM   11  C23 UNL     1     -11.285   5.376  28.315  1.00  0.00     0.033 C
HETATM   12  C24 UNL     1     -10.012   5.643  29.006  1.00  0.00     0.013 C
HETATM   13  C25 UNL     1      -9.176   6.774  28.378  1.00  0.00    -0.025 C
HETATM   14  C26 UNL     1      -8.730   6.185  27.091  1.00  0.00     0.016 C
ENDROOT
BRANCH   1  15
HETATM   15  C13 UNL     1      -6.701   6.588  29.001  1.00  0.00     0.100 C
HETATM   16 CL1  UNL     1      -5.994   7.603  27.731  1.00  0.00    -0.124 Cl
BRANCH  15  17
HETATM   17  C7  UNL     1      -5.757   6.516  30.146  1.00  0.00     0.030 C
BRANCH  17  18
HETATM   18  C6  UNL     1      -6.393   5.835  31.370  1.00  0.00     0.184 C
BRANCH  18  19
HETATM   19  O2  UNL     1      -5.458   5.085  32.101  1.00  0.00    -0.321 OA
BRANCH  19  20
HETATM   20  C5  UNL     1      -5.655   3.897  32.742  1.00  0.00     0.258 C
HETATM   21  O1  UNL     1      -4.812   2.970  32.578  1.00  0.00    -0.265 OA
BRANCH  20  22
HETATM   22  C4  UNL     1      -6.796   3.591  33.635  1.00  0.00     0.111 C
BRANCH  22  23
HETATM   23  C3  UNL     1      -6.529   4.312  34.957  1.00  0.00     0.009 C
BRANCH  23  24
HETATM   24  C2  UNL     1      -7.569   3.859  35.966  1.00  0.00    -0.004 C
HETATM   25  C1  UNL     1      -8.674   3.163  35.171  1.00  0.00     0.005 C
ENDBRANCH  23  24
ENDBRANCH  22  23
ENDBRANCH  20  22
ENDBRANCH  19  20
ENDBRANCH  18  19
ENDBRANCH  17  18
BRANCH  17  26
HETATM   26  C8  UNL     1      -4.600   5.590  29.873  1.00  0.00     0.023 C
BRANCH  26  27
HETATM   27  C9  UNL     1      -3.261   6.152  29.611  1.00  0.00     0.088 C
HETATM   28  C10 UNL     1      -3.066   7.537  30.125  1.00  0.00     0.041 C
HETATM   29  C11 UNL     1      -2.203   7.372  31.386  1.00  0.00     0.179 C
HETATM   30  O3  UNL     1      -1.474   6.179  31.107  1.00  0.00    -0.321 OA
HETATM   31  C12 UNL     1      -2.325   5.330  30.470  1.00  0.00     0.263 C
HETATM   32  O4  UNL     1      -2.312   4.067  30.595  1.00  0.00    -0.265 OA
ENDBRANCH  26  27
ENDBRANCH  17  26
ENDBRANCH  15  17
ENDBRANCH   1  15
BRANCH   5  33
HETATM   33  O6  UNL     1     -10.852   8.061  30.497  1.00  0.00    -0.395 OA
ATOM     34  H6  UNL     1     -10.618   7.148  30.377  1.00  0.00     0.210 HD
ENDBRANCH   5  33
BRANCH  10  35
HETATM   35  O7  UNL     1     -12.914   6.170  26.828  1.00  0.00    -0.395 OA
ATOM     36  H7  UNL     1     -13.812   6.233  27.130  1.00  0.00     0.210 HD
ENDBRANCH  10  35
TORSDOF 12
ENDMDL