MODEL 1
REMARK VINA RESULT: -7.151139013      0.000      0.000
REMARK  11 active torsions:
REMARK  status: ('A' for Active; 'I' for Inactive)
REMARK    1  A    between atoms: C2_2  and  C3_3
REMARK    2  A    between atoms: C3_3  and  C4_4
REMARK    3  A    between atoms: C4_4  and  O1_5
REMARK    4  A    between atoms: O1_5  and  C5_6
REMARK    5  A    between atoms: C8_9  and  S1_10
REMARK    6  A    between atoms: S1_10  and  N1_13
REMARK    7  A    between atoms: N1_13  and  C9_15
REMARK    8  A    between atoms: C13_23  and  N3_24
REMARK       I    between atoms: N3_24  and  C14_26
REMARK    9  A    between atoms: C14_26  and  O6_28
REMARK   10  A    between atoms: C16_30  and  O7_31
REMARK   11  A    between atoms: O7_31  and  C17_32
ROOT
HETATM    1  C5  UNL     1      -5.850   4.968  31.033  1.00  0.00     0.104 A
HETATM    2  C6  UNL     1      -4.555   5.207  31.471  1.00  0.00     0.041 A
HETATM    3  C7  UNL     1      -3.770   6.125  30.807  1.00  0.00     0.030 A
HETATM    4  C8  UNL     1      -4.303   6.781  29.718  1.00  0.00     0.109 A
HETATM    5  C13 UNL     1      -5.599   6.549  29.268  1.00  0.00     0.096 A
HETATM    6  C16 UNL     1      -6.376   5.632  29.938  1.00  0.00     0.130 A
ENDROOT
BRANCH   4   7
HETATM    7  S1  UNL     1      -3.300   7.982  28.870  1.00  0.00     0.267 S
HETATM    8  O2  UNL     1      -3.924   9.338  29.088  1.00  0.00    -0.200 OA
HETATM    9  O3  UNL     1      -3.416   7.623  27.417  1.00  0.00    -0.200 OA
BRANCH   7  10
HETATM   10  N1  UNL     1      -1.690   7.863  29.330  1.00  0.00    -0.257 N
ATOM     11  H1  UNL     1      -1.540   7.661  30.319  1.00  0.00     0.181 HD
BRANCH  10  12
HETATM   12  C9  UNL     1      -0.638   7.982  28.647  1.00  0.00     0.199 A
HETATM   13  O4  UNL     1       0.347   7.094  28.727  1.00  0.00    -0.217 OA
HETATM   14  N2  UNL     1       1.317   7.404  27.954  1.00  0.00    -0.262 N
HETATM   15  C10 UNL     1       1.065   8.537  27.282  1.00  0.00     0.050 A
ATOM     16  H2  UNL     1       2.174   6.859  27.861  1.00  0.00     0.194 HD
HETATM   17  C11 UNL     1       1.899   9.263  26.288  1.00  0.00     0.072 C
HETATM   18  C12 UNL     1      -0.212   8.911  27.737  1.00  0.00     0.088 A
HETATM   19 BR1  UNL     1      -1.127  10.460  27.141  1.00  0.00    -0.044 Br
ENDBRANCH  10  12
ENDBRANCH   7  10
ENDBRANCH   4   7
BRANCH   5  20
HETATM   20  N3  UNL     1      -6.112   7.210  28.124  1.00  0.00    -0.299 N
HETATM   21  C14 UNL     1      -6.970   8.316  28.228  1.00  0.00     0.364 C
HETATM   22  O5  UNL     1      -7.339   8.798  29.305  1.00  0.00    -0.238 OA
ATOM     23  H3  UNL     1      -5.850   6.872  27.199  1.00  0.00     0.171 HD
BRANCH  21  24
HETATM   24  O6  UNL     1      -7.457   8.933  27.065  1.00  0.00    -0.309 OA
HETATM   25  C15 UNL     1      -7.431   8.258  25.821  1.00  0.00     0.215 C
ENDBRANCH  21  24
ENDBRANCH   5  20
BRANCH   6  26
HETATM   26  O7  UNL     1      -7.640   5.355  29.557  1.00  0.00    -0.346 OA
BRANCH  26  27
HETATM   27  C17 UNL     1      -8.147   4.417  28.680  1.00  0.00     0.171 C
HETATM   28  C18 UNL     1      -8.679   4.905  27.381  1.00  0.00     0.034 C
ENDBRANCH  26  27
ENDBRANCH   6  26
BRANCH   1  29
HETATM   29  O1  UNL     1      -6.646   4.055  31.685  1.00  0.00    -0.348 OA
BRANCH  29  30
HETATM   30  C4  UNL     1      -6.217   2.822  32.180  1.00  0.00     0.176 C
BRANCH  30  31
HETATM   31  C3  UNL     1      -7.276   2.333  33.158  1.00  0.00     0.026 C
BRANCH  31  32
HETATM   32  C2  UNL     1      -7.579   3.383  34.200  1.00  0.00    -0.002 C
HETATM   33  C1  UNL     1      -8.662   2.959  35.139  1.00  0.00     0.005 C
ENDBRANCH  31  32
ENDBRANCH  30  31
ENDBRANCH  29  30
ENDBRANCH   1  29
TORSDOF 11
ENDMDL