MODEL 4
REMARK VINA RESULT: -6.342894039      2.477      6.995
REMARK  12 active torsions:
REMARK  status: ('A' for Active; 'I' for Inactive)
REMARK    1  A    between atoms: C2_2  and  C3_3
REMARK    2  A    between atoms: C3_3  and  C4_4
REMARK    3  A    between atoms: C4_4  and  C5_5
REMARK    4  A    between atoms: C5_5  and  C6_6
REMARK    5  A    between atoms: C6_6  and  O2_8
REMARK    6  A    between atoms: O2_8  and  C7_9
REMARK    7  A    between atoms: C7_9  and  C8_10
REMARK    8  A    between atoms: C15_19  and  O5_20
REMARK    9  A    between atoms: C16_22  and  O6_23
REMARK   10  A    between atoms: O6_23  and  C17_24
REMARK   11  A    between atoms: C19_27  and  O8_28
REMARK   12  A    between atoms: O8_28  and  C20_29
ROOT
HETATM    1  C7  UNL     1      -7.324   8.915  27.731  1.00  0.00     0.162 C
HETATM    2  C9  UNL     1      -7.717   9.303  26.309  1.00  0.00     0.051 C
HETATM    3  C10 UNL     1      -9.187   9.760  26.420  1.00  0.00     0.015 C
HETATM    4  C11 UNL     1      -9.672   8.639  27.323  1.00  0.00    -0.012 C
HETATM    5  C12 UNL     1      -9.515   7.381  26.541  1.00  0.00     0.018 C
HETATM    6  C13 UNL     1      -8.665   8.838  28.432  1.00  0.00     0.044 C
HETATM    7  C14 UNL     1      -8.805   7.717  29.379  1.00  0.00     0.044 C
HETATM    8  C15 UNL     1     -10.195   7.488  29.818  1.00  0.00     0.158 C
HETATM    9  C16 UNL     1     -11.261   8.361  29.278  1.00  0.00     0.144 C
HETATM   10  C19 UNL     1     -11.508   9.593  30.083  1.00  0.00     0.161 C
HETATM   11  C23 UNL     1     -11.521  10.769  29.105  1.00  0.00     0.037 C
HETATM   12  C24 UNL     1     -11.620  10.159  27.757  1.00  0.00     0.032 C
HETATM   13  C25 UNL     1     -11.054   8.781  27.832  1.00  0.00     0.081 C
HETATM   14 CL1  UNL     1     -12.082   7.783  26.723  1.00  0.00    -0.115 Cl
ENDROOT
BRANCH   1  15
HETATM   15  O2  UNL     1      -6.647   7.713  27.823  1.00  0.00    -0.298 OA
BRANCH  15  16
HETATM   16  C6  UNL     1      -5.321   7.443  27.698  1.00  0.00     0.260 C
HETATM   17  O1  UNL     1      -4.828   7.463  26.556  1.00  0.00    -0.265 OA
BRANCH  16  18
HETATM   18  C5  UNL     1      -4.531   7.139  28.934  1.00  0.00     0.111 C
BRANCH  18  19
HETATM   19  C4  UNL     1      -5.374   6.314  29.870  1.00  0.00     0.010 C
BRANCH  19  20
HETATM   20  C3  UNL     1      -4.468   5.561  30.815  1.00  0.00     0.000 C
BRANCH  20  21
HETATM   21  C2  UNL     1      -3.013   5.835  30.561  1.00  0.00    -0.005 C
HETATM   22  C1  UNL     1      -2.321   4.465  30.519  1.00  0.00     0.005 C
ENDBRANCH  20  21
ENDBRANCH  19  20
ENDBRANCH  18  19
ENDBRANCH  16  18
ENDBRANCH  15  16
ENDBRANCH   1  15
BRANCH   1  23
HETATM   23  C8  UNL     1      -6.549  10.069  28.256  1.00  0.00     0.210 C
HETATM   24  O3  UNL     1      -6.418  10.309  29.480  1.00  0.00    -0.646 OA
HETATM   25  O4  UNL     1      -5.936  10.929  27.366  1.00  0.00    -0.646 OA
ENDBRANCH   1  23
BRANCH   8  26
HETATM   26  O5  UNL     1     -10.484   6.111  29.605  1.00  0.00    -0.392 OA
ATOM     27  H5  UNL     1     -11.158   5.865  30.228  1.00  0.00     0.210 HD
ENDBRANCH   8  26
BRANCH   9  28
HETATM   28  O6  UNL     1     -12.441   7.555  29.215  1.00  0.00    -0.303 OA
BRANCH  28  29
HETATM   29  C17 UNL     1     -13.432   7.497  30.143  1.00  0.00     0.255 C
HETATM   30  C18 UNL     1     -14.769   8.110  29.828  1.00  0.00     0.126 C
HETATM   31  O7  UNL     1     -13.210   6.941  31.221  1.00  0.00    -0.266 OA
ENDBRANCH  28  29
ENDBRANCH   9  28
BRANCH  10  32
HETATM   32  O8  UNL     1     -10.634   9.903  31.081  1.00  0.00    -0.378 OA
BRANCH  32  33
HETATM   33  C20 UNL     1     -11.092  10.265  32.290  1.00  0.00     0.114 C
HETATM   34  C21 UNL     1     -12.593  10.154  32.469  1.00  0.00     0.039 C
HETATM   35  C22 UNL     1     -10.678  11.641  32.719  1.00  0.00     0.039 C
ENDBRANCH  32  33
ENDBRANCH  10  32
TORSDOF 12
ENDMDL