MODEL 3
REMARK VINA RESULT: -7.098397128      3.815      8.293
REMARK  9 active torsions:
REMARK  status: ('A' for Active; 'I' for Inactive)
REMARK    1  A    between atoms: O1_2  and  C2_3
REMARK    2  A    between atoms: C4_5  and  C5_6
REMARK    3  A    between atoms: C5_6  and  C6_7
REMARK    4  A    between atoms: C7_8  and  C8_9
REMARK    5  A    between atoms: C11_15  and  O4_16
REMARK    6  A    between atoms: O4_16  and  C12_17
REMARK    7  A    between atoms: C12_17  and  C13_18
REMARK    8  A    between atoms: C18_26  and  O7_27
REMARK    9  A    between atoms: C20_29  and  O8_30
ROOT
HETATM    1  C6  UNL     1      -8.943   6.911  28.221  1.00  0.00    -0.002 A
HETATM    2  C7  UNL     1      -9.797   5.848  28.184  1.00  0.00     0.148 A
HETATM    3  O3  UNL     1     -10.899   6.139  28.912  1.00  0.00    -0.304 OA
HETATM    4  C9  UNL     1     -10.799   7.336  29.414  1.00  0.00     0.089 A
HETATM    5  C10 UNL     1     -11.671   8.076  30.223  1.00  0.00     0.076 A
HETATM    6  C11 UNL     1     -11.369   9.346  30.649  1.00  0.00     0.089 A
HETATM    7  C14 UNL     1     -10.140   9.889  30.238  1.00  0.00     0.045 A
HETATM    8 BR1  UNL     1      -9.707  11.646  30.814  1.00  0.00    -0.048 Br
HETATM    9  C15 UNL     1      -9.297   9.150  29.445  1.00  0.00     0.036 A
HETATM   10  C16 UNL     1      -9.595   7.873  29.017  1.00  0.00     0.009 A
ENDROOT
BRANCH   1  11
HETATM   11  C5  UNL     1      -7.617   7.137  27.666  1.00  0.00     0.081 C
BRANCH  11  12
HETATM   12  C4  UNL     1      -6.477   6.707  28.489  1.00  0.00    -0.048 A
HETATM   13  C3  UNL     1      -6.607   5.878  29.612  1.00  0.00     0.047 A
HETATM   14  C2  UNL     1      -5.520   5.520  30.394  1.00  0.00     0.104 A
HETATM   15  C20 UNL     1      -4.285   6.004  30.042  1.00  0.00     0.135 A
HETATM   16  C18 UNL     1      -4.085   6.822  28.952  1.00  0.00     0.104 A
HETATM   17  C17 UNL     1      -5.206   7.146  28.209  1.00  0.00     0.047 A
BRANCH  14  18
HETATM   18  O1  UNL     1      -5.640   4.700  31.507  1.00  0.00    -0.353 OA
HETATM   19  C1  UNL     1      -6.120   5.290  32.705  1.00  0.00     0.210 C
ENDBRANCH  14  18
BRANCH  15  20
HETATM   20  O8  UNL     1      -3.188   5.659  30.809  1.00  0.00    -0.351 OA
HETATM   21  C21 UNL     1      -2.395   4.525  30.592  1.00  0.00     0.210 C
ENDBRANCH  15  20
BRANCH  16  22
HETATM   22  O7  UNL     1      -2.823   7.293  28.626  1.00  0.00    -0.353 OA
HETATM   23  C19 UNL     1      -2.491   8.613  29.006  1.00  0.00     0.210 C
ENDBRANCH  16  22
ENDBRANCH  11  12
ENDBRANCH   1  11
BRANCH   2  24
HETATM   24  C8  UNL     1      -9.647   4.579  27.501  1.00  0.00     0.289 C
HETATM   25  N1  UNL     1     -10.758   3.715  27.396  1.00  0.00    -0.055 NA
HETATM   26  O2  UNL     1      -8.580   4.217  27.000  1.00  0.00    -0.269 OA
ENDBRANCH   2  24
BRANCH   6  27
HETATM   27  O4  UNL     1     -12.224  10.058  31.434  1.00  0.00    -0.339 OA
BRANCH  27  28
HETATM   28  C12 UNL     1     -12.568   9.903  32.760  1.00  0.00     0.288 C
BRANCH  28  29
HETATM   29  C13 UNL     1     -12.201  11.000  33.667  1.00  0.00     0.198 C
HETATM   30  O5  UNL     1     -13.005  11.918  33.912  1.00  0.00    -0.646 OA
HETATM   31  O6  UNL     1     -10.954  11.011  34.253  1.00  0.00    -0.646 OA
ENDBRANCH  28  29
ENDBRANCH  27  28
ENDBRANCH   6  27
TORSDOF 9
ENDMDL