MODEL 4
REMARK VINA RESULT: -7.702839980      2.820      6.983
REMARK  12 active torsions:
REMARK  status: ('A' for Active; 'I' for Inactive)
REMARK    1  A    between atoms: C4_4  and  O1_5
REMARK    2  A    between atoms: C5_7  and  O2_8
REMARK    3  A    between atoms: C6_10  and  O3_11
REMARK    4  A    between atoms: O3_11  and  C7_12
REMARK    5  A    between atoms: C8_13  and  C9_14
REMARK    6  A    between atoms: C18_25  and  C19_26
REMARK    7  A    between atoms: C19_26  and  O5_27
REMARK    8  A    between atoms: O5_27  and  C20_28
REMARK    9  A    between atoms: C20_28  and  C21_30
REMARK   10  A    between atoms: C21_30  and  C22_31
REMARK   11  A    between atoms: C22_31  and  C23_32
REMARK   12  A    between atoms: C23_32  and  C24_33
ROOT
HETATM    1  C7  UNL     1      -9.241   6.828  29.750  1.00  0.00     0.164 C
HETATM    2  C8  UNL     1     -10.031   6.720  28.491  1.00  0.00     0.155 C
HETATM    3  O4  UNL     1      -9.124   6.458  27.434  1.00  0.00    -0.374 OA
HETATM    4  C12 UNL     1      -8.048   7.186  27.801  1.00  0.00     0.169 C
HETATM    5  C13 UNL     1      -6.820   7.015  27.006  1.00  0.00     0.203 C
HETATM    6  F1  UNL     1      -7.097   7.284  25.657  1.00  0.00    -0.246 F
HETATM    7  C14 UNL     1      -5.779   7.983  27.522  1.00  0.00     0.018 C
HETATM    8  C15 UNL     1      -6.026   9.277  26.725  1.00  0.00     0.013 C
HETATM    9  C16 UNL     1      -5.847   8.313  28.954  1.00  0.00     0.008 C
HETATM   10  C17 UNL     1      -6.890   7.702  29.807  1.00  0.00     0.017 C
HETATM   11  C18 UNL     1      -7.789   6.698  29.238  1.00  0.00     0.039 C
ENDROOT
BRANCH   1  12
HETATM   12  O3  UNL     1      -9.445   7.975  30.494  1.00  0.00    -0.371 OA
BRANCH  12  13
HETATM   13  C6  UNL     1     -10.437   8.815  30.090  1.00  0.00     0.194 C
HETATM   14  C5  UNL     1      -9.904  10.101  29.471  1.00  0.00     0.179 C
HETATM   15  C4  UNL     1     -10.068  11.299  30.376  1.00  0.00     0.153 C
HETATM   16  C3  UNL     1     -11.560  11.652  30.331  1.00  0.00     0.071 C
HETATM   17  C2  UNL     1     -12.267  10.343  30.349  1.00  0.00    -0.048 C
HETATM   18  C1  UNL     1     -13.446  10.107  29.836  1.00  0.00     0.017 C
HETATM   19  C26 UNL     1     -11.481   9.235  31.052  1.00  0.00     0.133 A
HETATM   20  C27 UNL     1     -11.476   9.275  32.444  1.00  0.00     0.215 A
HETATM   21  O7  UNL     1     -12.330   8.384  31.704  1.00  0.00    -0.367 OA
BRANCH  14  22
HETATM   22  O2  UNL     1     -10.624  10.373  28.310  1.00  0.00    -0.390 OA
ATOM     23  H2  UNL     1     -10.493   9.635  27.727  1.00  0.00     0.210 HD
ENDBRANCH  14  22
BRANCH  15  24
HETATM   24  O1  UNL     1      -9.302  12.367  29.916  1.00  0.00    -0.393 OA
ATOM     25  H1  UNL     1      -9.465  12.520  28.992  1.00  0.00     0.210 HD
ENDBRANCH  15  24
ENDBRANCH  12  13
ENDBRANCH   1  12
BRANCH   2  26
HETATM   26  C9  UNL     1     -11.015   5.592  28.397  1.00  0.00     0.009 C
HETATM   27  C10 UNL     1     -12.320   6.023  27.802  1.00  0.00     0.012 C
HETATM   28  C11 UNL     1     -10.472   4.497  27.453  1.00  0.00     0.012 C
ENDBRANCH   2  26
BRANCH  11  29
HETATM   29  C19 UNL     1      -7.444   5.272  29.344  1.00  0.00     0.193 C
BRANCH  29  30
HETATM   30  O5  UNL     1      -7.712   4.489  30.411  1.00  0.00    -0.321 OA
BRANCH  30  31
HETATM   31  C20 UNL     1      -7.066   4.081  31.512  1.00  0.00     0.258 C
HETATM   32  O6  UNL     1      -7.111   2.903  31.870  1.00  0.00    -0.265 OA
BRANCH  31  33
HETATM   33  C21 UNL     1      -6.289   5.076  32.300  1.00  0.00     0.111 C
BRANCH  33  34
HETATM   34  C22 UNL     1      -5.551   4.427  33.444  1.00  0.00     0.010 C
BRANCH  34  35
HETATM   35  C23 UNL     1      -5.888   5.259  34.688  1.00  0.00     0.000 C
BRANCH  35  36
HETATM   36  C24 UNL     1      -6.288   4.369  35.840  1.00  0.00    -0.005 C
HETATM   37  C25 UNL     1      -7.646   3.795  35.507  1.00  0.00     0.005 C
ENDBRANCH  35  36
ENDBRANCH  34  35
ENDBRANCH  33  34
ENDBRANCH  31  33
ENDBRANCH  30  31
ENDBRANCH  29  30
ENDBRANCH  11  29
TORSDOF 12
ENDMDL