MODEL 4
REMARK VINA RESULT: -7.347904096      4.312      8.558
REMARK  9 active torsions:
REMARK  status: ('A' for Active; 'I' for Inactive)
REMARK    1  A    between atoms: C2_2  and  C3_3
REMARK    2  A    between atoms: C3_3  and  N1_4
REMARK    3  A    between atoms: C9_13  and  C10_14
REMARK       I    between atoms: C10_14  and  N2_16
REMARK    4  A    between atoms: N2_16  and  C11_18
REMARK    5  A    between atoms: C11_18  and  C12_19
REMARK    6  A    between atoms: C12_19  and  C13_20
REMARK    7  A    between atoms: C13_20  and  N3_21
REMARK    8  A    between atoms: N4_30  and  C22_31
REMARK    9  A    between atoms: C22_31  and  C23_32
ROOT
HETATM    1  N1  UNL     1      -2.261   8.682  28.632  1.00  0.00    -0.265 N
HETATM    2  C4  UNL     1      -1.741   7.580  29.195  1.00  0.00     0.264 A
HETATM    3  O1  UNL     1      -0.487   7.387  29.223  1.00  0.00    -0.267 OA
HETATM    4  C5  UNL     1      -2.541   6.619  29.762  1.00  0.00     0.063 A
HETATM    5  C6  UNL     1      -1.982   5.505  30.350  1.00  0.00     0.063 A
HETATM    6  C7  UNL     1      -2.767   4.550  30.943  1.00  0.00     0.136 A
HETATM    7  F1  UNL     1      -2.153   3.477  31.499  1.00  0.00    -0.205 F
HETATM    8  C8  UNL     1      -4.120   4.659  30.983  1.00  0.00     0.068 A
HETATM    9  S1  UNL     1      -5.150   3.401  31.772  1.00  0.00    -0.048 SA
HETATM   10  C9  UNL     1      -4.715   5.800  30.382  1.00  0.00     0.081 A
HETATM   11  C21 UNL     1      -3.963   6.745  29.778  1.00  0.00     0.071 A
HETATM   12  N4  UNL     1      -4.421   7.855  29.192  1.00  0.00    -0.297 N
HETATM   13  C25 UNL     1      -3.578   8.807  28.636  1.00  0.00     0.332 A
HETATM   14  O3  UNL     1      -4.111   9.808  28.136  1.00  0.00    -0.246 OA
ENDROOT
BRANCH  10  15
HETATM   15  C10 UNL     1      -6.131   5.922  30.700  1.00  0.00     0.259 C
HETATM   16  O2  UNL     1      -6.453   6.484  31.763  1.00  0.00    -0.267 OA
HETATM   17  N2  UNL     1      -7.129   5.404  29.848  1.00  0.00    -0.333 N
ATOM     18  H2  UNL     1      -6.750   4.978  29.001  1.00  0.00     0.168 HD
BRANCH  17  19
HETATM   19  C11 UNL     1      -8.524   5.349  29.912  1.00  0.00     0.089 C
BRANCH  19  20
HETATM   20  C12 UNL     1      -9.371   6.416  29.405  1.00  0.00     0.020 C
BRANCH  20  21
HETATM   21  C13 UNL     1      -9.397   7.769  29.982  1.00  0.00     0.301 C
BRANCH  21  22
HETATM   22  N3  UNL     1     -10.598   8.515  29.529  1.00  0.00     0.092 N
HETATM   23  C14 UNL     1     -10.648   9.694  30.367  1.00  0.00     0.277 C
HETATM   24  C15 UNL     1     -11.111   9.448  31.763  1.00  0.00     0.010 C
HETATM   25  C16 UNL     1     -11.343  10.805  32.417  1.00  0.00     0.011 C
HETATM   26  C17 UNL     1     -12.405   8.679  31.840  1.00  0.00     0.012 C
HETATM   27  C18 UNL     1     -12.860   8.471  30.404  1.00  0.00     0.010 C
HETATM   28  C19 UNL     1     -14.141   7.674  30.379  1.00  0.00     0.011 C
HETATM   29  C20 UNL     1     -11.756   7.661  29.742  1.00  0.00     0.277 C
ENDBRANCH  21  22
ENDBRANCH  20  21
ENDBRANCH  19  20
ENDBRANCH  17  19
ENDBRANCH  10  15
BRANCH  12  30
HETATM   30  C22 UNL     1      -5.787   8.000  28.814  1.00  0.00     0.133 C
BRANCH  30  31
HETATM   31  C23 UNL     1      -5.790   7.407  27.338  1.00  0.00     0.016 C
HETATM   32  C24 UNL     1      -7.134   7.578  26.684  1.00  0.00     0.006 C
ENDBRANCH  30  31
ENDBRANCH  12  30
BRANCH   1  33
HETATM   33  C3  UNL     1      -1.382   9.685  28.051  1.00  0.00     0.137 C
BRANCH  33  34
HETATM   34  C2  UNL     1      -1.069   9.442  26.615  1.00  0.00     0.016 C
HETATM   35  C1  UNL     1       0.432   9.430  26.428  1.00  0.00     0.006 C
ENDBRANCH  33  34
ENDBRANCH   1  33
TORSDOF 9
ENDMDL