MODEL 2
REMARK VINA RESULT: -7.566699611      0.561      1.136
REMARK  12 active torsions:
REMARK  status: ('A' for Active; 'I' for Inactive)
REMARK    1  A    between atoms: C2_2  and  C3_3
REMARK    2  A    between atoms: C3_3  and  N1_4
REMARK    3  A    between atoms: C3_3  and  C5_7
REMARK    4  A    between atoms: C5_7  and  O1_8
REMARK    5  A    between atoms: N2_10  and  C6_12
REMARK    6  A    between atoms: C7_15  and  C8_16
REMARK       I    between atoms: N4_19  and  C11_20
REMARK    7  A    between atoms: C11_20  and  O3_22
REMARK    8  A    between atoms: O3_22  and  C12_23
REMARK    9  A    between atoms: C12_23  and  C13_24
REMARK   10  A    between atoms: C18_30  and  C19_31
REMARK   11  A    between atoms: C19_31  and  C20_33
REMARK   12  A    between atoms: C20_33  and  C21_34
ROOT
HETATM    1  C6  UNL     1      -3.858   5.658  30.857  1.00  0.00     0.151 A
HETATM    2  N3  UNL     1      -5.057   6.099  30.381  1.00  0.00    -0.338 N
ATOM      3  H3  UNL     1      -5.098   6.917  29.773  1.00  0.00     0.168 HD
HETATM    4  C7  UNL     1      -6.144   5.472  30.705  1.00  0.00     0.036 A
HETATM    5  C18 UNL     1      -6.011   4.373  31.521  1.00  0.00     0.077 A
HETATM    6  S1  UNL     1      -4.317   4.303  31.783  1.00  0.00    -0.048 SA
ENDROOT
BRANCH   4   7
HETATM    7  C8  UNL     1      -7.551   5.965  30.404  1.00  0.00     0.047 C
HETATM    8  C9  UNL     1      -8.106   5.416  29.123  1.00  0.00     0.032 C
HETATM    9  C10 UNL     1      -9.644   5.480  29.319  1.00  0.00     0.138 C
HETATM   10  N4  UNL     1      -9.911   6.918  29.460  1.00  0.00    -0.264 N
HETATM   11  C11 UNL     1     -11.257   7.333  29.622  1.00  0.00     0.369 C
HETATM   12  C16 UNL     1      -8.867   7.847  29.527  1.00  0.00     0.228 C
HETATM   13  O2  UNL     1     -12.210   6.525  29.857  1.00  0.00    -0.238 OA
HETATM   14  O4  UNL     1      -9.004   9.045  29.112  1.00  0.00    -0.273 OA
HETATM   15  C17 UNL     1      -7.531   7.489  30.085  1.00  0.00     0.114 C
BRANCH  11  16
HETATM   16  O3  UNL     1     -11.580   8.683  29.512  1.00  0.00    -0.303 OA
BRANCH  16  17
HETATM   17  C12 UNL     1     -12.244   9.425  30.494  1.00  0.00     0.184 C
BRANCH  17  18
HETATM   18  C13 UNL     1     -11.393   9.633  31.695  1.00  0.00     0.002 C
HETATM   19  C14 UNL     1     -12.072   9.449  33.000  1.00  0.00     0.011 C
HETATM   20  C15 UNL     1     -10.802  11.045  31.651  1.00  0.00     0.011 C
ENDBRANCH  17  18
ENDBRANCH  16  17
ENDBRANCH  11  16
ENDBRANCH   4   7
BRANCH   5  21
HETATM   21  C19 UNL     1      -6.992   3.475  32.173  1.00  0.00     0.168 C
HETATM   22  O5  UNL     1      -7.129   2.351  31.708  1.00  0.00    -0.292 OA
BRANCH  21  23
HETATM   23  C20 UNL     1      -7.713   4.024  33.337  1.00  0.00     0.088 C
BRANCH  23  24
HETATM   24  C21 UNL     1      -7.125   3.619  34.631  1.00  0.00    -0.015 C
HETATM   25  C22 UNL     1      -8.230   3.441  35.689  1.00  0.00     0.010 C
HETATM   26  C23 UNL     1      -6.145   4.628  35.159  1.00  0.00     0.010 C
ENDBRANCH  23  24
ENDBRANCH  21  23
ENDBRANCH   5  21
BRANCH   1  27
HETATM   27  N2  UNL     1      -2.736   6.200  30.683  1.00  0.00    -0.319 N
HETATM   28  C5  UNL     1      -1.669   6.387  29.938  1.00  0.00     0.140 C
ATOM     29  H2  UNL     1      -2.578   6.762  31.519  1.00  0.00     0.169 HD
BRANCH  28  30
HETATM   30  C3  UNL     1      -1.365   7.561  29.077  1.00  0.00     0.151 C
BRANCH  30  31
HETATM   31  C2  UNL     1      -0.028   7.589  28.508  1.00  0.00     0.028 C
HETATM   32  C1  UNL     1       0.245   8.930  27.760  1.00  0.00     0.007 C
ENDBRANCH  30  31
BRANCH  30  33
HETATM   33  N1  UNL     1      -2.514   7.744  28.262  1.00  0.00    -0.414 N
HETATM   34  C4  UNL     1      -3.314   8.870  28.448  1.00  0.00     0.140 C
ATOM     35  H1  UNL     1      -2.751   7.057  27.547  1.00  0.00     0.153 HD
ENDBRANCH  30  33
ENDBRANCH  28  30
BRANCH  28  36
HETATM   36  O1  UNL     1      -0.712   5.456  29.930  1.00  0.00    -0.348 OA
ATOM     37  H1  UNL     1      -0.784   4.830  30.641  1.00  0.00     0.219 HD
ENDBRANCH  28  36
ENDBRANCH   1  27
TORSDOF 12
ENDMDL