MODEL 1
REMARK VINA RESULT: -6.971428581      0.000      0.000
REMARK  13 active torsions:
REMARK  status: ('A' for Active; 'I' for Inactive)
REMARK    1  A    between atoms: C2_2  and  O1_3
REMARK    2  A    between atoms: O1_3  and  C3_4
REMARK    3  A    between atoms: C3_4  and  C4_6
REMARK    4  A    between atoms: C4_6  and  C5_7
REMARK    5  A    between atoms: C5_7  and  C6_8
REMARK       I    between atoms: C6_8  and  N1_10
REMARK    6  A    between atoms: N1_10  and  C7_12
REMARK    7  A    between atoms: C11_16  and  C12_17
REMARK    8  A    between atoms: C12_17  and  N2_18
REMARK    9  A    between atoms: N2_18  and  N3_19
REMARK   10  A    between atoms: N3_19  and  C13_21
REMARK   11  A    between atoms: C13_21  and  O4_22
REMARK   12  A    between atoms: C13_21  and  C14_24
REMARK   13  A    between atoms: C19_30  and  O5_31
ROOT
HETATM    1  C7  UNL     1      -7.713   4.481  30.305  1.00  0.00     0.077 A
HETATM    2  C8  UNL     1      -8.328   4.332  29.104  1.00  0.00     0.045 A
HETATM    3  C9  UNL     1      -8.064   5.235  28.125  1.00  0.00    -0.040 A
HETATM    4  C10 UNL     1      -8.728   5.128  26.754  1.00  0.00     0.050 C
HETATM    5  C11 UNL     1      -7.192   6.235  28.425  1.00  0.00     0.043 A
HETATM    6  S1  UNL     1      -6.763   5.903  30.040  1.00  0.00    -0.070 SA
ENDROOT
BRANCH   5   7
HETATM    7  C12 UNL     1      -6.722   7.332  27.545  1.00  0.00     0.228 C
BRANCH   7   8
HETATM    8  N2  UNL     1      -6.221   8.376  27.745  1.00  0.00    -0.335 NA
BRANCH   8   9
HETATM    9  N3  UNL     1      -5.583   9.448  28.180  1.00  0.00    -0.213 N
ATOM     10  H3  UNL     1      -5.969  10.351  27.903  1.00  0.00     0.204 HD
BRANCH   9  11
HETATM   11  C13 UNL     1      -4.425   9.481  28.988  1.00  0.00     0.178 C
BRANCH  11  12
HETATM   12  O4  UNL     1      -4.492  10.434  29.876  1.00  0.00    -0.344 OA
ATOM     13  H4  UNL     1      -4.870  10.123  30.689  1.00  0.00     0.219 HD
ENDBRANCH  11  12
BRANCH  11  14
HETATM   14  C14 UNL     1      -3.248   8.676  28.993  1.00  0.00     0.051 A
HETATM   15  C15 UNL     1      -3.302   7.409  29.577  1.00  0.00     0.038 A
HETATM   16  C16 UNL     1      -2.212   6.583  29.618  1.00  0.00     0.012 A
HETATM   17 BR1  UNL     1      -2.400   4.874  30.439  1.00  0.00    -0.051 Br
HETATM   18  C17 UNL     1      -1.001   6.961  29.084  1.00  0.00     0.022 A
HETATM   19  C18 UNL     1      -0.927   8.198  28.509  1.00  0.00     0.039 A
HETATM   20  C19 UNL     1      -2.033   9.050  28.462  1.00  0.00     0.082 A
BRANCH  20  21
HETATM   21  O5  UNL     1      -1.891  10.291  27.862  1.00  0.00    -0.355 OA
HETATM   22  C20 UNL     1      -0.751  10.543  27.078  1.00  0.00     0.210 C
ENDBRANCH  20  21
ENDBRANCH  11  14
ENDBRANCH   9  11
ENDBRANCH   8   9
ENDBRANCH   7   8
ENDBRANCH   5   7
BRANCH   1  23
HETATM   23  N1  UNL     1      -7.782   3.708  31.515  1.00  0.00    -0.321 N
HETATM   24  C6  UNL     1      -6.773   2.884  32.024  1.00  0.00     0.223 C
HETATM   25  O3  UNL     1      -5.668   2.733  31.469  1.00  0.00    -0.273 OA
ATOM     26  H1  UNL     1      -8.647   3.765  32.051  1.00  0.00     0.169 HD
BRANCH  24  27
HETATM   27  C5  UNL     1      -7.003   2.135  33.295  1.00  0.00     0.113 C
BRANCH  27  28
HETATM   28  C4  UNL     1      -8.125   2.738  34.095  1.00  0.00     0.120 C
BRANCH  28  29
HETATM   29  C3  UNL     1      -7.585   3.532  35.227  1.00  0.00     0.259 C
HETATM   30  O2  UNL     1      -8.323   3.949  36.141  1.00  0.00    -0.265 OA
BRANCH  29  31
HETATM   31  O1  UNL     1      -6.205   3.799  35.241  1.00  0.00    -0.322 OA
BRANCH  31  32
HETATM   32  C2  UNL     1      -5.772   5.136  35.216  1.00  0.00     0.174 C
HETATM   33  C1  UNL     1      -5.758   5.719  33.832  1.00  0.00     0.034 C
ENDBRANCH  31  32
ENDBRANCH  29  31
ENDBRANCH  28  29
ENDBRANCH  27  28
ENDBRANCH  24  27
ENDBRANCH   1  23
TORSDOF 13
ENDMDL