MODEL 5
REMARK VINA RESULT: -7.341262923      1.308      1.679
REMARK  11 active torsions:
REMARK  status: ('A' for Active; 'I' for Inactive)
REMARK    1  A    between atoms: C2_2  and  O1_3
REMARK    2  A    between atoms: O1_3  and  C3_4
REMARK       I    between atoms: C3_4  and  N1_6
REMARK    3  A    between atoms: N1_6  and  N2_7
REMARK    4  A    between atoms: N1_6  and  C4_10
REMARK    5  A    between atoms: C4_10  and  C5_11
REMARK    6  A    between atoms: C5_11  and  C6_12
REMARK    7  A    between atoms: C6_12  and  C7_13
REMARK    8  A    between atoms: C7_13  and  C8_14
REMARK    9  A    between atoms: C8_14  and  C9_15
REMARK       I    between atoms: C9_15  and  N3_17
REMARK   10  A    between atoms: N3_17  and  C10_19
REMARK   11  A    between atoms: C13_24  and  N5_25
ROOT
HETATM    1  C10 UNL     1      -5.072   7.430  27.380  1.00  0.00     0.153 A
HETATM    2  N4  UNL     1      -5.951   7.810  26.452  1.00  0.00    -0.338 N
ATOM      3  H4  UNL     1      -5.646   8.012  25.500  1.00  0.00     0.168 HD
HETATM    4  C11 UNL     1      -7.207   7.919  26.784  1.00  0.00     0.042 A
HETATM    5  C12 UNL     1      -8.273   8.347  25.784  1.00  0.00     0.071 C
HETATM    6  C13 UNL     1      -7.550   7.633  28.081  1.00  0.00     0.116 A
HETATM    7  S2  UNL     1      -6.040   7.217  28.765  1.00  0.00    -0.033 SA
ENDROOT
BRANCH   1   8
HETATM    8  N3  UNL     1      -3.776   7.262  27.254  1.00  0.00    -0.307 N
HETATM    9  C9  UNL     1      -2.915   7.663  28.307  1.00  0.00     0.223 C
HETATM   10  O3  UNL     1      -2.880   8.878  28.601  1.00  0.00    -0.273 OA
ATOM     11  H3  UNL     1      -3.392   6.846  26.406  1.00  0.00     0.171 HD
BRANCH   9  12
HETATM   12  C8  UNL     1      -2.120   6.637  28.987  1.00  0.00     0.103 C
BRANCH  12  13
HETATM   13  C7  UNL     1      -2.877   5.495  29.570  1.00  0.00     0.009 C
BRANCH  13  14
HETATM   14  C6  UNL     1      -3.312   5.700  30.977  1.00  0.00     0.002 C
BRANCH  14  15
HETATM   15  C5  UNL     1      -4.277   4.642  31.442  1.00  0.00     0.022 C
BRANCH  15  16
HETATM   16  C4  UNL     1      -5.404   5.254  32.234  1.00  0.00     0.154 C
BRANCH  16  17
HETATM   17  N1  UNL     1      -5.721   4.320  33.292  1.00  0.00    -0.243 N
HETATM   18  C3  UNL     1      -5.770   4.784  34.624  1.00  0.00     0.381 C
HETATM   19  O2  UNL     1      -5.551   5.985  34.920  1.00  0.00    -0.236 OA
BRANCH  18  20
HETATM   20  O1  UNL     1      -6.071   3.878  35.646  1.00  0.00    -0.303 OA
BRANCH  20  21
HETATM   21  C2  UNL     1      -7.332   4.029  36.315  1.00  0.00     0.176 C
HETATM   22  C1  UNL     1      -8.408   3.300  35.552  1.00  0.00     0.034 C
ENDBRANCH  20  21
ENDBRANCH  18  20
BRANCH  17  23
HETATM   23  N2  UNL     1      -5.968   2.990  32.973  1.00  0.00    -0.339 N
ATOM     24  H22 UNL     1      -5.398   2.534  32.260  1.00  0.00     0.177 HD
ATOM     25  H21 UNL     1      -6.705   2.457  33.434  1.00  0.00     0.177 HD
ENDBRANCH  17  23
ENDBRANCH  16  17
ENDBRANCH  15  16
ENDBRANCH  14  15
ENDBRANCH  13  14
ENDBRANCH  12  13
ENDBRANCH   9  12
ENDBRANCH   1   8
BRANCH   6  26
HETATM   26  N5  UNL     1      -8.858   7.677  28.687  1.00  0.00    -0.238 N
HETATM   27  S1  UNL     1     -10.041   6.507  28.546  1.00  0.00    -0.003 SA
HETATM   28  C14 UNL     1     -11.267   7.229  29.508  1.00  0.00     0.038 A
HETATM   29  C15 UNL     1     -12.572   6.862  29.881  1.00  0.00     0.021 A
HETATM   30  C20 UNL     1     -10.668   8.392  29.908  1.00  0.00     0.057 A
HETATM   31  C16 UNL     1     -13.322   7.702  30.698  1.00  0.00     0.002 A
HETATM   32  C17 UNL     1     -12.710   8.854  31.085  1.00  0.00     0.008 A
HETATM   33  C18 UNL     1     -11.436   9.237  30.735  1.00  0.00    -0.045 A
HETATM   34  C19 UNL     1     -10.913  10.535  31.243  1.00  0.00     0.049 C
HETATM   35  C21 UNL     1      -9.402   8.605  29.464  1.00  0.00     0.271 A
HETATM   36  O4  UNL     1      -8.696   9.654  29.750  1.00  0.00    -0.266 OA
ENDBRANCH   6  26
TORSDOF 11
ENDMDL