MODEL 2
REMARK VINA RESULT: -6.381866771      2.187      5.167
REMARK  6 active torsions:
REMARK  status: ('A' for Active; 'I' for Inactive)
REMARK    1  A    between atoms: C2_2  and  O2_4
REMARK    2  A    between atoms: O2_4  and  C3_5
REMARK    3  A    between atoms: C6_8  and  C7_9
REMARK    4  A    between atoms: C7_9  and  O3_10
REMARK    5  A    between atoms: C10_16  and  C11_17
REMARK    6  A    between atoms: C11_17  and  C13_19
ROOT
HETATM    1  C13 UNL     1      15.465   6.144  21.360  1.00  0.00     0.096 C
HETATM    2  C14 UNL     1      16.654   5.167  21.131  1.00  0.00     0.026 C
HETATM    3  C15 UNL     1      14.370   5.221  21.647  1.00  0.00     0.064 C
HETATM    4  N1  UNL     1      13.520   4.451  21.896  1.00  0.00    -0.197 NA
ENDROOT
BRANCH   1   5
HETATM    5  C11 UNL     1      15.333   7.044  20.203  1.00  0.00     0.031 C
HETATM    6  C12 UNL     1      14.057   6.367  19.517  1.00  0.00     0.016 C
BRANCH   5   7
HETATM    7  C10 UNL     1      14.921   8.436  20.344  1.00  0.00    -0.031 C
HETATM    8  C9  UNL     1      15.744   9.330  19.752  1.00  0.00     0.029 C
HETATM    9  C4  UNL     1      15.543  10.811  19.747  1.00  0.00     0.060 C
HETATM   10  C8  UNL     1      16.974   8.889  19.045  1.00  0.00     0.290 C
HETATM   11  C3  UNL     1      14.278  11.272  20.400  1.00  0.00     0.172 C
HETATM   12  C5  UNL     1      15.750  11.399  18.391  1.00  0.00     0.047 C
HETATM   13  C20 UNL     1      14.069  10.353  21.587  1.00  0.00     0.188 C
HETATM   14  C16 UNL     1      13.728   9.024  20.946  1.00  0.00     0.187 C
HETATM   15  O7  UNL     1      12.930  10.639  22.292  1.00  0.00    -0.345 OA
HETATM   16  O6  UNL     1      13.006   8.448  21.888  1.00  0.00    -0.344 OA
HETATM   17  C17 UNL     1      12.168   9.465  22.346  1.00  0.00     0.158 C
HETATM   18  C18 UNL     1      11.623   9.207  23.716  1.00  0.00     0.078 C
HETATM   19  C19 UNL     1      10.974   9.593  21.392  1.00  0.00     0.078 C
HETATM   20  C6  UNL     1      16.338  10.468  17.378  1.00  0.00     0.156 C
HETATM   21  O4  UNL     1      17.339   9.600  17.878  1.00  0.00    -0.310 OA
HETATM   22  O5  UNL     1      17.607   7.932  19.516  1.00  0.00    -0.260 OA
BRANCH  11  23
HETATM   23  O2  UNL     1      14.340  12.612  20.733  1.00  0.00    -0.313 OA
BRANCH  23  24
HETATM   24  C2  UNL     1      13.422  13.587  20.421  1.00  0.00     0.255 C
HETATM   25  C1  UNL     1      13.213  14.071  19.014  1.00  0.00     0.126 C
HETATM   26  O1  UNL     1      12.749  14.071  21.371  1.00  0.00    -0.266 OA
ENDBRANCH  23  24
ENDBRANCH  11  23
BRANCH  20  27
HETATM   27  C7  UNL     1      17.001  11.294  16.283  1.00  0.00     0.196 C
BRANCH  27  28
HETATM   28  O3  UNL     1      17.714  10.433  15.446  1.00  0.00    -0.398 OA
ATOM     29  H3  UNL     1      18.170  10.952  14.794  1.00  0.00     0.209 HD
ENDBRANCH  27  28
ENDBRANCH  20  27
ENDBRANCH   5   7
ENDBRANCH   1   5
TORSDOF 6
ENDMDL