MODEL 3
REMARK VINA RESULT: -8.511133016      0.738      1.283
REMARK  4 active torsions:
REMARK  status: ('A' for Active; 'I' for Inactive)
REMARK    1  A    between atoms: N1_5  and  C4_6
REMARK    2  A    between atoms: N2_14  and  N3_15
REMARK    3  A    between atoms: C11_17  and  C12_18
REMARK    4  A    between atoms: C15_21  and  N4_22
ROOT
HETATM    1  O1  UNL     1      16.508  11.104  17.745  1.00  0.00    -0.263 OA
HETATM    2  C1  UNL     1      15.614  11.191  18.623  1.00  0.00     0.301 A
HETATM    3  C2  UNL     1      14.713  12.226  18.654  1.00  0.00     0.146 A
HETATM    4  C3  UNL     1      13.726  12.302  19.644  1.00  0.00     0.079 A
HETATM    5  N1  UNL     1      13.651  11.344  20.585  1.00  0.00    -0.260 N
HETATM    6  C10 UNL     1      14.545  10.337  20.534  1.00  0.00     0.356 A
HETATM    7  O2  UNL     1      14.432   9.459  21.447  1.00  0.00    -0.244 OA
HETATM    8  N2  UNL     1      15.502  10.250  19.590  1.00  0.00    -0.166 N
HETATM    9  C18 UNL     1      12.783  13.416  19.650  1.00  0.00     0.051 A
HETATM   10  C19 UNL     1      12.843  14.358  18.739  1.00  0.00     0.109 A
HETATM   11  N5  UNL     1      13.837  14.288  17.739  1.00  0.00    -0.311 N
ATOM     12  H5  UNL     1      13.874  15.026  17.035  1.00  0.00     0.186 HD
HETATM   13  N6  UNL     1      14.768  13.258  17.669  1.00  0.00    -0.294 N
ATOM     14  H6  UNL     1      15.473  13.240  16.933  1.00  0.00     0.187 HD
ENDROOT
BRANCH   8  15
HETATM   15  N3  UNL     1      16.379   9.163  19.628  1.00  0.00    -0.297 N
HETATM   16  C11 UNL     1      16.031   7.953  19.704  1.00  0.00     0.119 C
ATOM     17  H3  UNL     1      17.378   9.364  19.592  1.00  0.00     0.186 HD
BRANCH  16  18
HETATM   18  C12 UNL     1      17.033   6.906  19.737  1.00  0.00    -0.019 A
HETATM   19  C13 UNL     1      18.075   6.863  18.825  1.00  0.00     0.015 A
HETATM   20  C14 UNL     1      19.042   5.910  18.805  1.00  0.00     0.037 A
HETATM   21  C15 UNL     1      19.001   4.909  19.745  1.00  0.00     0.102 A
HETATM   22  C16 UNL     1      17.963   4.917  20.685  1.00  0.00     0.037 A
HETATM   23  C17 UNL     1      16.994   5.890  20.689  1.00  0.00     0.015 A
BRANCH  21  24
HETATM   24  N4  UNL     1      19.987   3.911  19.748  1.00  0.00    -0.116 N
HETATM   25  O3  UNL     1      20.300   3.359  18.672  1.00  0.00    -0.532 OA
HETATM   26  O4  UNL     1      20.589   3.555  20.915  1.00  0.00    -0.532 OA
ENDBRANCH  21  24
ENDBRANCH  16  18
ENDBRANCH   8  15
BRANCH   5  27
HETATM   27  C4  UNL     1      12.647  11.422  21.591  1.00  0.00     0.044 A
HETATM   28  C5  UNL     1      12.810  12.122  22.763  1.00  0.00     0.030 A
HETATM   29  C6  UNL     1      11.785  12.161  23.714  1.00  0.00     0.002 A
HETATM   30  C7  UNL     1      10.613  11.494  23.467  1.00  0.00     0.000 A
HETATM   31  C8  UNL     1      10.423  10.787  22.303  1.00  0.00     0.002 A
HETATM   32  C9  UNL     1      11.448  10.768  21.391  1.00  0.00     0.030 A
ENDBRANCH   5  27
TORSDOF 4
ENDMDL