MODEL 1
REMARK VINA RESULT: -6.195601922      0.000      0.000
REMARK  4 active torsions:
REMARK  status: ('A' for Active; 'I' for Inactive)
REMARK    1  A    between atoms: S1_2  and  N1_5
REMARK    2  A    between atoms: N1_5  and  N2_7
REMARK    3  A    between atoms: C4_11  and  C5_12
REMARK    4  A    between atoms: C10_17  and  N3_18
ROOT
HETATM    1  N2  UNL     1      13.292  10.042  22.840  1.00  0.00    -0.192 N
HETATM    2  C2  UNL     1      14.311  10.541  21.979  1.00  0.00     0.283 C
HETATM    3  O3  UNL     1      14.702  11.730  22.276  1.00  0.00    -0.265 OA
HETATM    4  C3  UNL     1      14.920   9.856  20.846  1.00  0.00     0.092 C
HETATM    5  C4  UNL     1      15.836  10.453  20.134  1.00  0.00     0.035 C
HETATM    6  C11 UNL     1      14.481   8.503  20.490  1.00  0.00     0.231 C
HETATM    7  O6  UNL     1      14.541   7.997  19.364  1.00  0.00    -0.279 OA
HETATM    8  S2  UNL     1      13.791   7.527  21.866  1.00  0.00    -0.015 SA
HETATM    9  C12 UNL     1      12.725   8.751  22.687  1.00  0.00     0.172 C
HETATM   10  S3  UNL     1      11.262   8.288  23.148  1.00  0.00    -0.050 SA
ENDROOT
BRANCH   5  11
HETATM   11  C5  UNL     1      16.574   9.981  18.995  1.00  0.00    -0.002 A
HETATM   12  C6  UNL     1      17.366   8.853  19.057  1.00  0.00     0.014 A
HETATM   13  C7  UNL     1      18.061   8.429  17.969  1.00  0.00     0.001 A
HETATM   14  C8  UNL     1      18.010   9.101  16.761  1.00  0.00     0.002 A
HETATM   15  C9  UNL     1      17.235  10.226  16.654  1.00  0.00     0.037 A
HETATM   16  C10 UNL     1      16.520  10.651  17.786  1.00  0.00     0.113 A
BRANCH  16  17
HETATM   17  N3  UNL     1      15.721  11.803  17.581  1.00  0.00    -0.115 N
HETATM   18  O4  UNL     1      16.242  12.948  17.632  1.00  0.00    -0.532 OA
HETATM   19  O5  UNL     1      14.384  11.781  17.319  1.00  0.00    -0.532 OA
ENDBRANCH  16  17
ENDBRANCH   5  11
BRANCH   1  20
HETATM   20  N1  UNL     1      12.842  10.832  23.887  1.00  0.00    -0.216 N
ATOM     21  H1  UNL     1      12.148  11.565  23.737  1.00  0.00     0.200 HD
BRANCH  20  22
HETATM   22  S1  UNL     1      13.484  10.537  25.417  1.00  0.00     0.240 S
HETATM   23  C1  UNL     1      15.208  11.013  25.512  1.00  0.00     0.187 C
HETATM   24  O1  UNL     1      13.391   9.092  25.850  1.00  0.00    -0.205 OA
HETATM   25  O2  UNL     1      12.682  11.312  26.457  1.00  0.00    -0.205 OA
ENDBRANCH  20  22
ENDBRANCH   1  20
TORSDOF 4
ENDMDL