MODEL 3
REMARK VINA RESULT: -7.646091803      2.132      3.494
REMARK  5 active torsions:
REMARK  status: ('A' for Active; 'I' for Inactive)
REMARK    1  A    between atoms: C2_3  and  C3_4
REMARK    2  A    between atoms: C3_4  and  N2_5
REMARK    3  A    between atoms: C7_11  and  S2_12
REMARK    4  A    between atoms: S2_12  and  N3_15
REMARK    5  A    between atoms: N3_15  and  C8_17
ROOT
HETATM    1  N1  UNL     1      19.044  14.082  13.993  1.00  0.00    -0.197 NA
HETATM    2  C1  UNL     1      18.456  13.330  14.650  1.00  0.00     0.060 C
HETATM    3  C2  UNL     1      17.697  12.373  15.488  1.00  0.00     0.144 C
ENDROOT
BRANCH   3   4
HETATM    4  C3  UNL     1      16.997  13.147  16.519  1.00  0.00     0.150 C
BRANCH   4   5
HETATM    5  N2  UNL     1      16.207  12.395  17.463  1.00  0.00    -0.274 N
HETATM    6  C4  UNL     1      16.630  11.191  17.874  1.00  0.00     0.293 A
HETATM    7  O1  UNL     1      17.668  10.640  17.514  1.00  0.00    -0.259 OA
HETATM    8  S1  UNL     1      15.644  10.367  18.980  1.00  0.00    -0.028 SA
HETATM    9  C5  UNL     1      14.223  11.257  19.395  1.00  0.00     0.027 A
HETATM   10  C6  UNL     1      13.283  10.783  20.273  1.00  0.00     0.045 A
HETATM   11  C13 UNL     1      14.155  12.470  18.749  1.00  0.00     0.050 A
HETATM   12  C7  UNL     1      12.165  11.544  20.566  1.00  0.00     0.081 A
HETATM   13  C11 UNL     1      12.052  12.749  19.954  1.00  0.00     0.026 A
HETATM   14  C12 UNL     1      13.005  13.215  19.071  1.00  0.00     0.020 A
HETATM   15  C14 UNL     1      15.061  12.982  17.872  1.00  0.00     0.262 A
HETATM   16  O4  UNL     1      14.771  14.145  17.399  1.00  0.00    -0.267 OA
BRANCH  12  17
HETATM   17  S2  UNL     1      10.988  10.934  21.674  1.00  0.00     0.264 S
HETATM   18  O2  UNL     1      11.272   9.483  21.932  1.00  0.00    -0.200 OA
HETATM   19  O3  UNL     1       9.605  11.022  21.076  1.00  0.00    -0.200 OA
BRANCH  17  20
HETATM   20  N3  UNL     1      10.980  11.846  23.126  1.00  0.00    -0.260 N
ATOM     21  H3  UNL     1      10.332  12.626  23.237  1.00  0.00     0.181 HD
BRANCH  20  22
HETATM   22  C8  UNL     1      11.810  11.535  24.096  1.00  0.00     0.158 A
HETATM   23  N4  UNL     1      13.135  11.438  24.021  1.00  0.00    -0.345 N
HETATM   24  C9  UNL     1      13.801  11.115  25.096  1.00  0.00     0.097 A
ATOM     25  H4  UNL     1      13.621  11.612  23.140  1.00  0.00     0.167 HD
HETATM   26  C10 UNL     1      13.090  10.895  26.245  1.00  0.00     0.070 A
HETATM   27  S3  UNL     1      11.487  11.163  25.727  1.00  0.00    -0.064 SA
ENDBRANCH  20  22
ENDBRANCH  17  20
ENDBRANCH  12  17
ENDBRANCH   4   5
ENDBRANCH   3   4
TORSDOF 5
ENDMDL