MODEL 4
REMARK VINA RESULT: -7.284813046      2.431      3.428
REMARK  6 active torsions:
REMARK  status: ('A' for Active; 'I' for Inactive)
REMARK    1  A    between atoms: C4_4  and  C5_5
REMARK    2  A    between atoms: C5_5  and  O2_7
REMARK    3  A    between atoms: O2_7  and  C6_8
REMARK    4  A    between atoms: C8_11  and  C9_12
REMARK    5  A    between atoms: C9_12  and  C10_13
REMARK    6  A    between atoms: C10_13  and  O4_14
ROOT
HETATM    1  C6  UNL     1      15.634   9.543  19.009  1.00  0.00     0.302 C
HETATM    2  O3  UNL     1      16.559  10.601  18.889  1.00  0.00    -0.344 OA
HETATM    3  C7  UNL     1      15.678  11.152  17.949  1.00  0.00     0.204 C
HETATM    4  C8  UNL     1      15.668  12.638  17.923  1.00  0.00     0.018 C
HETATM    5  N1  UNL     1      14.940  13.247  18.748  1.00  0.00    -0.363 N
ATOM      6  H1  UNL     1      14.953  14.266  18.706  1.00  0.00     0.162 HD
HETATM    7  C11 UNL     1      14.102  12.663  19.730  1.00  0.00     0.127 C
HETATM    8  C12 UNL     1      12.623  12.766  19.336  1.00  0.00     0.070 C
HETATM    9  C13 UNL     1      14.296  13.338  21.093  1.00  0.00     0.070 C
HETATM   10  O5  UNL     1      14.351  11.308  19.940  1.00  0.00    -0.349 OA
HETATM   11  C14 UNL     1      14.546  10.595  18.786  1.00  0.00     0.214 C
ENDROOT
BRANCH   1  12
HETATM   12  O2  UNL     1      15.528   8.991  20.288  1.00  0.00    -0.281 OA
BRANCH  12  13
HETATM   13  C5  UNL     1      15.095   7.725  20.581  1.00  0.00     0.319 C
HETATM   14  O1  UNL     1      13.875   7.581  20.858  1.00  0.00    -0.257 OA
BRANCH  13  15
HETATM   15  C4  UNL     1      15.964   6.549  20.589  1.00  0.00     0.144 C
HETATM   16  C3  UNL     1      15.817   5.560  21.452  1.00  0.00     0.023 C
HETATM   17  C2  UNL     1      16.668   4.349  21.505  1.00  0.00     0.041 C
HETATM   18  C1  UNL     1      16.896   4.053  22.986  1.00  0.00     0.017 C
HETATM   19  C19 UNL     1      17.948   4.448  20.757  1.00  0.00     0.188 C
HETATM   20  C15 UNL     1      18.192   5.725  20.032  1.00  0.00     0.299 C
HETATM   21  O8  UNL     1      17.986   3.480  19.752  1.00  0.00    -0.345 OA
HETATM   22  O6  UNL     1      17.005   6.410  19.681  1.00  0.00    -0.312 OA
HETATM   23  O7  UNL     1      18.808   5.350  18.838  1.00  0.00    -0.323 OA
HETATM   24  C16 UNL     1      18.830   3.978  18.789  1.00  0.00     0.160 C
HETATM   25  C17 UNL     1      18.352   3.477  17.439  1.00  0.00     0.078 C
HETATM   26  C18 UNL     1      20.234   3.506  19.081  1.00  0.00     0.078 C
ENDBRANCH  13  15
ENDBRANCH  12  13
ENDBRANCH   1  12
BRANCH   4  27
HETATM   27  C9  UNL     1      16.538  13.292  16.903  1.00  0.00     0.081 C
BRANCH  27  28
HETATM   28  C10 UNL     1      17.329  12.216  16.175  1.00  0.00     0.170 C
BRANCH  28  29
HETATM   29  O4  UNL     1      18.321  12.766  15.373  1.00  0.00    -0.401 OA
ATOM     30  H4  UNL     1      17.972  13.073  14.545  1.00  0.00     0.209 HD
ENDBRANCH  28  29
ENDBRANCH  27  28
ENDBRANCH   4  27
TORSDOF 6
ENDMDL