MODEL 3
REMARK VINA RESULT: -6.530453216      2.094      3.524
REMARK  4 active torsions:
REMARK  status: ('A' for Active; 'I' for Inactive)
REMARK    1  A    between atoms: C5_5  and  C6_6
REMARK    2  A    between atoms: C6_6  and  O1_7
REMARK    3  A    between atoms: C7_10  and  C8_11
REMARK    4  A    between atoms: C11_15  and  C12_16
ROOT
HETATM    1  C8  UNL     1      13.239  13.450  20.024  1.00  0.00     0.316 C
HETATM    2  O3  UNL     1      14.285  13.220  20.926  1.00  0.00    -0.348 OA
HETATM    3  C9  UNL     1      13.728  12.553  22.010  1.00  0.00     0.157 C
HETATM    4  C10 UNL     1      14.631  11.601  22.704  1.00  0.00     0.049 C
HETATM    5  C11 UNL     1      13.808  10.498  23.386  1.00  0.00     0.089 C
HETATM    6  C14 UNL     1      12.440  11.021  23.538  1.00  0.00     0.168 C
HETATM    7  O5  UNL     1      11.517  10.249  24.163  1.00  0.00    -0.347 OA
HETATM    8  C15 UNL     1      10.304  10.733  23.673  1.00  0.00     0.158 C
HETATM    9  C16 UNL     1       9.323   9.580  23.482  1.00  0.00     0.078 C
HETATM   10  C17 UNL     1       9.714  11.678  24.693  1.00  0.00     0.078 C
HETATM   11  O6  UNL     1      10.560  11.371  22.458  1.00  0.00    -0.345 OA
HETATM   12  C18 UNL     1      11.811  10.999  22.128  1.00  0.00     0.186 C
HETATM   13  C19 UNL     1      12.640  11.774  21.251  1.00  0.00     0.185 C
HETATM   14  O7  UNL     1      12.117  12.767  20.488  1.00  0.00    -0.346 OA
ENDROOT
BRANCH   1  15
HETATM   15  C7  UNL     1      13.707  12.932  18.682  1.00  0.00     0.321 C
HETATM   16  O2  UNL     1      13.679  11.539  18.744  1.00  0.00    -0.348 OA
HETATM   17  C5  UNL     1      14.904  11.047  19.142  1.00  0.00     0.154 C
HETATM   18  C4  UNL     1      15.857  11.159  17.965  1.00  0.00     0.098 C
HETATM   19  C3  UNL     1      15.892  12.627  17.625  1.00  0.00     0.048 C
HETATM   20  C2  UNL     1      16.718  13.090  16.732  1.00  0.00     0.001 C
HETATM   21  O8  UNL     1      14.985  13.417  18.332  1.00  0.00    -0.320 OA
HETATM   22  C1  UNL     1      17.640  12.175  16.036  1.00  0.00     0.038 C
BRANCH  17  23
HETATM   23  C6  UNL     1      14.822   9.630  19.656  1.00  0.00     0.196 C
BRANCH  23  24
HETATM   24  O1  UNL     1      16.066   9.045  19.498  1.00  0.00    -0.398 OA
ATOM     25  H1  UNL     1      16.716   9.632  19.864  1.00  0.00     0.209 HD
ENDBRANCH  23  24
ENDBRANCH  17  23
ENDBRANCH   1  15
BRANCH   5  26
HETATM   26  C12 UNL     1      14.454  10.066  24.651  1.00  0.00     0.129 C
HETATM   27  C13 UNL     1      15.317  11.047  25.364  1.00  0.00     0.091 C
HETATM   28  O4  UNL     1      14.283   8.940  25.090  1.00  0.00    -0.298 OA
ENDBRANCH   5  26
TORSDOF 4
ENDMDL