MODEL 5
REMARK VINA RESULT: -5.998978679      1.905      3.362
REMARK  5 active torsions:
REMARK  status: ('A' for Active; 'I' for Inactive)
REMARK    1  A    between atoms: O1_2  and  C2_3
REMARK    2  A    between atoms: C2_3  and  C3_5
REMARK    3  A    between atoms: C3_5  and  N1_6
REMARK    4  A    between atoms: C3_5  and  C6_11
REMARK       I    between atoms: N1_6  and  C4_8
REMARK    5  A    between atoms: C7_13  and  C8_14
ROOT
HETATM    1  C6  UNL     1      14.622   9.667  21.166  1.00  0.00     0.298 C
HETATM    2  O4  UNL     1      14.747   8.926  19.997  1.00  0.00    -0.328 OA
HETATM    3  C7  UNL     1      15.246   7.686  20.322  1.00  0.00     0.267 C
HETATM    4  O5  UNL     1      14.264   6.694  20.180  1.00  0.00    -0.348 OA
HETATM    5  C11 UNL     1      13.464   6.721  21.318  1.00  0.00     0.213 C
HETATM    6  C12 UNL     1      12.949   8.118  21.520  1.00  0.00     0.298 C
HETATM    7  O6  UNL     1      13.979   8.863  22.097  1.00  0.00    -0.326 OA
HETATM    8  O7  UNL     1      11.877   8.174  22.398  1.00  0.00    -0.323 OA
HETATM    9  C13 UNL     1      10.880   7.262  22.110  1.00  0.00     0.161 C
HETATM   10  C14 UNL     1      10.057   7.696  20.900  1.00  0.00     0.078 C
HETATM   11  C15 UNL     1       9.913   7.333  23.302  1.00  0.00     0.078 C
HETATM   12  O8  UNL     1      11.295   5.963  22.039  1.00  0.00    -0.343 OA
HETATM   13  C16 UNL     1      12.342   5.712  21.202  1.00  0.00     0.088 C
HETATM   14  C17 UNL     1      11.928   5.571  19.743  1.00  0.00     0.048 C
HETATM   15  C18 UNL     1      12.928   4.358  21.599  1.00  0.00     0.048 C
ENDROOT
BRANCH   1  16
HETATM   16  C3  UNL     1      13.880  10.950  20.971  1.00  0.00     0.240 C
BRANCH  16  17
HETATM   17  C2  UNL     1      13.978  11.744  22.218  1.00  0.00     0.286 C
HETATM   18  O2  UNL     1      15.044  11.821  22.891  1.00  0.00    -0.263 OA
BRANCH  17  19
HETATM   19  O1  UNL     1      12.877  12.426  22.672  1.00  0.00    -0.325 OA
HETATM   20  C1  UNL     1      11.748  11.821  23.267  1.00  0.00     0.213 C
ENDBRANCH  17  19
ENDBRANCH  16  17
BRANCH  16  21
HETATM   21  N1  UNL     1      14.512  11.724  19.912  1.00  0.00    -0.343 N
HETATM   22  C4  UNL     1      13.716  12.477  19.025  1.00  0.00     0.214 C
HETATM   23  C5  UNL     1      14.328  13.271  17.943  1.00  0.00     0.117 C
HETATM   24  O3  UNL     1      12.474  12.485  19.142  1.00  0.00    -0.274 OA
ATOM     25  H1  UNL     1      15.527  11.722  19.812  1.00  0.00     0.163 HD
ENDBRANCH  16  21
ENDBRANCH   1  16
BRANCH   3  26
HETATM   26  C8  UNL     1      16.459   7.291  19.517  1.00  0.00     0.033 C
HETATM   27  C9  UNL     1      17.213   6.196  20.253  1.00  0.00     0.014 C
HETATM   28  C10 UNL     1      17.329   8.445  19.141  1.00  0.00     0.014 C
ENDBRANCH   3  26
TORSDOF 5
ENDMDL