MODEL 5
REMARK VINA RESULT: -7.240784492      1.130      1.424
REMARK  5 active torsions:
REMARK  status: ('A' for Active; 'I' for Inactive)
REMARK    1  A    between atoms: N1_1  and  S1_4
REMARK    2  A    between atoms: S1_4  and  C1_7
REMARK    3  A    between atoms: C4_10  and  S2_11
REMARK    4  A    between atoms: S2_11  and  N2_14
REMARK    5  A    between atoms: C9_19  and  N3_20
ROOT
HETATM    1  S2  UNL     1      12.342  12.710  20.230  1.00  0.00     0.284 S
HETATM    2  O3  UNL     1      11.693  14.082  20.375  1.00  0.00    -0.198 OA
HETATM    3  O4  UNL     1      11.203  11.824  19.731  1.00  0.00    -0.198 OA
ENDROOT
BRANCH   1   4
HETATM    4  C4  UNL     1      12.926  12.140  21.755  1.00  0.00     0.149 A
HETATM    5  C3  UNL     1      14.263  12.067  22.054  1.00  0.00     0.045 A
HETATM    6  C2  UNL     1      14.731  11.631  23.277  1.00  0.00     0.029 A
HETATM    7  C1  UNL     1      13.825  11.257  24.232  1.00  0.00     0.094 A
HETATM    8  C13 UNL     1      12.475  11.332  23.924  1.00  0.00     0.114 A
HETATM    9  N4  UNL     1      12.059  11.767  22.709  1.00  0.00    -0.354 N
ATOM     10  H4  UNL     1      11.058  11.812  22.515  1.00  0.00     0.166 HD
BRANCH   7  11
HETATM   11  S1  UNL     1      14.413  10.706  25.775  1.00  0.00     0.258 S
HETATM   12  O1  UNL     1      15.879  11.070  25.931  1.00  0.00    -0.201 OA
HETATM   13  O2  UNL     1      14.248   9.221  25.879  1.00  0.00    -0.201 OA
BRANCH  11  14
HETATM   14  N1  UNL     1      13.543  11.528  27.033  1.00  0.00    -0.324 N
ATOM     15  H12 UNL     1      12.825  12.240  26.892  1.00  0.00     0.169 HD
ATOM     16  H11 UNL     1      13.884  11.165  27.923  1.00  0.00     0.169 HD
ENDBRANCH  11  14
ENDBRANCH   7  11
ENDBRANCH   1   4
BRANCH   1  17
HETATM   17  N2  UNL     1      13.562  12.848  19.019  1.00  0.00    -0.245 N
HETATM   18  C5  UNL     1      13.814  13.939  18.237  1.00  0.00     0.111 A
HETATM   19  C6  UNL     1      14.873  13.701  17.392  1.00  0.00     0.032 A
HETATM   20  C7  UNL     1      15.306  12.409  17.651  1.00  0.00    -0.005 A
HETATM   21  C8  UNL     1      16.328  11.632  17.102  1.00  0.00     0.050 A
HETATM   22  C12 UNL     1      14.480  11.937  18.644  1.00  0.00     0.060 A
HETATM   23  C9  UNL     1      16.541  10.346  17.545  1.00  0.00     0.103 A
HETATM   24  C10 UNL     1      15.713   9.873  18.538  1.00  0.00     0.038 A
HETATM   25  C11 UNL     1      14.704  10.635  19.084  1.00  0.00     0.034 A
BRANCH  23  26
HETATM   26  N3  UNL     1      17.587   9.527  16.995  1.00  0.00    -0.116 N
HETATM   27  O5  UNL     1      18.264   8.834  17.749  1.00  0.00    -0.532 OA
HETATM   28  O6  UNL     1      17.844   9.505  15.660  1.00  0.00    -0.532 OA
ENDBRANCH  23  26
ENDBRANCH   1  17
TORSDOF 5
ENDMDL