MODEL 2
REMARK VINA RESULT: -6.287658830      0.905      1.128
REMARK  7 active torsions:
REMARK  status: ('A' for Active; 'I' for Inactive)
REMARK    1  A    between atoms: C2_2  and  C3_3
REMARK    2  A    between atoms: C3_3  and  O1_5
REMARK    3  A    between atoms: O1_5  and  C5_6
REMARK    4  A    between atoms: C8_12  and  C9_13
REMARK    5  A    between atoms: C9_13  and  O5_16
REMARK    6  A    between atoms: C14_20  and  O6_21
REMARK    7  A    between atoms: O6_21  and  C15_22
ROOT
HETATM    1  C5  UNL     1      14.075  12.346  20.694  1.00  0.00     0.291 C
HETATM    2  C6  UNL     1      12.967  13.106  21.329  1.00  0.00     0.298 C
HETATM    3  O2  UNL     1      12.429  14.103  20.741  1.00  0.00    -0.262 OA
HETATM    4  O3  UNL     1      12.457  12.788  22.580  1.00  0.00    -0.277 OA
HETATM    5  C7  UNL     1      12.504  11.490  23.015  1.00  0.00     0.215 C
HETATM    6  O4  UNL     1      12.504  11.276  24.391  1.00  0.00    -0.343 OA
HETATM    7  C8  UNL     1      12.658   9.891  24.469  1.00  0.00     0.164 C
HETATM    8  C12 UNL     1      13.404   9.477  23.197  1.00  0.00     0.041 C
HETATM    9  C13 UNL     1      12.255   9.200  22.227  1.00  0.00     0.047 C
HETATM   10  C14 UNL     1      11.564  10.550  22.273  1.00  0.00     0.196 C
HETATM   11  C17 UNL     1      13.852  10.807  22.715  1.00  0.00     0.086 C
HETATM   12  C18 UNL     1      14.956  11.424  23.535  1.00  0.00     0.030 C
HETATM   13  C19 UNL     1      14.163  10.997  21.316  1.00  0.00     0.179 C
HETATM   14  O8  UNL     1      14.503  10.052  20.636  1.00  0.00    -0.293 OA
ENDROOT
BRANCH   1  15
HETATM   15  O1  UNL     1      13.841  12.316  19.339  1.00  0.00    -0.363 OA
BRANCH  15  16
HETATM   16  C3  UNL     1      14.702  12.972  18.536  1.00  0.00     0.118 C
HETATM   17  C4  UNL     1      14.123  13.940  17.560  1.00  0.00     0.039 C
BRANCH  16  18
HETATM   18  C2  UNL     1      15.664  12.064  17.780  1.00  0.00     0.027 C
HETATM   19  C1  UNL     1      16.782  12.833  17.137  1.00  0.00     0.007 C
ENDBRANCH  16  18
ENDBRANCH  15  16
ENDBRANCH   1  15
BRANCH  10  20
HETATM   20  O6  UNL     1      11.206  11.031  21.019  1.00  0.00    -0.311 OA
BRANCH  20  21
HETATM   21  C15 UNL     1       9.882  11.086  20.614  1.00  0.00     0.255 C
HETATM   22  C16 UNL     1       8.763  10.521  21.413  1.00  0.00     0.126 C
HETATM   23  O7  UNL     1       9.604  11.643  19.513  1.00  0.00    -0.266 OA
ENDBRANCH  20  21
ENDBRANCH  10  20
BRANCH   7  24
HETATM   24  C9  UNL     1      13.200   9.363  25.729  1.00  0.00     0.077 C
HETATM   25  C10 UNL     1      14.156   8.229  25.430  1.00  0.00     0.048 C
HETATM   26  C11 UNL     1      12.025   8.707  26.475  1.00  0.00     0.048 C
BRANCH  24  27
HETATM   27  O5  UNL     1      13.798  10.204  26.608  1.00  0.00    -0.388 OA
ATOM     28  H5  UNL     1      13.281  10.866  27.051  1.00  0.00     0.210 HD
ENDBRANCH  24  27
ENDBRANCH   7  24
TORSDOF 7
ENDMDL