MODEL 4
REMARK VINA RESULT: -7.375644298      3.390      6.444
REMARK  5 active torsions:
REMARK  status: ('A' for Active; 'I' for Inactive)
REMARK    1  A    between atoms: C3_5  and  C4_6
REMARK    2  A    between atoms: C4_6  and  S1_7
REMARK    3  A    between atoms: S1_7  and  C5_10
REMARK    4  A    between atoms: C8_13  and  O5_14
REMARK    5  A    between atoms: C9_16  and  N1_17
ROOT
HETATM    1  C4  UNL     1      14.210  11.606  21.374  1.00  0.00     0.166 C
ENDROOT
BRANCH   1   2
HETATM    2  C3  UNL     1      13.831  10.892  20.127  1.00  0.00     0.153 C
HETATM    3  C2  UNL     1      14.554   9.632  19.866  1.00  0.00     0.212 C
HETATM    4  C1  UNL     1      15.807   9.728  19.108  1.00  0.00     0.229 C
HETATM    5  O2  UNL     1      14.167   8.505  20.248  1.00  0.00    -0.288 OA
HETATM    6  O1  UNL     1      16.635   8.779  19.162  1.00  0.00    -0.283 OA
HETATM    7  C17 UNL     1      16.137  10.885  18.287  1.00  0.00     0.032 A
HETATM    8  C12 UNL     1      15.248  11.926  18.218  1.00  0.00     0.025 A
HETATM    9  C16 UNL     1      17.334  10.955  17.574  1.00  0.00     0.016 A
HETATM   10  C11 UNL     1      14.008  11.835  18.966  1.00  0.00     0.173 C
HETATM   11  C13 UNL     1      15.552  13.038  17.436  1.00  0.00     0.016 A
HETATM   12  O8  UNL     1      13.044  12.558  18.650  1.00  0.00    -0.291 OA
HETATM   13  C14 UNL     1      16.739  13.092  16.737  1.00  0.00     0.001 A
HETATM   14  C15 UNL     1      17.645  12.050  16.798  1.00  0.00     0.001 A
ENDBRANCH   1   2
BRANCH   1  15
HETATM   15  S1  UNL     1      13.169  11.271  22.741  1.00  0.00     0.176 S
HETATM   16  O3  UNL     1      12.146  10.211  22.450  1.00  0.00    -0.223 OA
HETATM   17  O4  UNL     1      12.512  12.566  23.156  1.00  0.00    -0.223 OA
BRANCH  15  18
HETATM   18  C5  UNL     1      14.083  10.695  24.109  1.00  0.00     0.061 A
HETATM   19  C6  UNL     1      15.092  11.414  24.704  1.00  0.00     0.026 A
HETATM   20  C7  UNL     1      15.787  10.897  25.800  1.00  0.00     0.040 A
HETATM   21  C8  UNL     1      15.465   9.653  26.298  1.00  0.00     0.098 A
HETATM   22  C9  UNL     1      14.465   8.929  25.716  1.00  0.00     0.137 A
HETATM   23  C10 UNL     1      13.783   9.459  24.625  1.00  0.00     0.062 A
BRANCH  21  24
HETATM   24  O5  UNL     1      16.126   9.087  27.391  1.00  0.00    -0.358 OA
ATOM     25  H5  UNL     1      16.668   8.310  27.315  1.00  0.00     0.217 HD
ENDBRANCH  21  24
BRANCH  22  26
HETATM   26  N1  UNL     1      14.105   7.639  26.205  1.00  0.00    -0.113 N
HETATM   27  O6  UNL     1      13.677   7.437  27.351  1.00  0.00    -0.532 OA
HETATM   28  O7  UNL     1      14.242   6.567  25.362  1.00  0.00    -0.532 OA
ENDBRANCH  22  26
ENDBRANCH  15  18
ENDBRANCH   1  15
TORSDOF 5
ENDMDL