MODEL 3
REMARK VINA RESULT: -5.882429283      4.445      7.229
REMARK  6 active torsions:
REMARK  status: ('A' for Active; 'I' for Inactive)
REMARK    1  A    between atoms: C3_3  and  C4_4
REMARK    2  A    between atoms: N1_5  and  N2_7
REMARK       I    between atoms: N2_7  and  C5_9
REMARK    3  A    between atoms: C5_9  and  C6_11
REMARK    4  A    between atoms: C6_11  and  S1_12
REMARK    5  A    between atoms: C8_17  and  C9_18
REMARK    6  A    between atoms: C9_18  and  C10_20
ROOT
HETATM    1  C1  UNL     1     -17.507  -7.651 -27.157  1.00  0.00     0.054 C
HETATM    2  C2  UNL     1     -16.262  -8.441 -27.158  1.00  0.00     0.002 C
HETATM    3  C3  UNL     1     -16.136  -9.455 -28.013  1.00  0.00     0.027 C
HETATM    4  S2  UNL     1     -14.569 -10.311 -27.929  1.00  0.00    -0.115 SA
HETATM    5  C8  UNL     1     -14.090 -10.452 -26.184  1.00  0.00     0.134 C
HETATM    6  C14 UNL     1     -14.385  -9.174 -25.502  1.00  0.00     0.077 C
HETATM    7  C15 UNL     1     -15.197  -9.395 -24.207  1.00  0.00     0.020 C
HETATM    8  C16 UNL     1     -15.151  -8.173 -26.256  1.00  0.00     0.162 C
HETATM    9  O5  UNL     1     -14.825  -6.959 -26.112  1.00  0.00    -0.292 OA
ENDROOT
BRANCH   3  10
HETATM   10  C4  UNL     1     -17.130  -9.853 -28.945  1.00  0.00     0.126 C
HETATM   11  N1  UNL     1     -17.405 -11.026 -29.350  1.00  0.00    -0.308 N
ATOM     12  H1  UNL     1     -16.850 -11.792 -28.968  1.00  0.00     0.186 HD
BRANCH  11  13
HETATM   13  N2  UNL     1     -18.397 -11.356 -30.270  1.00  0.00    -0.270 N
HETATM   14  C5  UNL     1     -18.611 -12.677 -30.696  1.00  0.00     0.249 C
HETATM   15  O1  UNL     1     -17.848 -13.567 -30.198  1.00  0.00    -0.271 OA
ATOM     16  H2  UNL     1     -18.988 -10.615 -30.647  1.00  0.00     0.190 HD
BRANCH  14  17
HETATM   17  C6  UNL     1     -19.644 -13.052 -31.660  1.00  0.00     0.244 C
BRANCH  17  18
HETATM   18  S1  UNL     1     -18.991 -13.964 -33.007  1.00  0.00     0.149 S
HETATM   19  C7  UNL     1     -18.420 -12.824 -34.267  1.00  0.00     0.161 C
HETATM   20  O2  UNL     1     -19.966 -14.869 -33.666  1.00  0.00    -0.228 OA
HETATM   21  O3  UNL     1     -17.789 -14.764 -32.563  1.00  0.00    -0.228 OA
ENDBRANCH  17  18
ENDBRANCH  14  17
ENDBRANCH  11  13
ENDBRANCH   3  10
BRANCH   5  22
HETATM   22  C9  UNL     1     -12.698 -10.941 -26.122  1.00  0.00     0.149 C
HETATM   23  O4  UNL     1     -12.351 -11.690 -27.058  1.00  0.00    -0.296 OA
BRANCH  22  24
HETATM   24  C10 UNL     1     -11.684 -10.660 -25.110  1.00  0.00     0.011 C
HETATM   25  C11 UNL     1     -10.338 -11.201 -25.644  1.00  0.00     0.022 C
HETATM   26  C12 UNL     1     -11.395  -9.158 -24.958  1.00  0.00     0.022 C
HETATM   27  C13 UNL     1     -11.906 -11.327 -23.794  1.00  0.00     0.022 C
ENDBRANCH  22  24
ENDBRANCH   5  22
TORSDOF 6
ENDMDL