MODEL 2
REMARK VINA RESULT: -6.468380525      5.007      9.441
REMARK  4 active torsions:
REMARK  status: ('A' for Active; 'I' for Inactive)
REMARK    1  A    between atoms: S1_2  and  C2_5
REMARK    2  A    between atoms: C5_8  and  C6_9
REMARK    3  A    between atoms: N1_11  and  C8_12
REMARK    4  A    between atoms: C13_17  and  S2_18
ROOT
HETATM    1  C6  UNL     1     -16.195  -6.482 -26.393  1.00  0.00     0.093 A
HETATM    2  C7  UNL     1     -16.363  -7.849 -26.624  1.00  0.00     0.151 A
HETATM    3  N1  UNL     1     -15.166  -8.449 -26.613  1.00  0.00    -0.249 N
HETATM    4  N2  UNL     1     -14.279  -7.506 -26.386  1.00  0.00    -0.235 N
ATOM      5  H2  UNL     1     -13.273  -7.662 -26.322  1.00  0.00     0.209 HD
HETATM    6  N3  UNL     1     -14.874  -6.312 -26.250  1.00  0.00    -0.282 N
ATOM      7  H3  UNL     1     -14.402  -5.427 -26.069  1.00  0.00     0.188 HD
ENDROOT
BRANCH   1   8
HETATM    8  C5  UNL     1     -17.268  -5.486 -26.330  1.00  0.00     0.061 A
HETATM    9  C4  UNL     1     -17.364  -4.580 -25.295  1.00  0.00     0.033 A
HETATM   10  C3  UNL     1     -18.350  -3.631 -25.196  1.00  0.00     0.027 A
HETATM   11  C2  UNL     1     -19.309  -3.579 -26.195  1.00  0.00     0.074 A
HETATM   12  C14 UNL     1     -19.202  -4.483 -27.215  1.00  0.00     0.111 A
HETATM   13  N4  UNL     1     -18.216  -5.405 -27.282  1.00  0.00    -0.363 N
ATOM     14  H4  UNL     1     -18.189  -6.053 -28.069  1.00  0.00     0.165 HD
BRANCH  11  15
HETATM   15  S1  UNL     1     -20.571  -2.376 -26.083  1.00  0.00     0.173 S
HETATM   16  C1  UNL     1     -19.945  -0.737 -26.248  1.00  0.00     0.167 C
HETATM   17  O1  UNL     1     -21.599  -2.621 -27.129  1.00  0.00    -0.223 OA
HETATM   18  O2  UNL     1     -21.231  -2.566 -24.731  1.00  0.00    -0.223 OA
ENDBRANCH  11  15
ENDBRANCH   1   8
BRANCH   3  19
HETATM   19  C8  UNL     1     -14.878  -9.815 -26.803  1.00  0.00     0.081 A
HETATM   20  C9  UNL     1     -15.360 -10.521 -27.914  1.00  0.00     0.033 A
HETATM   21  C10 UNL     1     -15.074 -11.858 -28.094  1.00  0.00     0.002 A
HETATM   22  C11 UNL     1     -14.293 -12.476 -27.135  1.00  0.00     0.002 A
HETATM   23  C12 UNL     1     -13.800 -11.812 -26.026  1.00  0.00     0.029 A
HETATM   24  C13 UNL     1     -14.102 -10.474 -25.872  1.00  0.00     0.109 A
BRANCH  24  25
HETATM   25  S2  UNL     1     -13.500  -9.617 -24.497  1.00  0.00     0.140 S
HETATM   26  O3  UNL     1     -12.289  -8.764 -24.833  1.00  0.00    -0.591 OA
HETATM   27  O4  UNL     1     -14.515  -8.730 -23.852  1.00  0.00    -0.591 OA
HETATM   28  O5  UNL     1     -12.971 -10.694 -23.298  1.00  0.00    -0.591 OA
ENDBRANCH  24  25
ENDBRANCH   3  19
TORSDOF 4
ENDMDL