MODEL 4
REMARK VINA RESULT: -6.794058052      0.876      1.551
REMARK  5 active torsions:
REMARK  status: ('A' for Active; 'I' for Inactive)
REMARK    1  A    between atoms: C4_8  and  C5_9
REMARK    2  A    between atoms: C5_9  and  C6_10
REMARK    3  A    between atoms: N2_12  and  C8_13
REMARK    4  A    between atoms: C8_13  and  C9_14
REMARK    5  A    between atoms: C12_17  and  S1_18
ROOT
HETATM    1  C6  UNL     1     -14.444  -9.182 -26.467  1.00  0.00     0.024 A
HETATM    2  C7  UNL     1     -14.487  -7.839 -26.159  1.00  0.00     0.111 A
HETATM    3  N2  UNL     1     -14.253  -7.476 -24.923  1.00  0.00    -0.336 N
HETATM    4  C14 UNL     1     -13.985  -8.424 -24.027  1.00  0.00     0.145 A
HETATM    5  S3  UNL     1     -13.662  -8.267 -22.411  1.00  0.00    -0.052 SA
HETATM    6  S4  UNL     1     -14.058  -9.864 -24.923  1.00  0.00    -0.059 SA
ENDROOT
BRANCH   3   7
HETATM    7  C8  UNL     1     -14.281  -6.035 -24.528  1.00  0.00     0.176 C
BRANCH   7   8
HETATM    8  C9  UNL     1     -15.527  -5.381 -25.065  1.00  0.00     0.002 A
HETATM    9  C10 UNL     1     -16.198  -4.275 -24.630  1.00  0.00     0.018 A
HETATM   10  C11 UNL     1     -17.292  -3.895 -25.296  1.00  0.00     0.032 A
HETATM   11  C12 UNL     1     -17.664  -4.647 -26.378  1.00  0.00     0.099 A
HETATM   12  S2  UNL     1     -16.475  -5.861 -26.428  1.00  0.00    -0.081 SA
BRANCH  11  13
HETATM   13  S1  UNL     1     -19.036  -4.405 -27.443  1.00  0.00     0.178 S
HETATM   14  C13 UNL     1     -19.645  -5.919 -28.087  1.00  0.00     0.167 C
HETATM   15  O3  UNL     1     -20.113  -3.592 -26.770  1.00  0.00    -0.222 OA
HETATM   16  O4  UNL     1     -18.523  -3.550 -28.595  1.00  0.00    -0.222 OA
ENDBRANCH  11  13
ENDBRANCH   7   8
ENDBRANCH   3   7
BRANCH   1  17
HETATM   17  C5  UNL     1     -14.691  -9.832 -27.734  1.00  0.00     0.040 C
BRANCH  17  18
HETATM   18  C4  UNL     1     -15.614 -10.658 -28.083  1.00  0.00     0.070 A
HETATM   19  C2  UNL     1     -15.622 -12.009 -28.293  1.00  0.00     0.062 A
HETATM   20  C1  UNL     1     -14.639 -12.861 -28.185  1.00  0.00     0.046 C
HETATM   21  N1  UNL     1     -16.905 -12.364 -28.658  1.00  0.00    -0.257 N
HETATM   22  O1  UNL     1     -17.647 -11.313 -28.677  1.00  0.00    -0.194 OA
ATOM     23  H1  UNL     1     -17.216 -13.310 -28.879  1.00  0.00     0.195 HD
HETATM   24  C3  UNL     1     -16.957 -10.270 -28.350  1.00  0.00     0.317 A
HETATM   25  O2  UNL     1     -17.415  -9.107 -28.282  1.00  0.00    -0.257 OA
ENDBRANCH  17  18
ENDBRANCH   1  17
TORSDOF 5
ENDMDL