MODEL 1
REMARK VINA RESULT: -5.627268134      0.000      0.000
REMARK  7 active torsions:
REMARK  status: ('A' for Active; 'I' for Inactive)
REMARK    1  A    between atoms: C2_2  and  C3_3
REMARK       I    between atoms: C3_3  and  N1_5
REMARK    2  A    between atoms: N1_5  and  C4_7
REMARK    3  A    between atoms: C10_15  and  N2_16
REMARK    4  A    between atoms: C13_19  and  O4_20
REMARK    5  A    between atoms: O4_20  and  C14_21
REMARK    6  A    between atoms: C14_21  and  O6_23
REMARK    7  A    between atoms: O6_23  and  C15_24
ROOT
HETATM    1  C15 UNL     1     -18.240  -4.787 -26.697  1.00  0.00     0.153 C
HETATM    2  C16 UNL     1     -17.815  -3.568 -27.489  1.00  0.00     0.063 C
HETATM    3  C17 UNL     1     -19.601  -4.583 -26.107  1.00  0.00     0.063 C
HETATM    4  C18 UNL     1     -18.337  -5.973 -27.586  1.00  0.00     0.097 C
HETATM    5  N3  UNL     1     -18.396  -6.895 -28.280  1.00  0.00    -0.194 NA
ENDROOT
BRANCH   1   6
HETATM    6  O6  UNL     1     -17.250  -5.071 -25.758  1.00  0.00    -0.272 OA
BRANCH   6   7
HETATM    7  C14 UNL     1     -15.886  -4.987 -25.980  1.00  0.00     0.408 C
HETATM    8  O5  UNL     1     -15.324  -3.902 -25.764  1.00  0.00    -0.229 OA
BRANCH   7   9
HETATM    9  O4  UNL     1     -15.121  -6.046 -26.428  1.00  0.00    -0.288 OA
BRANCH   9  10
HETATM   10  C13 UNL     1     -14.759  -7.137 -25.630  1.00  0.00     0.184 C
HETATM   11  C4  UNL     1     -14.744  -8.378 -26.535  1.00  0.00     0.147 C
HETATM   12  C5  UNL     1     -14.015  -9.360 -25.676  1.00  0.00     0.181 C
HETATM   13  O2  UNL     1     -14.910  -9.827 -24.708  1.00  0.00    -0.346 OA
HETATM   14  C9  UNL     1     -12.993  -8.517 -24.922  1.00  0.00     0.181 C
HETATM   15  C6  UNL     1     -14.096  -9.950 -23.604  1.00  0.00     0.158 C
HETATM   16  C7  UNL     1     -14.933  -9.845 -22.335  1.00  0.00     0.078 C
HETATM   17  C8  UNL     1     -13.270 -11.196 -23.580  1.00  0.00     0.078 C
HETATM   18  O3  UNL     1     -13.241  -8.856 -23.613  1.00  0.00    -0.346 OA
HETATM   19  C10 UNL     1     -13.268  -7.112 -25.284  1.00  0.00     0.141 C
BRANCH  11  20
HETATM   20  N1  UNL     1     -16.060  -8.790 -26.911  1.00  0.00    -0.351 N
HETATM   21  C3  UNL     1     -16.201  -9.789 -27.910  1.00  0.00     0.217 C
HETATM   22  O1  UNL     1     -15.207 -10.323 -28.477  1.00  0.00    -0.274 OA
ATOM     23  H1  UNL     1     -16.881  -8.375 -26.469  1.00  0.00     0.163 HD
BRANCH  21  24
HETATM   24  C2  UNL     1     -17.552 -10.242 -28.324  1.00  0.00     0.098 C
HETATM   25  C1  UNL     1     -17.522 -11.535 -29.071  1.00  0.00     0.014 C
ENDBRANCH  21  24
ENDBRANCH  11  20
BRANCH  19  26
HETATM   26  N2  UNL     1     -12.895  -6.104 -24.403  1.00  0.00    -0.412 N
HETATM   27  C11 UNL     1     -12.140  -5.012 -24.875  1.00  0.00     0.143 C
HETATM   28  C12 UNL     1     -13.740  -5.820 -23.294  1.00  0.00     0.143 C
ENDBRANCH  19  26
ENDBRANCH   9  10
ENDBRANCH   7   9
ENDBRANCH   6   7
ENDBRANCH   1   6
TORSDOF 7
ENDMDL