MODEL 5
REMARK VINA RESULT: -6.035453328      2.045      5.586
REMARK  5 active torsions:
REMARK  status: ('A' for Active; 'I' for Inactive)
REMARK    1  A    between atoms: C2_2  and  O2_4
REMARK    2  A    between atoms: O2_4  and  C3_5
REMARK    3  A    between atoms: C13_17  and  C14_18
REMARK    4  A    between atoms: C14_18  and  C16_20
REMARK    5  A    between atoms: C16_20  and  O5_21
ROOT
HETATM    1  C3  UNL     1     -14.003  -9.474 -25.777  1.00  0.00     0.173 C
HETATM    2  C4  UNL     1     -13.467 -10.605 -26.566  1.00  0.00     0.019 C
HETATM    3  C5  UNL     1     -14.384 -10.774 -27.789  1.00  0.00     0.013 C
HETATM    4  C6  UNL     1     -13.321 -11.911 -25.923  1.00  0.00    -0.002 A
HETATM    5  C7  UNL     1     -14.165 -12.377 -24.782  1.00  0.00     0.012 A
HETATM    6  C8  UNL     1     -12.721 -12.103 -24.636  1.00  0.00     0.015 A
HETATM    7  C9  UNL     1     -12.148 -10.968 -23.859  1.00  0.00     0.099 C
HETATM    8  C10 UNL     1     -11.382 -11.543 -22.723  1.00  0.00     0.002 C
HETATM    9  C11 UNL     1     -11.165 -11.497 -21.444  1.00  0.00     0.079 C
HETATM   10  C12 UNL     1     -11.749 -10.645 -20.414  1.00  0.00     0.284 C
HETATM   11  O3  UNL     1     -11.228 -10.893 -19.279  1.00  0.00    -0.260 OA
HETATM   12  O4  UNL     1     -12.721  -9.647 -20.391  1.00  0.00    -0.286 OA
HETATM   13  C13 UNL     1     -13.642  -9.282 -21.441  1.00  0.00     0.276 C
HETATM   14  O6  UNL     1     -12.792  -9.016 -22.541  1.00  0.00    -0.350 OA
HETATM   15  C17 UNL     1     -13.031  -9.841 -23.590  1.00  0.00     0.184 C
HETATM   16  C18 UNL     1     -12.903  -8.993 -24.860  1.00  0.00     0.121 C
HETATM   17  C19 UNL     1     -12.866  -7.536 -24.629  1.00  0.00     0.052 C
HETATM   18  O7  UNL     1     -11.647  -9.351 -25.433  1.00  0.00    -0.304 OA
HETATM   19  C20 UNL     1     -11.074 -10.372 -24.740  1.00  0.00     0.275 C
HETATM   20  O8  UNL     1      -9.870 -10.714 -24.852  1.00  0.00    -0.264 OA
ENDROOT
BRANCH  13  21
HETATM   21  C14 UNL     1     -14.375  -8.091 -20.933  1.00  0.00     0.061 C
HETATM   22  C15 UNL     1     -14.944  -8.266 -19.545  1.00  0.00     0.017 C
BRANCH  21  23
HETATM   23  C16 UNL     1     -13.648  -6.778 -21.102  1.00  0.00     0.173 C
BRANCH  23  24
HETATM   24  O5  UNL     1     -12.395  -6.933 -20.500  1.00  0.00    -0.400 OA
ATOM     25  H5  UNL     1     -12.197  -7.862 -20.519  1.00  0.00     0.209 HD
ENDBRANCH  23  24
ENDBRANCH  21  23
ENDBRANCH  13  21
BRANCH   1  26
HETATM   26  O2  UNL     1     -14.547  -8.444 -26.556  1.00  0.00    -0.313 OA
BRANCH  26  27
HETATM   27  C2  UNL     1     -15.835  -7.968 -26.455  1.00  0.00     0.255 C
HETATM   28  C1  UNL     1     -16.002  -6.491 -26.301  1.00  0.00     0.126 C
HETATM   29  O1  UNL     1     -16.778  -8.769 -26.494  1.00  0.00    -0.266 OA
ENDBRANCH  26  27
ENDBRANCH   1  26
TORSDOF 5
ENDMDL