MODEL 2
REMARK VINA RESULT: -5.968130474      2.545      7.461
REMARK  7 active torsions:
REMARK  status: ('A' for Active; 'I' for Inactive)
REMARK    1  A    between atoms: C3_3  and  O2_5
REMARK    2  A    between atoms: O2_5  and  C4_6
REMARK    3  A    between atoms: C4_6  and  C5_7
REMARK    4  A    between atoms: C6_9  and  O4_10
REMARK    5  A    between atoms: C13_19  and  N1_20
REMARK       I    between atoms: N1_20  and  C14_22
REMARK    6  A    between atoms: C14_22  and  O8_24
REMARK    7  A    between atoms: O8_24  and  C15_25
ROOT
HETATM    1  C1  UNL     1     -15.324  -5.155 -25.739  1.00  0.00     0.023 C
HETATM    2  C2  UNL     1     -14.838  -6.069 -25.120  1.00  0.00    -0.009 C
HETATM    3  C3  UNL     1     -14.274  -7.170 -24.361  1.00  0.00     0.338 C
HETATM    4  O1  UNL     1     -13.809  -6.909 -23.230  1.00  0.00    -0.249 OA
ENDROOT
BRANCH   3   5
HETATM    5  O2  UNL     1     -14.225  -8.447 -24.806  1.00  0.00    -0.308 OA
BRANCH   5   6
HETATM    6  C4  UNL     1     -13.562  -9.015 -25.871  1.00  0.00     0.214 C
BRANCH   6   7
HETATM    7  C5  UNL     1     -14.339  -9.793 -26.863  1.00  0.00     0.181 C
HETATM    8  O3  UNL     1     -15.645  -9.471 -27.057  1.00  0.00    -0.351 OA
HETATM    9  C6  UNL     1     -16.130  -9.692 -28.332  1.00  0.00     0.266 C
HETATM   10  C8  UNL     1     -17.283 -10.689 -28.337  1.00  0.00     0.066 C
HETATM   11  C9  UNL     1     -18.202 -10.381 -29.501  1.00  0.00     0.017 C
HETATM   12  C10 UNL     1     -16.836 -12.106 -28.458  1.00  0.00     0.136 C
HETATM   13  C11 UNL     1     -17.456 -12.827 -29.636  1.00  0.00     0.040 C
HETATM   14  O5  UNL     1     -15.446 -12.281 -28.516  1.00  0.00    -0.314 OA
HETATM   15  C12 UNL     1     -14.420 -12.078 -27.617  1.00  0.00     0.284 C
HETATM   16  O6  UNL     1     -13.355 -12.696 -27.847  1.00  0.00    -0.263 OA
HETATM   17  C13 UNL     1     -14.308 -11.252 -26.394  1.00  0.00     0.217 C
BRANCH   9  18
HETATM   18  O4  UNL     1     -16.683  -8.485 -28.819  1.00  0.00    -0.366 OA
HETATM   19  C7  UNL     1     -17.144  -7.695 -27.771  1.00  0.00     0.204 C
ENDBRANCH   9  18
BRANCH  17  20
HETATM   20  N1  UNL     1     -13.135 -11.563 -25.646  1.00  0.00    -0.320 N
HETATM   21  C14 UNL     1     -13.243 -12.024 -24.317  1.00  0.00     0.362 C
HETATM   22  O7  UNL     1     -14.372 -12.166 -23.781  1.00  0.00    -0.238 OA
ATOM     23  H1  UNL     1     -12.215 -11.452 -26.073  1.00  0.00     0.165 HD
BRANCH  21  24
HETATM   24  O8  UNL     1     -12.151 -12.346 -23.525  1.00  0.00    -0.294 OA
BRANCH  24  25
HETATM   25  C15 UNL     1     -11.455 -11.392 -22.753  1.00  0.00     0.061 C
HETATM   26  C16 UNL     1     -10.871 -11.975 -21.495  1.00  0.00     0.046 C
HETATM   27  C17 UNL     1     -10.359 -10.701 -23.507  1.00  0.00     0.046 C
HETATM   28  C18 UNL     1     -12.461 -10.331 -22.337  1.00  0.00     0.046 C
ENDBRANCH  24  25
ENDBRANCH  21  24
ENDBRANCH  17  20
ENDBRANCH   6   7
ENDBRANCH   5   6
ENDBRANCH   3   5
TORSDOF 7
ENDMDL