MODEL 4
REMARK VINA RESULT: -6.352509171      1.713      3.477
REMARK  6 active torsions:
REMARK  status: ('A' for Active; 'I' for Inactive)
REMARK    1  A    between atoms: C2_2  and  O2_4
REMARK    2  A    between atoms: O2_4  and  C3_5
REMARK    3  A    between atoms: C9_15  and  C10_16
REMARK    4  A    between atoms: C10_16  and  C11_17
REMARK    5  A    between atoms: C12_18  and  C14_20
REMARK    6  A    between atoms: C14_20  and  O7_21
ROOT
HETATM    1  C3  UNL     1     -12.479 -10.681 -22.734  1.00  0.00     0.186 C
HETATM    2  C4  UNL     1     -11.363 -11.538 -23.358  1.00  0.00     0.125 C
HETATM    3  C5  UNL     1     -10.529 -10.424 -23.921  1.00  0.00     0.267 C
HETATM    4  O3  UNL     1      -9.291 -10.459 -24.068  1.00  0.00    -0.265 OA
HETATM    5  O4  UNL     1     -11.419  -9.369 -24.237  1.00  0.00    -0.301 OA
HETATM    6  C6  UNL     1     -12.678  -9.872 -24.025  1.00  0.00     0.158 C
HETATM    7  C7  UNL     1     -13.856  -9.017 -24.057  1.00  0.00     0.205 C
HETATM    8  O5  UNL     1     -13.612  -7.885 -24.824  1.00  0.00    -0.306 OA
HETATM    9  C8  UNL     1     -14.380  -7.462 -25.887  1.00  0.00     0.290 C
HETATM   10  O6  UNL     1     -14.139  -6.361 -26.467  1.00  0.00    -0.260 OA
HETATM   11  C9  UNL     1     -15.470  -8.321 -26.319  1.00  0.00     0.019 C
HETATM   12  C15 UNL     1     -15.695  -9.448 -25.707  1.00  0.00     0.021 C
HETATM   13  C16 UNL     1     -14.916  -9.942 -24.579  1.00  0.00     0.179 C
HETATM   14  O8  UNL     1     -14.300 -11.182 -24.854  1.00  0.00    -0.365 OA
HETATM   15  C17 UNL     1     -12.960 -10.977 -25.004  1.00  0.00     0.099 C
HETATM   16  C18 UNL     1     -12.534 -10.563 -26.387  1.00  0.00     0.050 C
HETATM   17  C19 UNL     1     -12.113 -12.145 -24.496  1.00  0.00     0.035 C
HETATM   18  C20 UNL     1     -12.976 -13.307 -24.088  1.00  0.00     0.014 C
ENDROOT
BRANCH  11  19
HETATM   19  C10 UNL     1     -16.311  -7.877 -27.470  1.00  0.00     0.072 C
BRANCH  19  20
HETATM   20  C11 UNL     1     -17.269  -6.824 -27.051  1.00  0.00    -0.018 C
HETATM   21  C12 UNL     1     -18.357  -6.569 -27.752  1.00  0.00    -0.064 C
HETATM   22  C13 UNL     1     -18.664  -7.320 -28.982  1.00  0.00     0.045 C
BRANCH  21  23
HETATM   23  C14 UNL     1     -19.284  -5.510 -27.296  1.00  0.00     0.197 C
BRANCH  23  24
HETATM   24  O7  UNL     1     -19.668  -4.686 -28.369  1.00  0.00    -0.397 OA
ATOM     25  H7  UNL     1     -19.923  -3.824 -28.059  1.00  0.00     0.209 HD
ENDBRANCH  23  24
ENDBRANCH  21  23
ENDBRANCH  19  20
ENDBRANCH  11  19
BRANCH   1  26
HETATM   26  O2  UNL     1     -11.996  -9.806 -21.777  1.00  0.00    -0.312 OA
BRANCH  26  27
HETATM   27  C2  UNL     1     -12.510  -9.592 -20.522  1.00  0.00     0.255 C
HETATM   28  C1  UNL     1     -13.858  -8.997 -20.378  1.00  0.00     0.126 C
HETATM   29  O1  UNL     1     -11.790  -9.920 -19.544  1.00  0.00    -0.266 OA
ENDBRANCH  26  27
ENDBRANCH   1  26
TORSDOF 6
ENDMDL