MODEL 3
REMARK VINA RESULT: -6.744273068      1.590      1.921
REMARK  5 active torsions:
REMARK  status: ('A' for Active; 'I' for Inactive)
REMARK    1  A    between atoms: C2_2  and  C3_3
REMARK    2  A    between atoms: C3_3  and  S1_4
REMARK    3  A    between atoms: S1_4  and  O2_6
REMARK    4  A    between atoms: O2_6  and  C4_7
REMARK    5  A    between atoms: C7_10  and  O3_11
ROOT
HETATM    1  C4  UNL     1     -15.292  -9.150 -27.186  1.00  0.00     0.196 C
HETATM    2  C5  UNL     1     -14.554 -10.239 -27.217  1.00  0.00     0.077 C
HETATM    3  C6  UNL     1     -13.855 -10.713 -25.995  1.00  0.00     0.015 C
HETATM    4  C7  UNL     1     -13.718 -12.012 -25.863  1.00  0.00     0.155 C
HETATM    5  C8  UNL     1     -13.086 -12.691 -24.796  1.00  0.00     0.125 C
HETATM    6  N1  UNL     1     -12.546 -13.280 -23.927  1.00  0.00    -0.189 NA
HETATM    7  C9  UNL     1     -13.382  -9.676 -25.042  1.00  0.00     0.124 C
HETATM    8  C10 UNL     1     -14.181  -8.381 -25.158  1.00  0.00     0.207 C
HETATM    9  O4  UNL     1     -15.345  -8.514 -25.940  1.00  0.00    -0.328 OA
HETATM   10  C11 UNL     1     -13.572 -10.121 -23.651  1.00  0.00     0.279 C
HETATM   11  O5  UNL     1     -14.638 -10.621 -23.249  1.00  0.00    -0.264 OA
HETATM   12  O6  UNL     1     -12.516  -9.974 -22.735  1.00  0.00    -0.319 OA
HETATM   13  C12 UNL     1     -11.747  -8.788 -22.858  1.00  0.00     0.191 C
HETATM   14  C13 UNL     1     -11.148  -8.730 -24.239  1.00  0.00     0.063 A
HETATM   15  C14 UNL     1      -9.770  -9.261 -24.093  1.00  0.00    -0.015 A
HETATM   16  C15 UNL     1      -9.194 -10.168 -24.842  1.00  0.00    -0.003 A
HETATM   17  C16 UNL     1     -10.033 -10.689 -25.925  1.00  0.00     0.000 A
HETATM   18  C17 UNL     1     -11.249 -10.295 -26.132  1.00  0.00     0.005 A
HETATM   19  C18 UNL     1     -11.936  -9.289 -25.313  1.00  0.00    -0.045 A
ENDROOT
BRANCH   4  20
HETATM   20  O3  UNL     1     -14.238 -12.847 -26.871  1.00  0.00    -0.351 OA
ATOM     21  H3  UNL     1     -15.018 -12.565 -27.334  1.00  0.00     0.218 HD
ENDBRANCH   4  20
BRANCH   1  22
HETATM   22  O2  UNL     1     -15.957  -8.685 -28.312  1.00  0.00    -0.228 OA
BRANCH  22  23
HETATM   23  S1  UNL     1     -17.579  -8.989 -28.620  1.00  0.00     0.159 S
HETATM   24  O1  UNL     1     -18.193  -7.645 -29.459  1.00  0.00    -0.228 OA
BRANCH  23  25
HETATM   25  C3  UNL     1     -17.814 -10.392 -29.681  1.00  0.00     0.140 C
BRANCH  25  26
HETATM   26  C2  UNL     1     -17.436 -11.678 -28.992  1.00  0.00     0.010 C
HETATM   27  C1  UNL     1     -17.797 -12.893 -29.803  1.00  0.00     0.006 C
ENDBRANCH  25  26
ENDBRANCH  23  25
ENDBRANCH  22  23
ENDBRANCH   1  22
TORSDOF 5
ENDMDL