MODEL 1
REMARK VINA RESULT: -7.763461431      0.000      0.000
REMARK  5 active torsions:
REMARK  status: ('A' for Active; 'I' for Inactive)
REMARK    1  A    between atoms: C1_2  and  C2_3
REMARK       I    between atoms: C1_2  and  N3_17
REMARK    2  A    between atoms: C2_3  and  N1_4
REMARK    3  A    between atoms: N2_8  and  C4_9
REMARK    4  A    between atoms: N3_17  and  C11_19
REMARK    5  A    between atoms: N5_22  and  C12_23
ROOT
HETATM    1  O1  UNL     1     -13.872 -12.545 -24.998  1.00  0.00    -0.271 OA
HETATM    2  C1  UNL     1     -13.185 -11.787 -25.722  1.00  0.00     0.244 C
HETATM    3  N3  UNL     1     -12.369 -10.813 -25.166  1.00  0.00    -0.304 N
ATOM      4  H3  UNL     1     -11.481 -10.677 -25.647  1.00  0.00     0.171 HD
ENDROOT
BRANCH   2   5
HETATM    5  C2  UNL     1     -13.272 -11.972 -27.212  1.00  0.00     0.265 C
BRANCH   5   6
HETATM    6  N1  UNL     1     -14.568 -11.452 -27.635  1.00  0.00    -0.188 N
HETATM    7  O2  UNL     1     -15.542 -12.117 -28.113  1.00  0.00    -0.173 OA
HETATM    8  C3  UNL     1     -16.572 -11.366 -28.394  1.00  0.00     0.398 A
HETATM    9  O3  UNL     1     -17.661 -11.721 -28.869  1.00  0.00    -0.235 OA
HETATM   10  N2  UNL     1     -16.250 -10.089 -28.073  1.00  0.00    -0.206 N
HETATM   11  C10 UNL     1     -14.982 -10.173 -27.598  1.00  0.00     0.358 A
HETATM   12  O4  UNL     1     -14.350  -9.156 -27.198  1.00  0.00    -0.244 OA
BRANCH  10  13
HETATM   13  C4  UNL     1     -17.065  -8.916 -28.195  1.00  0.00     0.049 A
HETATM   14  C5  UNL     1     -17.760  -8.686 -29.359  1.00  0.00     0.030 A
HETATM   15  C6  UNL     1     -18.549  -7.561 -29.481  1.00  0.00     0.002 A
HETATM   16  C7  UNL     1     -18.618  -6.688 -28.417  1.00  0.00     0.000 A
HETATM   17  C8  UNL     1     -17.918  -6.916 -27.242  1.00  0.00     0.002 A
HETATM   18  C9  UNL     1     -17.149  -8.034 -27.152  1.00  0.00     0.030 A
ENDBRANCH  10  13
ENDBRANCH   5   6
ENDBRANCH   2   5
BRANCH   3  19
HETATM   19  C11 UNL     1     -12.545 -10.067 -24.165  1.00  0.00     0.185 A
HETATM   20  S1  UNL     1     -12.431 -10.559 -22.522  1.00  0.00     0.039 SA
HETATM   21  N4  UNL     1     -12.840  -8.960 -22.479  1.00  0.00    -0.049 NA
HETATM   22  N5  UNL     1     -12.871  -8.802 -23.799  1.00  0.00    -0.226 N
BRANCH  22  23
HETATM   23  C12 UNL     1     -13.157  -7.627 -24.548  1.00  0.00     0.056 A
HETATM   24  C13 UNL     1     -12.206  -6.933 -25.278  1.00  0.00     0.031 A
HETATM   25  C14 UNL     1     -12.523  -5.809 -26.000  1.00  0.00     0.002 A
HETATM   26  C15 UNL     1     -13.805  -5.310 -26.036  1.00  0.00     0.000 A
HETATM   27  C16 UNL     1     -14.778  -5.976 -25.319  1.00  0.00     0.002 A
HETATM   28  C17 UNL     1     -14.450  -7.103 -24.599  1.00  0.00     0.031 A
ENDBRANCH  22  23
ENDBRANCH   3  19
TORSDOF 5
ENDMDL