MODEL 4
REMARK VINA RESULT: -5.969707750      3.159      7.013
REMARK  6 active torsions:
REMARK  status: ('A' for Active; 'I' for Inactive)
REMARK    1  A    between atoms: S1_2  and  N1_5
REMARK    2  A    between atoms: N1_5  and  C2_7
REMARK    3  A    between atoms: C4_9  and  C5_10
REMARK    4  A    between atoms: C6_13  and  C7_14
REMARK    5  A    between atoms: C7_14  and  C8_15
REMARK    6  A    between atoms: C7_14  and  N4_20
ROOT
HETATM    1  C8  UNL     1     -14.424 -10.475 -24.281  1.00  0.00     0.158 C
HETATM    2  C9  UNL     1     -14.443  -9.888 -22.988  1.00  0.00     0.113 C
HETATM    3  N2  UNL     1     -14.477  -9.425 -21.933  1.00  0.00    -0.191 NA
HETATM    4  C10 UNL     1     -14.031 -11.857 -24.425  1.00  0.00     0.113 C
HETATM    5  N3  UNL     1     -13.703 -12.952 -24.523  1.00  0.00    -0.191 NA
ENDROOT
BRANCH   1   6
HETATM    6  C7  UNL     1     -14.252  -9.682 -25.491  1.00  0.00     0.146 C
BRANCH   6   7
HETATM    7  C6  UNL     1     -14.832  -8.725 -26.180  1.00  0.00     0.028 A
HETATM    8  C4  UNL     1     -15.041  -7.369 -25.727  1.00  0.00     0.056 A
HETATM    9  C3  UNL     1     -16.027  -6.533 -26.102  1.00  0.00     0.051 A
HETATM   10  C2  UNL     1     -16.992  -7.015 -27.064  1.00  0.00     0.061 A
HETATM   11  C14 UNL     1     -16.837  -8.373 -27.577  1.00  0.00     0.043 A
HETATM   12  C11 UNL     1     -15.860  -9.257 -27.232  1.00  0.00    -0.002 A
HETATM   13  S2  UNL     1     -17.818  -9.227 -28.705  1.00  0.00    -0.099 SA
HETATM   14  C12 UNL     1     -15.936 -10.457 -27.823  1.00  0.00     0.021 A
HETATM   15  C13 UNL     1     -16.989 -10.680 -28.723  1.00  0.00     0.051 A
BRANCH   8  16
HETATM   16  C5  UNL     1     -14.145  -6.697 -24.780  1.00  0.00     0.210 C
HETATM   17  O3  UNL     1     -14.256  -6.540 -23.578  1.00  0.00    -0.644 OA
HETATM   18  O4  UNL     1     -12.953  -6.118 -25.283  1.00  0.00    -0.644 OA
ENDBRANCH   8  16
BRANCH  10  19
HETATM   19  N1  UNL     1     -17.979  -6.300 -27.487  1.00  0.00    -0.283 N
ATOM     20  H1  UNL     1     -18.720  -6.745 -28.029  1.00  0.00     0.178 HD
BRANCH  19  21
HETATM   21  S1  UNL     1     -18.075  -4.621 -27.159  1.00  0.00     0.227 S
HETATM   22  C1  UNL     1     -19.259  -4.316 -25.883  1.00  0.00     0.186 C
HETATM   23  O1  UNL     1     -16.729  -4.055 -26.738  1.00  0.00    -0.206 OA
HETATM   24  O2  UNL     1     -18.488  -3.921 -28.451  1.00  0.00    -0.206 OA
ENDBRANCH  19  21
ENDBRANCH  10  19
ENDBRANCH   6   7
BRANCH   6  25
HETATM   25  N4  UNL     1     -12.745  -9.783 -25.762  1.00  0.00    -0.112 N
HETATM   26  O5  UNL     1     -12.043  -9.189 -24.985  1.00  0.00    -0.532 OA
HETATM   27  O6  UNL     1     -12.394 -10.580 -26.759  1.00  0.00    -0.532 OA
ENDBRANCH   6  25
ENDBRANCH   1   6
TORSDOF 6
ENDMDL