MODEL 3
REMARK VINA RESULT: -4.821081668      1.819      1.981
REMARK  7 active torsions:
REMARK  status: ('A' for Active; 'I' for Inactive)
REMARK    1  A    between atoms: N1_2  and  C2_4
REMARK    2  A    between atoms: C3_9  and  C4_10
REMARK    3  A    between atoms: C4_10  and  N4_11
REMARK    4  A    between atoms: N4_11  and  C5_14
REMARK    5  A    between atoms: C5_14  and  C6_15
REMARK    6  A    between atoms: C6_15  and  C7_16
REMARK    7  A    between atoms: C7_16  and  N5_17
ROOT
HETATM    1  C2  UNL     1      18.822   2.223   3.801  1.00  0.00     0.693 A
HETATM    2  N2  UNL     1      18.713   0.945   4.184  1.00  0.00    -0.131 N
ATOM      3  H2  UNL     1      19.490   0.312   4.374  1.00  0.00     0.205 HD
HETATM    4  N3  UNL     1      17.408   0.633   4.275  1.00  0.00    -0.273 N
ATOM      5  H3  UNL     1      17.037  -0.278   4.542  1.00  0.00     0.189 HD
HETATM    6  C3  UNL     1      16.697   1.673   3.972  1.00  0.00     0.138 A
HETATM    7  N6  UNL     1      17.581   2.669   3.676  1.00  0.00    -0.176 N
ATOM      8  H6  UNL     1      17.325   3.617   3.399  1.00  0.00     0.185 HD
ENDROOT
BRANCH   6   9
HETATM    9  C4  UNL     1      15.209   1.924   3.928  1.00  0.00     0.310 C
BRANCH   9  10
HETATM   10  N4  UNL     1      15.047   3.325   4.318  1.00  0.00    -0.068 N
ATOM     11  H42 UNL     1      14.882   3.412   5.322  1.00  0.00     0.277 HD
ATOM     12  H41 UNL     1      15.931   3.830   4.254  1.00  0.00     0.277 HD
BRANCH  10  13
HETATM   13  C5  UNL     1      14.033   3.976   3.576  1.00  0.00     0.234 C
BRANCH  13  14
HETATM   14  C6  UNL     1      13.231   5.067   4.138  1.00  0.00     0.055 C
BRANCH  14  15
HETATM   15  C7  UNL     1      11.961   4.368   4.683  1.00  0.00     0.231 C
BRANCH  15  16
HETATM   16  N5  UNL     1      11.295   5.140   5.684  1.00  0.00    -0.079 N
ATOM     17  H53 UNL     1      11.064   6.070   5.336  1.00  0.00     0.274 HD
ATOM     18  H52 UNL     1      10.352   4.788   5.851  1.00  0.00     0.274 HD
ATOM     19  H51 UNL     1      11.823   5.196   6.554  1.00  0.00     0.274 HD
ENDBRANCH  15  16
ENDBRANCH  14  15
ENDBRANCH  13  14
ENDBRANCH  10  13
ENDBRANCH   9  10
ENDBRANCH   6   9
BRANCH   1  20
HETATM   20  N1  UNL     1      19.958   2.786   3.635  1.00  0.00    -0.229 N
HETATM   21  C1  UNL     1      20.467   3.970   4.216  1.00  0.00     0.165 C
ATOM     22  H1  UNL     1      20.589   2.312   2.988  1.00  0.00     0.177 HD
ENDBRANCH   1  20
TORSDOF 7
ENDMDL