MODEL 2
REMARK VINA RESULT: -4.707658253      1.665      5.118
REMARK  7 active torsions:
REMARK  status: ('A' for Active; 'I' for Inactive)
REMARK    1  A    between atoms: N1_2  and  C2_5
REMARK    2  A    between atoms: C2_5  and  C3_6
REMARK    3  A    between atoms: C3_6  and  C4_7
REMARK    4  A    between atoms: C4_7  and  N2_8
REMARK    5  A    between atoms: N2_8  and  C5_11
REMARK    6  A    between atoms: C7_13  and  N3_14
REMARK    7  A    between atoms: C8_18  and  N4_19
ROOT
HETATM    1  C5  UNL     1      16.623   4.136   2.389  1.00  0.00     0.190 C
HETATM    2  C6  UNL     1      15.562   3.156   2.791  1.00  0.00     0.067 C
HETATM    3  C7  UNL     1      14.945   3.823   4.029  1.00  0.00     0.215 C
HETATM    4  C8  UNL     1      15.009   5.287   3.598  1.00  0.00     0.215 C
HETATM    5  C9  UNL     1      16.521   5.345   3.288  1.00  0.00     0.067 C
ENDROOT
BRANCH   1   6
HETATM    6  N2  UNL     1      17.897   3.511   2.356  1.00  0.00    -0.071 N
ATOM      7  H22 UNL     1      18.348   3.609   1.447  1.00  0.00     0.277 HD
ATOM      8  H21 UNL     1      17.827   2.494   2.377  1.00  0.00     0.277 HD
BRANCH   6   9
HETATM    9  C4  UNL     1      18.721   4.021   3.430  1.00  0.00     0.234 C
BRANCH   9  10
HETATM   10  C3  UNL     1      19.529   2.886   4.053  1.00  0.00     0.055 C
BRANCH  10  11
HETATM   11  C2  UNL     1      18.502   1.951   4.686  1.00  0.00     0.233 C
BRANCH  11  12
HETATM   12  N1  UNL     1      18.497   0.637   4.095  1.00  0.00    -0.079 N
HETATM   13  C1  UNL     1      17.286  -0.114   4.383  1.00  0.00     0.266 C
ATOM     14  H12 UNL     1      19.326   0.111   4.373  1.00  0.00     0.276 HD
ATOM     15  H11 UNL     1      18.661   0.690   3.090  1.00  0.00     0.276 HD
ENDBRANCH  11  12
ENDBRANCH  10  11
ENDBRANCH   9  10
ENDBRANCH   6   9
ENDBRANCH   1   6
BRANCH   3  16
HETATM   16  N3  UNL     1      13.622   3.389   4.309  1.00  0.00    -0.073 N
ATOM     17  H33 UNL     1      12.994   4.187   4.407  1.00  0.00     0.274 HD
ATOM     18  H32 UNL     1      13.207   2.946   3.490  1.00  0.00     0.274 HD
ATOM     19  H31 UNL     1      13.557   2.777   5.122  1.00  0.00     0.274 HD
ENDBRANCH   3  16
BRANCH   4  20
HETATM   20  N4  UNL     1      14.340   5.373   2.331  1.00  0.00    -0.073 N
ATOM     21  H43 UNL     1      13.378   5.702   2.405  1.00  0.00     0.274 HD
ATOM     22  H42 UNL     1      14.689   6.130   1.742  1.00  0.00     0.274 HD
ATOM     23  H41 UNL     1      14.418   4.455   1.894  1.00  0.00     0.274 HD
ENDBRANCH   4  20
TORSDOF 7
ENDMDL