MODEL 2
REMARK VINA RESULT: -4.990045118      2.612      3.856
REMARK  8 active torsions:
REMARK  status: ('A' for Active; 'I' for Inactive)
REMARK    1  A    between atoms: N1_1  and  C1_5
REMARK    2  A    between atoms: C1_5  and  C2_6
REMARK    3  A    between atoms: C2_6  and  C3_7
REMARK    4  A    between atoms: C3_7  and  C4_8
REMARK    5  A    between atoms: C4_8  and  N2_9
REMARK    6  A    between atoms: N2_9  and  C5_11
REMARK    7  A    between atoms: C6_14  and  C7_15
REMARK    8  A    between atoms: C7_15  and  N4_16
ROOT
HETATM    1  C5  UNL     1      17.831   2.071   4.326  1.00  0.00     0.694 A
HETATM    2  N3  UNL     1      18.665   3.142   4.157  1.00  0.00    -0.176 N
ATOM      3  H3  UNL     1      18.404   4.109   4.347  1.00  0.00     0.185 HD
HETATM    4  C6  UNL     1      19.857   2.763   3.715  1.00  0.00     0.138 A
HETATM    5  N5  UNL     1      19.796   1.427   3.594  1.00  0.00    -0.273 N
ATOM      6  H5  UNL     1      20.555   0.825   3.274  1.00  0.00     0.189 HD
HETATM    7  N6  UNL     1      18.571   1.013   3.964  1.00  0.00    -0.131 N
ATOM      8  H6  UNL     1      18.253   0.044   3.969  1.00  0.00     0.205 HD
ENDROOT
BRANCH   1   9
HETATM    9  N2  UNL     1      16.614   2.113   4.740  1.00  0.00    -0.225 N
ATOM     10  H2  UNL     1      16.443   2.353   5.717  1.00  0.00     0.177 HD
BRANCH   9  11
HETATM   11  C4  UNL     1      15.495   1.843   3.905  1.00  0.00     0.138 C
BRANCH  11  12
HETATM   12  C3  UNL     1      15.113   3.021   3.028  1.00  0.00     0.022 C
BRANCH  12  13
HETATM   13  C2  UNL     1      14.208   3.989   3.751  1.00  0.00     0.029 C
BRANCH  13  14
HETATM   14  C1  UNL     1      14.611   5.397   3.386  1.00  0.00     0.229 C
BRANCH  14  15
HETATM   15  N1  UNL     1      16.064   5.410   3.264  1.00  0.00    -0.079 N
ATOM     16  H13 UNL     1      16.477   4.479   3.312  1.00  0.00     0.274 HD
ATOM     17  H12 UNL     1      16.383   5.647   2.324  1.00  0.00     0.274 HD
ATOM     18  H11 UNL     1      16.420   6.044   3.979  1.00  0.00     0.274 HD
ENDBRANCH  14  15
ENDBRANCH  13  14
ENDBRANCH  12  13
ENDBRANCH  11  12
ENDBRANCH   9  11
ENDBRANCH   1   9
BRANCH   4  19
HETATM   19  C7  UNL     1      21.066   3.555   3.391  1.00  0.00     0.307 C
BRANCH  19  20
HETATM   20  N4  UNL     1      22.143   2.745   2.896  1.00  0.00    -0.073 N
ATOM     21  H43 UNL     1      22.725   2.403   3.660  1.00  0.00     0.274 HD
ATOM     22  H42 UNL     1      21.797   1.854   2.540  1.00  0.00     0.274 HD
ATOM     23  H41 UNL     1      22.707   3.225   2.194  1.00  0.00     0.274 HD
ENDBRANCH  19  20
ENDBRANCH   4  19
TORSDOF 8
ENDMDL