MODEL 1
REMARK VINA RESULT: -4.789639446      0.000      0.000
REMARK  5 active torsions:
REMARK  status: ('A' for Active; 'I' for Inactive)
REMARK    1  A    between atoms: N1_2  and  C2_4
REMARK    2  A    between atoms: C2_4  and  C3_5
REMARK    3  A    between atoms: C3_5  and  N2_6
REMARK    4  A    between atoms: N2_6  and  C4_9
REMARK    5  A    between atoms: C8_16  and  N4_17
ROOT
HETATM    1  C4  UNL     1      15.700   3.318   3.680  1.00  0.00     0.242 C
HETATM    2  C5  UNL     1      16.647   3.968   2.738  1.00  0.00     0.267 C
HETATM    3  N3  UNL     1      16.747   5.379   3.159  1.00  0.00    -0.073 N
ATOM      4  H31 UNL     1      17.479   5.873   2.647  1.00  0.00     0.277 HD
ATOM      5  H32 UNL     1      17.130   5.464   4.100  1.00  0.00     0.277 HD
HETATM    6  C6  UNL     1      15.480   6.043   3.041  1.00  0.00     0.234 C
HETATM    7  C7  UNL     1      14.385   5.145   2.547  1.00  0.00     0.062 C
HETATM    8  C8  UNL     1      14.306   3.835   3.313  1.00  0.00     0.219 C
ENDROOT
BRANCH   1   9
HETATM    9  N2  UNL     1      15.628   1.868   3.573  1.00  0.00    -0.063 N
ATOM     10  H22 UNL     1      15.995   1.552   2.675  1.00  0.00     0.278 HD
ATOM     11  H21 UNL     1      14.661   1.559   3.478  1.00  0.00     0.278 HD
BRANCH   9  12
HETATM   12  C3  UNL     1      16.272   1.192   4.649  1.00  0.00     0.277 C
BRANCH  12  13
HETATM   13  C2  UNL     1      17.598   0.667   4.264  1.00  0.00     0.082 C
BRANCH  13  14
HETATM   14  N1  UNL     1      18.765   1.319   4.649  1.00  0.00    -0.405 N
HETATM   15  C1  UNL     1      19.498   2.124   3.762  1.00  0.00     0.145 C
ATOM     16  H1  UNL     1      19.099   1.208   5.606  1.00  0.00     0.158 HD
ENDBRANCH  13  14
ENDBRANCH  12  13
ENDBRANCH   9  12
ENDBRANCH   1   9
BRANCH   8  17
HETATM   17  N4  UNL     1      13.535   3.983   4.511  1.00  0.00    -0.073 N
HETATM   18  C9  UNL     1      12.204   4.490   4.207  1.00  0.00     0.267 C
ATOM     19  H42 UNL     1      13.495   3.114   5.044  1.00  0.00     0.277 HD
ATOM     20  H41 UNL     1      14.013   4.564   5.199  1.00  0.00     0.277 HD
ENDBRANCH   8  17
TORSDOF 5
ENDMDL