MODEL 4
REMARK VINA RESULT: -5.740462099      2.090      2.411
REMARK  8 active torsions:
REMARK  status: ('A' for Active; 'I' for Inactive)
REMARK    1  A    between atoms: C2_2  and  C4_4
REMARK    2  A    between atoms: C4_4  and  C5_5
REMARK    3  A    between atoms: C5_5  and  O1_6
REMARK    4  A    between atoms: C5_5  and  C6_8
REMARK    5  A    between atoms: C6_8  and  C7_9
REMARK    6  A    between atoms: C6_8  and  C8_13
REMARK    7  A    between atoms: C9_15  and  N2_16
REMARK    8  A    between atoms: N2_16  and  N3_17
ROOT
HETATM    1  C6  UNL     1      17.684   3.214   3.650  1.00  0.00     0.085 C
ENDROOT
BRANCH   1   2
HETATM    2  C5  UNL     1      16.189   2.865   3.596  1.00  0.00     0.130 C
BRANCH   2   3
HETATM    3  C4  UNL     1      15.591   3.607   2.456  1.00  0.00     0.036 C
BRANCH   3   4
HETATM    4  C2  UNL     1      14.537   4.593   2.748  1.00  0.00    -0.020 C
HETATM    5  C1  UNL     1      13.697   4.292   3.965  1.00  0.00     0.009 C
HETATM    6  C3  UNL     1      15.029   6.013   2.909  1.00  0.00     0.009 C
ENDBRANCH   3   4
ENDBRANCH   2   3
BRANCH   2   7
HETATM    7  O1  UNL     1      16.011   1.506   3.437  1.00  0.00    -0.395 OA
ATOM      8  H1  UNL     1      16.496   1.026   4.098  1.00  0.00     0.210 HD
ENDBRANCH   2   7
ENDBRANCH   1   2
BRANCH   1   9
HETATM    9  C7  UNL     1      18.428   1.922   3.682  1.00  0.00     0.062 C
HETATM   10  N1  UNL     1      18.811   1.362   4.759  1.00  0.00    -0.411 N
ATOM     11  H12 UNL     1      18.590   1.834   5.636  1.00  0.00     0.155 HD
ATOM     12  H11 UNL     1      19.320   0.479   4.781  1.00  0.00     0.155 HD
ENDBRANCH   1   9
BRANCH   1  13
HETATM   13  C8  UNL     1      18.157   3.967   2.452  1.00  0.00     0.181 A
HETATM   14  O2  UNL     1      18.546   5.336   2.744  1.00  0.00    -0.355 OA
HETATM   15  C9  UNL     1      19.489   4.422   2.176  1.00  0.00     0.264 A
BRANCH  15  16
HETATM   16  N2  UNL     1      19.792   4.817   0.796  1.00  0.00    -0.113 NA
BRANCH  16  17
HETATM   17  N3  UNL     1      19.954   6.182   0.744  1.00  0.00    -0.346 N
ATOM     18  H32 UNL     1      20.855   6.657   0.683  1.00  0.00     0.172 HD
ATOM     19  H31 UNL     1      19.038   6.629   0.777  1.00  0.00     0.172 HD
ENDBRANCH  16  17
ENDBRANCH  15  16
ENDBRANCH   1  13
TORSDOF 8
ENDMDL