MODEL 3
REMARK VINA RESULT: -5.164295384      2.837      6.032
REMARK  7 active torsions:
REMARK  status: ('A' for Active; 'I' for Inactive)
REMARK    1  A    between atoms: O1_2  and  C2_3
REMARK    2  A    between atoms: C2_3  and  N1_4
REMARK    3  A    between atoms: N1_4  and  C3_6
REMARK    4  A    between atoms: C3_6  and  C4_7
REMARK    5  A    between atoms: C4_7  and  N2_8
REMARK    6  A    between atoms: N2_8  and  C5_10
REMARK    7  A    between atoms: C8_15  and  N4_16
ROOT
HETATM    1  C5  UNL     1      16.682   2.806   4.041  1.00  0.00     0.122 A
HETATM    2  C6  UNL     1      17.952   3.320   3.718  1.00  0.00     0.066 A
HETATM    3  C7  UNL     1      19.003   2.468   3.677  1.00  0.00     0.110 A
HETATM    4  N3  UNL     1      18.874   1.154   3.934  1.00  0.00    -0.202 N
ATOM      5  H3  UNL     1      19.690   0.543   3.893  1.00  0.00     0.183 HD
HETATM    6  C8  UNL     1      17.661   0.643   4.245  1.00  0.00     0.677 A
HETATM    7  N5  UNL     1      16.613   1.496   4.286  1.00  0.00    -0.177 N
ATOM      8  H5  UNL     1      15.699   1.108   4.522  1.00  0.00     0.185 HD
ENDROOT
BRANCH   1   9
HETATM    9  N2  UNL     1      15.718   3.558   4.070  1.00  0.00    -0.351 N
ATOM     10  H2  UNL     1      15.017   3.259   4.747  1.00  0.00     0.166 HD
BRANCH   9  11
HETATM   11  C4  UNL     1      15.340   4.735   3.399  1.00  0.00     0.106 C
BRANCH  11  12
HETATM   12  C3  UNL     1      14.073   5.181   4.106  1.00  0.00     0.102 C
BRANCH  12  13
HETATM   13  N1  UNL     1      12.852   4.804   3.519  1.00  0.00    -0.377 N
ATOM     14  H1  UNL     1      12.647   4.822   2.520  1.00  0.00     0.161 HD
BRANCH  13  15
HETATM   15  C2  UNL     1      11.928   4.383   4.558  1.00  0.00     0.289 C
BRANCH  15  16
HETATM   16  O1  UNL     1      11.673   5.487   5.337  1.00  0.00    -0.377 OA
HETATM   17  C1  UNL     1      10.906   5.197   6.417  1.00  0.00     0.203 C
ENDBRANCH  15  16
ENDBRANCH  13  15
ENDBRANCH  12  13
ENDBRANCH  11  12
ENDBRANCH   9  11
ENDBRANCH   1   9
BRANCH   6  18
HETATM   18  N4  UNL     1      17.515  -0.622   4.463  1.00  0.00    -0.234 N
ATOM     19  H42 UNL     1      16.671  -0.997   4.896  1.00  0.00     0.174 HD
ATOM     20  H41 UNL     1      18.238  -1.285   4.183  1.00  0.00     0.174 HD
ENDBRANCH   6  18
TORSDOF 7
ENDMDL