MODEL 3
REMARK VINA RESULT: -5.019641486      1.653      4.730
REMARK  6 active torsions:
REMARK  status: ('A' for Active; 'I' for Inactive)
REMARK    1  A    between atoms: C2_4  and  N2_5
REMARK    2  A    between atoms: N2_5  and  C3_7
REMARK    3  A    between atoms: C3_7  and  C4_8
REMARK    4  A    between atoms: C4_8  and  N3_9
REMARK    5  A    between atoms: N3_9  and  C5_12
REMARK    6  A    between atoms: C5_12  and  C6_13
ROOT
HETATM    1  C3  UNL     1      17.296   2.076   4.807  1.00  0.00     0.165 C
ENDROOT
BRANCH   1   2
HETATM    2  N2  UNL     1      16.015   2.356   4.220  1.00  0.00    -0.223 N
ATOM      3  H2  UNL     1      15.367   1.589   4.041  1.00  0.00     0.177 HD
BRANCH   2   4
HETATM    4  C2  UNL     1      15.672   3.566   3.914  1.00  0.00     0.693 A
HETATM    5  N1  UNL     1      14.558   4.223   4.253  1.00  0.00    -0.185 N
HETATM    6  C1  UNL     1      14.602   5.469   3.723  1.00  0.00     0.215 A
ATOM      7  H1  UNL     1      13.799   3.847   4.820  1.00  0.00     0.185 HD
HETATM    8  N6  UNL     1      15.759   5.561   3.054  1.00  0.00    -0.281 N
HETATM    9  N5  UNL     1      16.399   4.410   3.174  1.00  0.00    -0.131 N
ATOM     10  H6  UNL     1      16.090   6.379   2.541  1.00  0.00     0.188 HD
ATOM     11  H5  UNL     1      17.308   4.198   2.764  1.00  0.00     0.205 HD
ENDBRANCH   2   4
ENDBRANCH   1   2
BRANCH   1  12
HETATM   12  C4  UNL     1      18.136   1.206   3.927  1.00  0.00     0.252 C
BRANCH  12  13
HETATM   13  N3  UNL     1      19.451   1.782   3.826  1.00  0.00    -0.073 N
ATOM     14  H32 UNL     1      20.172   1.132   4.140  1.00  0.00     0.277 HD
ATOM     15  H31 UNL     1      19.744   1.881   2.855  1.00  0.00     0.277 HD
BRANCH  13  16
HETATM   16  C5  UNL     1      19.522   3.039   4.534  1.00  0.00     0.240 C
BRANCH  16  17
HETATM   17  C6  UNL     1      20.474   3.958   3.843  1.00  0.00     0.062 C
HETATM   18  C7  UNL     1      21.602   3.317   3.095  1.00  0.00     0.240 C
HETATM   19  N4  UNL     1      21.313   4.236   1.986  1.00  0.00    -0.074 N
HETATM   20  C8  UNL     1      19.944   4.326   2.463  1.00  0.00     0.240 C
ATOM     21  H42 UNL     1      21.873   5.078   1.850  1.00  0.00     0.277 HD
ATOM     22  H41 UNL     1      21.511   3.965   1.022  1.00  0.00     0.277 HD
ENDBRANCH  16  17
ENDBRANCH  13  16
ENDBRANCH  12  13
ENDBRANCH   1  12
TORSDOF 6
ENDMDL