MODEL 1
REMARK VINA RESULT: -5.317534950      0.000      0.000
REMARK  7 active torsions:
REMARK  status: ('A' for Active; 'I' for Inactive)
REMARK    1  A    between atoms: C4_4  and  C5_5
REMARK    2  A    between atoms: C5_5  and  C6_6
REMARK    3  A    between atoms: C6_6  and  N1_7
REMARK    4  A    between atoms: N1_7  and  C7_9
REMARK    5  A    between atoms: C7_9  and  N2_10
REMARK    6  A    between atoms: C7_9  and  C8_14
REMARK    7  A    between atoms: C8_14  and  N3_15
ROOT
HETATM    1  N1  UNL     1      14.289   2.761   4.285  1.00  0.00    -0.394 N
ATOM      2  H1  UNL     1      13.885   2.382   5.142  1.00  0.00     0.155 HD
ENDROOT
BRANCH   1   3
HETATM    3  C6  UNL     1      15.269   2.051   3.543  1.00  0.00     0.122 C
BRANCH   3   4
HETATM    4  C5  UNL     1      16.117   1.126   4.397  1.00  0.00     0.078 C
BRANCH   4   5
HETATM    5  C4  UNL     1      17.523   1.538   4.194  1.00  0.00     0.029 A
HETATM    6  C3  UNL     1      18.021   2.802   4.357  1.00  0.00     0.052 A
HETATM    7  C2  UNL     1      19.371   2.729   4.066  1.00  0.00     0.024 A
HETATM    8  C1  UNL     1      20.332   3.840   4.105  1.00  0.00     0.070 C
HETATM    9  N5  UNL     1      19.618   1.455   3.747  1.00  0.00    -0.305 N
HETATM   10  N4  UNL     1      18.515   0.732   3.820  1.00  0.00    -0.305 N
ATOM     11  H5  UNL     1      20.533   1.090   3.484  1.00  0.00     0.186 HD
ATOM     12  H4  UNL     1      18.438  -0.266   3.625  1.00  0.00     0.186 HD
ENDBRANCH   4   5
ENDBRANCH   3   4
ENDBRANCH   1   3
BRANCH   1  13
HETATM   13  C7  UNL     1      13.897   4.033   3.769  1.00  0.00     0.303 C
BRANCH  13  14
HETATM   14  N2  UNL     1      12.599   4.454   4.280  1.00  0.00    -0.057 N
ATOM     15  H23 UNL     1      12.691   4.932   5.176  1.00  0.00     0.276 HD
ATOM     16  H22 UNL     1      12.214   5.220   3.727  1.00  0.00     0.276 HD
ATOM     17  H21 UNL     1      11.942   3.676   4.341  1.00  0.00     0.276 HD
ENDBRANCH  13  14
BRANCH  13  18
HETATM   18  C8  UNL     1      14.948   5.063   3.991  1.00  0.00     0.283 C
BRANCH  18  19
HETATM   19  N3  UNL     1      15.180   5.955   2.903  1.00  0.00    -0.076 N
ATOM     20  H33 UNL     1      15.873   5.557   2.269  1.00  0.00     0.274 HD
ATOM     21  H32 UNL     1      14.365   5.977   2.291  1.00  0.00     0.274 HD
ATOM     22  H31 UNL     1      15.448   6.906   3.160  1.00  0.00     0.274 HD
ENDBRANCH  18  19
ENDBRANCH  13  18
ENDBRANCH   1  13
TORSDOF 7
ENDMDL