MODEL 1
REMARK VINA RESULT: -5.153756351      0.000      0.000
REMARK  6 active torsions:
REMARK  status: ('A' for Active; 'I' for Inactive)
REMARK    1  A    between atoms: O1_2  and  C2_3
REMARK    2  A    between atoms: C2_3  and  N1_4
REMARK    3  A    between atoms: C2_3  and  C3_8
REMARK    4  A    between atoms: C5_10  and  C6_11
REMARK    5  A    between atoms: C6_11  and  C8_13
REMARK    6  A    between atoms: C8_13  and  N2_14
ROOT
HETATM    1  C6  UNL     1      15.745   4.072   3.670  1.00  0.00     0.052 C
HETATM    2  C7  UNL     1      15.082   4.955   2.633  1.00  0.00     0.015 C
ENDROOT
BRANCH   1   3
HETATM    3  C5  UNL     1      17.033   3.595   3.074  1.00  0.00     0.002 A
HETATM    4  C3  UNL     1      18.259   3.441   3.888  1.00  0.00     0.047 A
HETATM    5  C4  UNL     1      18.108   4.675   3.004  1.00  0.00     0.015 A
BRANCH   4   6
HETATM    6  C2  UNL     1      19.302   2.473   3.357  1.00  0.00     0.322 C
BRANCH   6   7
HETATM    7  O1  UNL     1      20.514   2.688   4.010  1.00  0.00    -0.364 OA
HETATM    8  C1  UNL     1      21.429   3.229   3.137  1.00  0.00     0.204 C
ENDBRANCH   6   7
BRANCH   6   9
HETATM    9  N1  UNL     1      18.875   1.117   3.737  1.00  0.00    -0.053 N
ATOM     10  H13 UNL     1      19.637   0.529   4.074  1.00  0.00     0.277 HD
ATOM     11  H12 UNL     1      18.313   1.091   4.588  1.00  0.00     0.277 HD
ATOM     12  H11 UNL     1      18.397   0.737   2.920  1.00  0.00     0.277 HD
ENDBRANCH   6   9
ENDBRANCH   4   6
ENDBRANCH   1   3
BRANCH   1  13
HETATM   13  C8  UNL     1      14.795   2.929   3.976  1.00  0.00     0.311 A
HETATM   14  C9  UNL     1      14.945   1.666   3.289  1.00  0.00     0.305 A
HETATM   15  N3  UNL     1      15.323   1.790   4.701  1.00  0.00    -0.035 N
ATOM     16  H32 UNL     1      16.165   1.604   5.247  1.00  0.00     0.280 HD
ATOM     17  H31 UNL     1      15.078   1.302   5.564  1.00  0.00     0.280 HD
BRANCH  13  18
HETATM   18  N2  UNL     1      13.447   3.322   4.354  1.00  0.00    -0.042 N
ATOM     19  H23 UNL     1      13.482   4.049   5.070  1.00  0.00     0.277 HD
ATOM     20  H22 UNL     1      13.007   3.841   3.594  1.00  0.00     0.277 HD
ATOM     21  H21 UNL     1      12.838   2.562   4.657  1.00  0.00     0.277 HD
ENDBRANCH  13  18
ENDBRANCH   1  13
TORSDOF 6
ENDMDL