MODEL 2
REMARK VINA RESULT: -9.458517295      0.808      1.020
REMARK  10 active torsions:
REMARK  status: ('A' for Active; 'I' for Inactive)
REMARK    1  A    between atoms: C6_12  and  C7_13
REMARK    2  A    between atoms: C7_13  and  C8_14
REMARK    3  A    between atoms: C8_14  and  C9_15
REMARK    4  A    between atoms: C8_14  and  N8_39
REMARK    5  A    between atoms: C9_15  and  C10_16
REMARK    6  A    between atoms: C19_29  and  N5_30
REMARK    7  A    between atoms: N8_39  and  C24_42
REMARK    8  A    between atoms: C24_42  and  C25_43
REMARK    9  A    between atoms: C25_43  and  C26_44
REMARK   10  A    between atoms: C26_44  and  N9_45
ROOT
HETATM    1  C8  UNL     1      16.408   5.628  24.934  1.00  0.00     0.195 C
ENDROOT
BRANCH   1   2
HETATM    2  C7  UNL     1      14.999   6.164  24.732  1.00  0.00     0.062 C
BRANCH   2   3
HETATM    3  C6  UNL     1      14.914   7.572  24.408  1.00  0.00     0.007 C
HETATM    4  C5  UNL     1      14.551   8.673  24.966  1.00  0.00     0.057 A
HETATM    5  C2  UNL     1      14.067   8.854  26.238  1.00  0.00     0.052 A
HETATM    6  N2  UNL     1      14.578   9.816  24.212  1.00  0.00    -0.317 N
HETATM    7  C1  UNL     1      13.970   7.915  27.145  1.00  0.00     0.045 C
HETATM    8  N1  UNL     1      13.651  10.093  26.676  1.00  0.00    -0.318 N
HETATM    9  C3  UNL     1      13.708  11.160  25.876  1.00  0.00     0.314 A
ATOM     10  H1  UNL     1      13.295  10.197  27.626  1.00  0.00     0.169 HD
HETATM   11  O1  UNL     1      13.337  12.294  26.258  1.00  0.00    -0.262 OA
HETATM   12  C4  UNL     1      14.184  11.017  24.615  1.00  0.00     0.314 A
HETATM   13  O2  UNL     1      14.258  12.007  23.814  1.00  0.00    -0.262 OA
ATOM     14  H2  UNL     1      14.931   9.737  23.259  1.00  0.00     0.169 HD
ENDBRANCH   2   3
ENDBRANCH   1   2
BRANCH   1  15
HETATM   15  C9  UNL     1      17.438   6.253  24.081  1.00  0.00     0.090 C
BRANCH  15  16
HETATM   16  C10 UNL     1      17.443   5.798  22.672  1.00  0.00     0.012 A
HETATM   17  C11 UNL     1      18.554   5.050  22.191  1.00  0.00     0.041 A
HETATM   18  C12 UNL     1      18.270   4.732  20.903  1.00  0.00     0.020 A
HETATM   19  C13 UNL     1      17.012   5.266  20.586  1.00  0.00     0.045 A
HETATM   20  C23 UNL     1      18.969   3.999  19.939  1.00  0.00     0.057 A
HETATM   21  C14 UNL     1      16.465   5.074  19.343  1.00  0.00     0.031 A
HETATM   22  N7  UNL     1      16.561   5.897  21.688  1.00  0.00    -0.359 N
HETATM   23  C15 UNL     1      17.138   4.359  18.399  1.00  0.00     0.016 A
HETATM   24  C16 UNL     1      18.377   3.822  18.685  1.00  0.00    -0.006 A
HETATM   25  C17 UNL     1      19.030   3.085  17.734  1.00  0.00     0.047 A
HETATM   26  C18 UNL     1      20.246   2.530  18.015  1.00  0.00     0.079 A
HETATM   27  N3  UNL     1      21.089   1.757  17.300  1.00  0.00    -0.297 N
HETATM   28  C21 UNL     1      20.808   2.715  19.242  1.00  0.00     0.108 A
HETATM   29  N4  UNL     1      22.131   1.457  18.018  1.00  0.00    -0.283 N
ATOM     30  H3  UNL     1      20.933   1.453  16.339  1.00  0.00     0.187 HD
HETATM   31  C19 UNL     1      22.000   2.040  19.256  1.00  0.00     0.145 A
ATOM     32  H4  UNL     1      22.918   0.882  17.713  1.00  0.00     0.188 HD
HETATM   33  N6  UNL     1      20.179   3.455  20.220  1.00  0.00    -0.345 N
HETATM   34  C22 UNL     1      20.863   3.687  21.445  1.00  0.00     0.156 C
ATOM     35  H7  UNL     1      15.667   6.383  21.756  1.00  0.00     0.166 HD
BRANCH  31  36
HETATM   36  N5  UNL     1      22.869   1.898  20.195  1.00  0.00    -0.378 N
HETATM   37  C20 UNL     1      23.635   0.704  20.316  1.00  0.00     0.148 C
ATOM     38  H5  UNL     1      23.011   2.655  20.863  1.00  0.00     0.160 HD
ENDBRANCH  31  36
ENDBRANCH  15  16
ENDBRANCH   1  15
BRANCH   1  39
HETATM   39  N8  UNL     1      16.824   5.636  26.285  1.00  0.00    -0.070 N
ATOM     40  H82 UNL     1      16.023   5.543  26.912  1.00  0.00     0.277 HD
ATOM     41  H81 UNL     1      17.319   4.774  26.517  1.00  0.00     0.277 HD
BRANCH  39  42
HETATM   42  C24 UNL     1      17.604   6.775  26.626  1.00  0.00     0.234 C
BRANCH  42  43
HETATM   43  C25 UNL     1      18.781   6.465  27.562  1.00  0.00     0.055 C
BRANCH  43  44
HETATM   44  C26 UNL     1      19.994   7.069  26.866  1.00  0.00     0.237 C
BRANCH  44  45
HETATM   45  N9  UNL     1      21.201   6.960  27.640  1.00  0.00    -0.079 N
HETATM   46  C27 UNL     1      22.107   5.948  27.189  1.00  0.00     0.271 C
HETATM   47  C28 UNL     1      20.842   6.717  29.038  1.00  0.00     0.271 C
HETATM   48  C29 UNL     1      21.860   8.257  27.592  1.00  0.00     0.271 C
ENDBRANCH  44  45
ENDBRANCH  43  44
ENDBRANCH  42  43
ENDBRANCH  39  42
ENDBRANCH   1  39
TORSDOF 10
ENDMDL