MODEL 4
REMARK VINA RESULT: -7.936405783      2.921      5.002
REMARK  14 active torsions:
REMARK  status: ('A' for Active; 'I' for Inactive)
REMARK    1  A    between atoms: C2_2  and  C3_3
REMARK    2  A    between atoms: C3_3  and  C4_4
REMARK    3  A    between atoms: C4_4  and  C5_5
REMARK    4  A    between atoms: C5_5  and  C6_6
REMARK    5  A    between atoms: C5_5  and  C7_12
REMARK    6  A    between atoms: C6_6  and  N1_7
REMARK       I    between atoms: C7_12  and  N3_14
REMARK    7  A    between atoms: N3_14  and  C8_16
REMARK    8  A    between atoms: C8_16  and  C9_17
REMARK    9  A    between atoms: C8_16  and  C25_42
REMARK   10  A    between atoms: C9_17  and  S1_18
REMARK   11  A    between atoms: S1_18  and  C10_20
REMARK       I    between atoms: C10_20  and  N4_22
REMARK   12  A    between atoms: N4_22  and  C11_24
REMARK   13  A    between atoms: C14_29  and  C15_30
REMARK   14  A    between atoms: C16_31  and  C17_32
ROOT
HETATM    1  S1  UNL     1      18.295   3.157  21.613  1.00  0.00     0.110 S
HETATM    2  O2  UNL     1      18.401   1.536  21.217  1.00  0.00    -0.248 OA
ENDROOT
BRANCH   1   3
HETATM    3  C9  UNL     1      16.674   3.779  21.376  1.00  0.00     0.153 C
BRANCH   3   4
HETATM    4  C8  UNL     1      16.667   5.223  20.915  1.00  0.00     0.185 C
BRANCH   4   5
HETATM    5  N3  UNL     1      15.772   5.992  21.762  1.00  0.00    -0.347 N
HETATM    6  C7  UNL     1      16.229   7.000  22.632  1.00  0.00     0.224 C
HETATM    7  O1  UNL     1      17.485   7.221  22.655  1.00  0.00    -0.273 OA
ATOM      8  H3  UNL     1      14.772   5.794  21.725  1.00  0.00     0.163 HD
BRANCH   6   9
HETATM    9  C5  UNL     1      15.290   7.764  23.476  1.00  0.00     0.097 C
BRANCH   9  10
HETATM   10  C4  UNL     1      14.856   6.861  24.619  1.00  0.00     0.019 C
BRANCH  10  11
HETATM   11  C3  UNL     1      13.989   7.615  25.607  1.00  0.00     0.027 C
BRANCH  11  12
HETATM   12  C2  UNL     1      13.058   6.724  26.339  1.00  0.00    -0.037 C
HETATM   13  C1  UNL     1      13.412   5.505  26.705  1.00  0.00     0.007 C
ENDBRANCH  11  12
ENDBRANCH  10  11
ENDBRANCH   9  10
BRANCH   9  14
HETATM   14  C6  UNL     1      15.983   8.985  23.996  1.00  0.00     0.152 C
BRANCH  14  15
HETATM   15  N1  UNL     1      15.890  10.016  23.005  1.00  0.00    -0.342 N
HETATM   16  N2  UNL     1      14.829  10.301  22.431  1.00  0.00    -0.349 N
ATOM     17  H22 UNL     1      13.996   9.771  22.687  1.00  0.00     0.176 HD
ATOM     18  H21 UNL     1      14.763  11.035  21.727  1.00  0.00     0.176 HD
ATOM     19  H1  UNL     1      16.733  10.536  22.762  1.00  0.00     0.179 HD
ENDBRANCH  14  15
ENDBRANCH   9  14
ENDBRANCH   6   9
ENDBRANCH   4   5
BRANCH   4  20
HETATM   20  C25 UNL     1      16.184   5.302  19.524  1.00  0.00     0.254 C
HETATM   21  N7  UNL     1      16.719   4.464  18.489  1.00  0.00    -0.060 NA
HETATM   22  O4  UNL     1      15.279   6.125  19.232  1.00  0.00    -0.275 OA
ENDBRANCH   4  20
ENDBRANCH   3   4
ENDBRANCH   1   3
BRANCH   1  23
HETATM   23  C10 UNL     1      18.768   3.401  23.267  1.00  0.00     0.327 C
HETATM   24  O3  UNL     1      18.554   2.498  24.116  1.00  0.00    -0.257 OA
HETATM   25  N4  UNL     1      19.387   4.595  23.658  1.00  0.00    -0.148 N
ATOM     26  H4  UNL     1      20.101   4.986  23.043  1.00  0.00     0.188 HD
BRANCH  25  27
HETATM   27  C11 UNL     1      19.111   5.232  24.747  1.00  0.00     0.686 A
HETATM   28  N5  UNL     1      17.920   5.425  25.352  1.00  0.00    -0.193 N
HETATM   29  C12 UNL     1      18.153   6.150  26.467  1.00  0.00     0.058 A
ATOM     30  H5  UNL     1      17.014   5.087  25.028  1.00  0.00     0.184 HD
HETATM   31  C13 UNL     1      17.112   6.590  27.435  1.00  0.00     0.072 C
HETATM   32  C14 UNL     1      19.519   6.417  26.566  1.00  0.00     0.126 A
HETATM   33  N6  UNL     1      20.075   5.838  25.492  1.00  0.00    -0.182 N
ATOM     34  H6  UNL     1      21.069   5.849  25.267  1.00  0.00     0.185 HD
BRANCH  32  35
HETATM   35  C15 UNL     1      20.156   7.166  27.625  1.00  0.00    -0.041 C
HETATM   36  C16 UNL     1      20.706   7.798  28.509  1.00  0.00    -0.059 C
BRANCH  36  37
HETATM   37  C17 UNL     1      21.358   8.567  29.539  1.00  0.00     0.030 A
HETATM   38  C18 UNL     1      22.460   9.353  29.228  1.00  0.00    -0.043 A
HETATM   39  C19 UNL     1      22.953   9.389  27.820  1.00  0.00     0.049 C
HETATM   40  C20 UNL     1      23.089  10.096  30.222  1.00  0.00     0.008 A
HETATM   41  C21 UNL     1      22.638  10.066  31.523  1.00  0.00     0.001 A
HETATM   42  C22 UNL     1      21.547   9.289  31.840  1.00  0.00     0.008 A
HETATM   43  C23 UNL     1      20.913   8.543  30.845  1.00  0.00    -0.043 A
HETATM   44  C24 UNL     1      19.740   7.702  31.167  1.00  0.00     0.049 C
ENDBRANCH  36  37
ENDBRANCH  32  35
ENDBRANCH  25  27
ENDBRANCH   1  23
TORSDOF 14
ENDMDL