MODEL 2
REMARK VINA RESULT: -8.536638773      1.530      3.043
REMARK  14 active torsions:
REMARK  status: ('A' for Active; 'I' for Inactive)
REMARK    1  A    between atoms: C2_2  and  C3_3
REMARK    2  A    between atoms: C3_3  and  C4_4
REMARK    3  A    between atoms: C4_4  and  C5_5
REMARK    4  A    between atoms: C5_5  and  C6_6
REMARK    5  A    between atoms: C8_10  and  C9_11
REMARK    6  A    between atoms: C9_11  and  C10_12
REMARK    7  A    between atoms: C17_21  and  C18_22
REMARK    8  A    between atoms: C18_22  and  C19_23
REMARK    9  A    between atoms: N3_24  and  N4_26
REMARK   10  A    between atoms: C20_31  and  O1_32
REMARK   11  A    between atoms: C20_31  and  N6_34
REMARK   12  A    between atoms: N6_34  and  C21_36
REMARK   13  A    between atoms: C21_36  and  C23_38
REMARK       I    between atoms: C23_38  and  N7_40
REMARK   14  A    between atoms: C27_44  and  C28_45
ROOT
HETATM    1  C6  UNL     1      21.411   6.841  27.481  1.00  0.00    -0.030 A
HETATM    2  C7  UNL     1      22.758   6.693  27.239  1.00  0.00     0.096 A
HETATM    3  N1  UNL     1      23.430   7.650  27.946  1.00  0.00    -0.365 N
ATOM      4  H1  UNL     1      24.443   7.773  27.952  1.00  0.00     0.165 HD
HETATM    5  C8  UNL     1      22.555   8.405  28.631  1.00  0.00     0.041 A
HETATM    6  C17 UNL     1      21.282   7.887  28.331  1.00  0.00    -0.019 A
ENDROOT
BRANCH   1   7
HETATM    7  C5  UNL     1      20.331   5.984  26.905  1.00  0.00     0.068 C
BRANCH   7   8
HETATM    8  C4  UNL     1      19.719   6.543  25.741  1.00  0.00    -0.006 C
BRANCH   8   9
HETATM    9  C3  UNL     1      19.168   5.868  24.726  1.00  0.00     0.010 C
HETATM   10  C20 UNL     1      18.474   6.695  23.769  1.00  0.00     0.146 C
BRANCH   9  11
HETATM   11  C2  UNL     1      19.291   4.450  24.652  1.00  0.00     0.005 C
HETATM   12  C1  UNL     1      19.902   3.634  23.873  1.00  0.00     0.012 C
ENDBRANCH   9  11
BRANCH  10  13
HETATM   13  O1  UNL     1      18.491   7.993  24.044  1.00  0.00    -0.346 OA
ATOM     14  H1  UNL     1      17.699   8.459  23.805  1.00  0.00     0.219 HD
ENDBRANCH  10  13
BRANCH  10  15
HETATM   15  N6  UNL     1      17.785   6.392  22.606  1.00  0.00    -0.357 N
ATOM     16  H6  UNL     1      18.236   6.512  21.699  1.00  0.00     0.162 HD
BRANCH  15  17
HETATM   17  C21 UNL     1      16.382   5.891  22.681  1.00  0.00     0.172 C
HETATM   18  C22 UNL     1      15.914   5.725  21.271  1.00  0.00     0.042 C
BRANCH  17  19
HETATM   19  C23 UNL     1      15.562   6.911  23.362  1.00  0.00     0.243 C
HETATM   20  O2  UNL     1      15.448   8.063  22.817  1.00  0.00    -0.271 OA
HETATM   21  N7  UNL     1      14.907   6.646  24.587  1.00  0.00    -0.337 N
HETATM   22  C24 UNL     1      14.948   5.409  25.309  1.00  0.00     0.127 C
HETATM   23  C27 UNL     1      14.092   7.590  25.309  1.00  0.00     0.176 C
HETATM   24  C25 UNL     1      14.109   5.611  26.557  1.00  0.00     0.022 C
HETATM   25  C26 UNL     1      13.164   6.725  26.129  1.00  0.00     0.036 C
BRANCH  23  26
HETATM   26  C28 UNL     1      14.909   8.506  26.144  1.00  0.00     0.254 C
HETATM   27  N8  UNL     1      16.275   8.265  26.334  1.00  0.00    -0.060 NA
HETATM   28  O3  UNL     1      14.352   9.496  26.674  1.00  0.00    -0.275 OA
ENDBRANCH  23  26
ENDBRANCH  17  19
ENDBRANCH  15  17
ENDBRANCH  10  15
ENDBRANCH   8   9
ENDBRANCH   7   8
ENDBRANCH   1   7
BRANCH   6  29
HETATM   29  C18 UNL     1      20.050   8.478  28.904  1.00  0.00     0.087 C
BRANCH  29  30
HETATM   30  C19 UNL     1      19.025   7.417  29.207  1.00  0.00     0.086 C
HETATM   31  N3  UNL     1      17.810   7.531  28.809  1.00  0.00    -0.302 N
ATOM     32  H3  UNL     1      17.527   8.353  28.277  1.00  0.00     0.187 HD
BRANCH  31  33
HETATM   33  N4  UNL     1      16.878   6.541  29.097  1.00  0.00    -0.250 N
HETATM   34  N5  UNL     1      15.656   6.841  29.346  1.00  0.00    -0.331 N
ATOM     35  H52 UNL     1      15.380   7.823  29.328  1.00  0.00     0.178 HD
ATOM     36  H51 UNL     1      14.971   6.115  29.558  1.00  0.00     0.178 HD
ATOM     37  H4  UNL     1      17.170   5.564  29.111  1.00  0.00     0.207 HD
ENDBRANCH  31  33
ENDBRANCH  29  30
ENDBRANCH   6  29
BRANCH   5  38
HETATM   38  C9  UNL     1      22.907   9.521  29.494  1.00  0.00     0.060 C
BRANCH  38  39
HETATM   39  C10 UNL     1      23.631   9.391  30.584  1.00  0.00     0.041 A
HETATM   40  N2  UNL     1      24.958   9.582  30.693  1.00  0.00    -0.356 N
HETATM   41  C11 UNL     1      25.348   9.351  31.979  1.00  0.00     0.029 A
ATOM     42  H2  UNL     1      25.576   9.858  29.930  1.00  0.00     0.166 HD
HETATM   43  C12 UNL     1      26.581   9.451  32.421  1.00  0.00     0.043 C
HETATM   44  C13 UNL     1      24.232   9.001  32.718  1.00  0.00    -0.028 A
HETATM   45  C14 UNL     1      24.184   8.658  34.179  1.00  0.00     0.051 C
HETATM   46  C15 UNL     1      23.171   9.032  31.829  1.00  0.00    -0.027 A
HETATM   47  C16 UNL     1      21.751   8.726  32.149  1.00  0.00     0.051 C
ENDBRANCH  38  39
ENDBRANCH   5  38
TORSDOF 14
ENDMDL