MODEL 5
REMARK VINA RESULT: -7.380121029      4.007      8.468
REMARK  11 active torsions:
REMARK  status: ('A' for Active; 'I' for Inactive)
REMARK    1  A    between atoms: C2_2  and  C3_3
REMARK    2  A    between atoms: C2_2  and  C11_15
REMARK    3  A    between atoms: C3_3  and  C4_4
REMARK    4  A    between atoms: C4_4  and  C5_5
REMARK    5  A    between atoms: C5_5  and  N1_6
REMARK    6  A    between atoms: N1_6  and  C7_8
REMARK    7  A    between atoms: N1_6  and  C8_10
REMARK    8  A    between atoms: C9_11  and  C10_12
REMARK       I    between atoms: C11_15  and  N3_17
REMARK    9  A    between atoms: C15_24  and  C16_25
REMARK   10  A    between atoms: C16_25  and  N5_26
REMARK   11  A    between atoms: C20_31  and  C22_33
ROOT
HETATM    1  C11 UNL     1      18.065   4.892  21.465  1.00  0.00     0.239 C
HETATM    2  O3  UNL     1      17.802   5.887  22.165  1.00  0.00    -0.272 OA
HETATM    3  N3  UNL     1      17.565   4.800  20.154  1.00  0.00    -0.159 N
ATOM      4  H3  UNL     1      17.989   5.412  19.456  1.00  0.00     0.187 HD
HETATM    5  C12 UNL     1      16.633   4.026  19.753  1.00  0.00     0.687 A
HETATM    6  N4  UNL     1      15.895   3.127  20.402  1.00  0.00    -0.188 N
ATOM      7  H4  UNL     1      15.984   2.920  21.397  1.00  0.00     0.184 HD
HETATM    8  C13 UNL     1      15.014   2.527  19.577  1.00  0.00     0.095 A
HETATM    9  C14 UNL     1      14.004   1.620  19.367  1.00  0.00     0.060 A
HETATM   10  C15 UNL     1      13.612   1.640  18.026  1.00  0.00     0.039 A
HETATM   11  N8  UNL     1      14.395   2.561  17.447  1.00  0.00    -0.342 N
ATOM     12  H8  UNL     1      14.352   2.811  16.459  1.00  0.00     0.167 HD
HETATM   13  C25 UNL     1      15.243   3.113  18.328  1.00  0.00     0.148 A
HETATM   14  N9  UNL     1      16.215   4.004  18.463  1.00  0.00    -0.174 N
ATOM     15  H9  UNL     1      16.590   4.583  17.712  1.00  0.00     0.186 HD
ENDROOT
BRANCH   1  16
HETATM   16  C2  UNL     1      18.912   3.805  22.035  1.00  0.00     0.074 C
HETATM   17  C1  UNL     1      18.884   3.817  23.534  1.00  0.00     0.020 C
BRANCH  16  18
HETATM   18  C3  UNL     1      20.264   3.759  21.456  1.00  0.00     0.015 C
BRANCH  18  19
HETATM   19  C4  UNL     1      20.716   2.651  20.613  1.00  0.00     0.030 C
BRANCH  19  20
HETATM   20  C5  UNL     1      19.679   1.823  19.934  1.00  0.00     0.252 C
BRANCH  20  21
HETATM   21  N1  UNL     1      19.981   1.753  18.495  1.00  0.00     0.003 N
HETATM   22  C6  UNL     1      21.217   1.056  18.242  1.00  0.00     0.288 C
BRANCH  21  23
HETATM   23  C7  UNL     1      20.091   3.069  17.972  1.00  0.00     0.464 C
HETATM   24  O1  UNL     1      19.121   3.683  17.593  1.00  0.00    -0.275 OA
ENDBRANCH  21  23
BRANCH  21  25
HETATM   25  C8  UNL     1      18.935   1.028  17.822  1.00  0.00     0.216 C
HETATM   26  C9  UNL     1      18.002   0.444  18.549  1.00  0.00     0.096 C
BRANCH  26  27
HETATM   27  C10 UNL     1      16.943  -0.289  17.901  1.00  0.00     0.256 C
HETATM   28  N2  UNL     1      16.136  -1.171  18.665  1.00  0.00    -0.058 NA
HETATM   29  O2  UNL     1      16.724  -0.161  16.669  1.00  0.00    -0.272 OA
ENDBRANCH  26  27
ENDBRANCH  21  25
ENDBRANCH  20  21
ENDBRANCH  19  20
ENDBRANCH  18  19
ENDBRANCH  16  18
ENDBRANCH   1  16
BRANCH  10  30
HETATM   30  C16 UNL     1      12.552   0.802  17.410  1.00  0.00     0.301 C
BRANCH  30  31
HETATM   31  N5  UNL     1      11.220   1.285  17.648  1.00  0.00    -0.032 N
HETATM   32  C17 UNL     1      10.786   1.002  18.984  1.00  0.00     0.280 C
HETATM   33  C18 UNL     1      10.384   0.744  16.638  1.00  0.00     0.292 C
HETATM   34  N6  UNL     1       9.344   1.269  16.139  1.00  0.00    -0.357 N
HETATM   35  C19 UNL     1       8.589   0.569  15.092  1.00  0.00     0.151 C
HETATM   36  C20 UNL     1       8.847   2.537  16.549  1.00  0.00     0.109 C
HETATM   37  C21 UNL     1       8.466   3.378  15.333  1.00  0.00     0.049 C
HETATM   38  C23 UNL     1       9.820   3.257  17.405  1.00  0.00     0.068 C
HETATM   39  C24 UNL     1      11.225   2.736  17.391  1.00  0.00     0.247 C
BRANCH  36  40
HETATM   40  C22 UNL     1       7.538   2.316  17.270  1.00  0.00     0.259 C
HETATM   41  N7  UNL     1       7.505   2.056  18.672  1.00  0.00    -0.060 NA
HETATM   42  O4  UNL     1       6.473   2.363  16.615  1.00  0.00    -0.274 OA
ENDBRANCH  36  40
ENDBRANCH  30  31
ENDBRANCH  10  30
TORSDOF 11
ENDMDL