MODEL 1
REMARK VINA RESULT: -8.532696491      0.000      0.000
REMARK  15 active torsions:
REMARK  status: ('A' for Active; 'I' for Inactive)
REMARK    1  A    between atoms: C2_2  and  C3_3
REMARK    2  A    between atoms: C2_2  and  C5_5
REMARK    3  A    between atoms: C5_5  and  C6_6
REMARK    4  A    between atoms: C5_5  and  C8_8
REMARK    5  A    between atoms: C8_8  and  C9_9
REMARK    6  A    between atoms: C10_10  and  C11_11
REMARK    7  A    between atoms: C11_11  and  C12_12
REMARK    8  A    between atoms: C13_13  and  C14_14
REMARK    9  A    between atoms: C14_14  and  C16_16
REMARK   10  A    between atoms: C14_14  and  N1_23
REMARK   11  A    between atoms: C16_16  and  C17_17
REMARK       I    between atoms: N1_23  and  C23_25
REMARK   12  A    between atoms: C23_25  and  C24_27
REMARK   13  A    between atoms: C24_27  and  C25_28
REMARK   14  A    between atoms: C25_28  and  N2_29
REMARK   15  A    between atoms: N5_33  and  N6_34
ROOT
HETATM    1  C14 UNL     1      16.435   7.167  23.973  1.00  0.00     0.097 C
HETATM    2  C15 UNL     1      17.501   8.230  23.481  1.00  0.00     0.053 C
ENDROOT
BRANCH   1   3
HETATM    3  C13 UNL     1      16.685   7.077  25.432  1.00  0.00    -0.074 C
HETATM    4  C12 UNL     1      16.871   7.018  26.620  1.00  0.00    -0.092 C
BRANCH   4   5
HETATM    5  C11 UNL     1      17.111   6.926  28.059  1.00  0.00     0.187 C
BRANCH   5   6
HETATM    6  C10 UNL     1      18.436   7.415  28.439  1.00  0.00    -0.095 C
HETATM    7  C9  UNL     1      19.536   7.809  28.733  1.00  0.00    -0.105 C
BRANCH   7   8
HETATM    8  C8  UNL     1      20.893   8.279  29.077  1.00  0.00     0.103 C
BRANCH   8   9
HETATM    9  C5  UNL     1      21.692   8.316  27.793  1.00  0.00     0.024 C
BRANCH   9  10
HETATM   10  C2  UNL     1      22.172   6.957  27.423  1.00  0.00    -0.085 C
HETATM   11  C1  UNL     1      23.393   6.568  27.756  1.00  0.00     0.014 C
BRANCH  10  12
HETATM   12  C3  UNL     1      21.305   6.013  26.679  1.00  0.00     0.029 C
HETATM   13  C4  UNL     1      22.007   4.688  26.480  1.00  0.00     0.010 C
ENDBRANCH  10  12
ENDBRANCH   9  10
BRANCH   9  14
HETATM   14  C6  UNL     1      22.926   9.188  27.958  1.00  0.00     0.005 C
HETATM   15  C7  UNL     1      22.941   9.866  29.308  1.00  0.00     0.006 C
ENDBRANCH   9  14
ENDBRANCH   8   9
ENDBRANCH   7   8
ENDBRANCH   5   6
ENDBRANCH   4   5
ENDBRANCH   1   3
BRANCH   1  16
HETATM   16  C16 UNL     1      15.146   7.781  23.603  1.00  0.00     0.082 C
BRANCH  16  17
HETATM   17  C17 UNL     1      14.793   9.086  24.128  1.00  0.00    -0.055 A
HETATM   18  C18 UNL     1      15.092  10.240  23.437  1.00  0.00     0.007 A
HETATM   19  C19 UNL     1      14.682  11.460  23.968  1.00  0.00     0.001 A
HETATM   20  C20 UNL     1      13.990  11.563  25.156  1.00  0.00     0.000 A
HETATM   21  C21 UNL     1      13.699  10.402  25.836  1.00  0.00     0.001 A
HETATM   22  C22 UNL     1      14.102   9.199  25.315  1.00  0.00     0.007 A
ENDBRANCH  16  17
ENDBRANCH   1  16
BRANCH   1  23
HETATM   23  N1  UNL     1      16.825   5.961  23.345  1.00  0.00    -0.341 N
HETATM   24  C23 UNL     1      16.134   4.715  23.552  1.00  0.00     0.220 C
HETATM   25  O1  UNL     1      15.151   4.619  24.316  1.00  0.00    -0.274 OA
ATOM     26  H1  UNL     1      17.630   5.976  22.719  1.00  0.00     0.164 HD
BRANCH  24  27
HETATM   27  C24 UNL     1      16.600   3.506  22.838  1.00  0.00     0.134 C
BRANCH  27  28
HETATM   28  C25 UNL     1      17.772   3.681  21.968  1.00  0.00     0.297 C
BRANCH  28  29
HETATM   29  N2  UNL     1      17.568   3.913  20.582  1.00  0.00     0.127 N
HETATM   30  C26 UNL     1      16.548   3.209  19.886  1.00  0.00     0.327 C
HETATM   31  N3  UNL     1      17.453   5.308  20.318  1.00  0.00     0.105 NA
HETATM   32  N4  UNL     1      18.284   5.035  19.181  1.00  0.00     0.025 NA
HETATM   33  N5  UNL     1      18.811   4.007  19.936  1.00  0.00     0.105 NA
BRANCH  33  34
HETATM   34  N6  UNL     1      19.256   2.942  19.203  1.00  0.00    -0.142 N
HETATM   35  N7  UNL     1      18.763   2.590  17.942  1.00  0.00    -0.314 N
HETATM   36  C27 UNL     1      19.717   2.168  16.983  1.00  0.00     0.141 C
ATOM     37  H7  UNL     1      17.768   2.635  17.724  1.00  0.00     0.182 HD
HETATM   38  C28 UNL     1      21.020   1.666  17.510  1.00  0.00     0.031 C
HETATM   39  C29 UNL     1      20.731   0.987  18.832  1.00  0.00     0.108 C
HETATM   40  C30 UNL     1      20.272   2.104  19.739  1.00  0.00     0.256 C
HETATM   41  O2  UNL     1      20.784   2.241  20.882  1.00  0.00    -0.270 OA
ENDBRANCH  33  34
ENDBRANCH  28  29
ENDBRANCH  27  28
ENDBRANCH  24  27
ENDBRANCH   1  23
TORSDOF 15
ENDMDL