MODEL 4
REMARK VINA RESULT: -7.589650972      3.413      9.727
REMARK  16 active torsions:
REMARK  status: ('A' for Active; 'I' for Inactive)
REMARK    1  A    between atoms: C3_5  and  C4_6
REMARK    2  A    between atoms: C4_6  and  C5_7
REMARK    3  A    between atoms: C5_7  and  O1_8
REMARK    4  A    between atoms: C5_7  and  N2_10
REMARK    5  A    between atoms: N2_10  and  C6_12
REMARK    6  A    between atoms: N4_17  and  C9_18
REMARK    7  A    between atoms: N4_17  and  C11_20
REMARK    8  A    between atoms: C11_20  and  C12_21
REMARK    9  A    between atoms: C12_21  and  N5_22
REMARK       I    between atoms: N5_22  and  C13_24
REMARK   10  A    between atoms: C13_24  and  C14_26
REMARK   11  A    between atoms: C14_26  and  C15_27
REMARK   12  A    between atoms: C15_27  and  C16_28
REMARK   13  A    between atoms: C16_28  and  C17_29
REMARK   14  A    between atoms: C18_32  and  C19_33
REMARK   15  A    between atoms: C19_33  and  O3_34
REMARK   16  A    between atoms: C19_33  and  N7_36
ROOT
HETATM    1  N5  UNL     1      16.188   5.763  29.520  1.00  0.00    -0.360 N
ATOM      2  H5  UNL     1      16.653   5.790  28.613  1.00  0.00     0.162 HD
HETATM    3  C13 UNL     1      14.778   5.717  29.514  1.00  0.00     0.217 C
HETATM    4  O2  UNL     1      14.140   5.686  30.574  1.00  0.00    -0.274 OA
ENDROOT
BRANCH   1   5
HETATM    5  C12 UNL     1      17.040   5.777  30.701  1.00  0.00     0.142 C
BRANCH   5   6
HETATM    6  C11 UNL     1      17.521   7.146  31.002  1.00  0.00     0.144 C
BRANCH   6   7
HETATM    7  N4  UNL     1      18.867   7.399  30.580  1.00  0.00    -0.364 N
HETATM    8  C8  UNL     1      19.749   8.089  31.253  1.00  0.00     0.131 A
HETATM    9  C2  UNL     1      19.623   8.679  32.477  1.00  0.00     0.068 A
HETATM   10  N3  UNL     1      20.965   8.448  30.801  1.00  0.00    -0.327 N
HETATM   11  C1  UNL     1      18.701   8.653  33.395  1.00  0.00     0.047 C
HETATM   12  N1  UNL     1      20.786   9.383  32.705  1.00  0.00    -0.340 N
HETATM   13  C3  UNL     1      21.617   9.252  31.692  1.00  0.00     0.111 A
ATOM     14  H1  UNL     1      20.976   9.931  33.544  1.00  0.00     0.167 HD
ATOM     15  H3  UNL     1      21.352   8.157  29.903  1.00  0.00     0.169 HD
BRANCH  13  16
HETATM   16  C4  UNL     1      22.793   9.731  31.443  1.00  0.00     0.104 C
BRANCH  16  17
HETATM   17  C5  UNL     1      23.468  10.067  30.241  1.00  0.00     0.139 C
BRANCH  17  18
HETATM   18  O1  UNL     1      23.872  11.329  30.110  1.00  0.00    -0.346 OA
ATOM     19  H1  UNL     1      23.340  11.895  29.565  1.00  0.00     0.219 HD
ENDBRANCH  17  18
BRANCH  17  20
HETATM   20  N2  UNL     1      23.774   9.232  29.159  1.00  0.00    -0.371 N
ATOM     21  H2  UNL     1      24.599   8.634  29.198  1.00  0.00     0.161 HD
BRANCH  20  22
HETATM   22  C6  UNL     1      22.908   9.210  27.957  1.00  0.00     0.117 C
HETATM   23  C7  UNL     1      22.580   7.800  27.549  1.00  0.00     0.026 C
ENDBRANCH  20  22
ENDBRANCH  17  20
ENDBRANCH  16  17
ENDBRANCH  13  16
BRANCH   7  24
HETATM   24  C9  UNL     1      19.264   6.866  29.295  1.00  0.00     0.120 C
HETATM   25  C10 UNL     1      18.893   7.737  28.123  1.00  0.00     0.026 C
ENDBRANCH   7  24
ENDBRANCH   6   7
ENDBRANCH   5   6
ENDBRANCH   1   5
BRANCH   3  26
HETATM   26  C14 UNL     1      14.020   5.699  28.211  1.00  0.00     0.103 C
BRANCH  26  27
HETATM   27  C15 UNL     1      13.757   7.114  27.819  1.00  0.00     0.017 C
BRANCH  27  28
HETATM   28  C16 UNL     1      13.314   7.374  26.451  1.00  0.00     0.077 C
BRANCH  28  29
HETATM   29  C17 UNL     1      14.254   7.952  25.492  1.00  0.00     0.083 A
HETATM   30  N6  UNL     1      15.132   7.117  24.856  1.00  0.00    -0.341 N
HETATM   31  C18 UNL     1      15.904   7.863  24.018  1.00  0.00     0.100 A
ATOM     32  H6  UNL     1      15.198   6.108  24.987  1.00  0.00     0.167 HD
HETATM   33  C27 UNL     1      15.468   9.141  24.177  1.00  0.00     0.125 A
HETATM   34  N8  UNL     1      14.444   9.195  25.093  1.00  0.00    -0.349 N
HETATM   35  C28 UNL     1      13.796  10.449  25.513  1.00  0.00     0.156 C
BRANCH  31  36
HETATM   36  C19 UNL     1      16.971   7.285  23.192  1.00  0.00     0.167 C
BRANCH  36  37
HETATM   37  O3  UNL     1      17.772   8.159  22.624  1.00  0.00    -0.344 OA
ATOM     38  H3  UNL     1      17.358   8.731  21.988  1.00  0.00     0.219 HD
ENDBRANCH  36  37
BRANCH  36  39
HETATM   39  N7  UNL     1      17.273   5.972  22.911  1.00  0.00    -0.360 N
HETATM   40  C20 UNL     1      18.637   5.547  22.974  1.00  0.00     0.125 C
HETATM   41  C21 UNL     1      18.779   4.063  22.633  1.00  0.00     0.020 C
HETATM   42  C22 UNL     1      18.695   3.742  21.197  1.00  0.00     0.002 C
HETATM   43  C23 UNL     1      17.980   4.700  20.316  1.00  0.00     0.000 C
HETATM   44  C24 UNL     1      16.470   4.420  20.322  1.00  0.00     0.002 C
HETATM   45  C25 UNL     1      15.765   5.513  21.117  1.00  0.00     0.020 C
HETATM   46  C26 UNL     1      16.027   5.197  22.575  1.00  0.00     0.125 C
ENDBRANCH  36  39
ENDBRANCH  31  36
ENDBRANCH  28  29
ENDBRANCH  27  28
ENDBRANCH  26  27
ENDBRANCH   3  26
TORSDOF 16
ENDMDL