MODEL 2
REMARK VINA RESULT: -7.699827008      5.287     11.529
REMARK  14 active torsions:
REMARK  status: ('A' for Active; 'I' for Inactive)
REMARK    1  A    between atoms: C2_2  and  N1_3
REMARK    2  A    between atoms: N1_3  and  C3_4
REMARK       I    between atoms: N1_3  and  C5_6
REMARK       I    between atoms: C5_6  and  N3_8
REMARK    3  A    between atoms: N3_8  and  C6_10
REMARK    4  A    between atoms: C9_13  and  C10_14
REMARK    5  A    between atoms: C10_14  and  C11_15
REMARK    6  A    between atoms: C13_19  and  C14_20
REMARK    7  A    between atoms: C14_20  and  C15_21
REMARK    8  A    between atoms: C16_24  and  C17_25
REMARK    9  A    between atoms: C17_25  and  C18_26
REMARK   10  A    between atoms: C18_26  and  C19_27
REMARK   11  A    between atoms: C19_27  and  C20_28
REMARK   12  A    between atoms: C20_28  and  C21_29
REMARK   13  A    between atoms: C22_32  and  C23_33
REMARK   14  A    between atoms: C27_38  and  C28_39
ROOT
HETATM    1  C11 UNL     1      21.555   7.474  27.698  1.00  0.00     0.045 A
HETATM    2  N4  UNL     1      22.109   6.426  27.010  1.00  0.00    -0.364 N
ATOM      3  H4  UNL     1      23.102   6.304  26.810  1.00  0.00     0.165 HD
HETATM    4  C12 UNL     1      21.138   5.591  26.643  1.00  0.00     0.100 A
HETATM    5  C13 UNL     1      19.938   6.070  27.081  1.00  0.00    -0.005 A
HETATM    6  C27 UNL     1      20.203   7.270  27.752  1.00  0.00     0.015 A
ENDROOT
BRANCH   5   7
HETATM    7  C14 UNL     1      18.679   5.438  26.850  1.00  0.00     0.043 C
BRANCH   7   8
HETATM    8  C15 UNL     1      17.535   5.949  26.463  1.00  0.00     0.040 A
HETATM    9  N5  UNL     1      17.285   6.541  25.258  1.00  0.00    -0.355 N
HETATM   10  C16 UNL     1      16.019   6.959  25.177  1.00  0.00     0.043 A
ATOM     11  H5  UNL     1      17.976   6.651  24.516  1.00  0.00     0.166 HD
HETATM   12  C22 UNL     1      15.379   6.647  26.355  1.00  0.00     0.044 A
HETATM   13  C25 UNL     1      16.346   6.013  27.150  1.00  0.00    -0.019 A
HETATM   14  C26 UNL     1      16.019   5.523  28.522  1.00  0.00     0.052 C
BRANCH  10  15
HETATM   15  C17 UNL     1      15.417   7.575  24.168  1.00  0.00     0.004 C
BRANCH  15  16
HETATM   16  C18 UNL     1      15.969   8.853  23.671  1.00  0.00     0.030 C
BRANCH  16  17
HETATM   17  C19 UNL     1      14.848   9.865  23.433  1.00  0.00     0.013 C
BRANCH  17  18
HETATM   18  C20 UNL     1      14.243  10.311  24.747  1.00  0.00     0.100 C
BRANCH  18  19
HETATM   19  C21 UNL     1      14.240  11.777  24.835  1.00  0.00     0.231 C
HETATM   20  N6  UNL     1      13.565  12.461  25.857  1.00  0.00    -0.062 NA
HETATM   21  O1  UNL     1      14.865  12.471  23.964  1.00  0.00    -0.277 OA
ENDBRANCH  18  19
ENDBRANCH  17  18
ENDBRANCH  16  17
ENDBRANCH  15  16
ENDBRANCH  10  15
BRANCH  12  22
HETATM   22  C23 UNL     1      13.989   6.923  26.698  1.00  0.00     0.158 C
HETATM   23  C24 UNL     1      12.854   6.066  26.342  1.00  0.00     0.097 C
HETATM   24  O2  UNL     1      13.726   7.985  27.357  1.00  0.00    -0.293 OA
ENDBRANCH  12  22
ENDBRANCH   7   8
ENDBRANCH   5   7
BRANCH   6  25
HETATM   25  C28 UNL     1      19.273   7.989  28.292  1.00  0.00     0.114 C
HETATM   26  N7  UNL     1      18.864   7.926  29.633  1.00  0.00    -0.114 NA
ENDBRANCH   6  25
BRANCH   1  27
HETATM   27  C10 UNL     1      22.277   8.456  28.195  1.00  0.00     0.043 C
BRANCH  27  28
HETATM   28  C9  UNL     1      22.468   8.565  29.627  1.00  0.00    -0.018 A
HETATM   29  C8  UNL     1      22.666   9.787  30.200  1.00  0.00     0.016 A
HETATM   30  C7  UNL     1      22.841   9.853  31.574  1.00  0.00     0.050 A
HETATM   31  C6  UNL     1      22.809   8.693  32.318  1.00  0.00     0.109 A
HETATM   32  N8  UNL     1      22.612   7.467  31.740  1.00  0.00    -0.347 N
HETATM   33  C29 UNL     1      22.446   7.420  30.420  1.00  0.00     0.103 A
HETATM   34  C30 UNL     1      22.589   6.244  32.539  1.00  0.00     0.157 C
BRANCH  31  35
HETATM   35  N3  UNL     1      22.974   8.731  33.697  1.00  0.00    -0.317 N
HETATM   36  C5  UNL     1      23.963   8.598  34.448  1.00  0.00     0.192 C
HETATM   37  N1  UNL     1      25.297   8.351  34.045  1.00  0.00    -0.356 N
HETATM   38  N2  UNL     1      23.755   8.702  35.894  1.00  0.00    -0.063 NA
ATOM     39  H3  UNL     1      22.105   8.903  34.202  1.00  0.00     0.170 HD
BRANCH  37  40
HETATM   40  C2  UNL     1      25.843   6.992  34.262  1.00  0.00     0.121 C
HETATM   41  C1  UNL     1      26.846   7.041  35.413  1.00  0.00     0.026 C
ENDBRANCH  37  40
BRANCH  37  42
HETATM   42  C3  UNL     1      26.102   9.378  33.461  1.00  0.00     0.121 C
HETATM   43  C4  UNL     1      26.509   9.024  32.062  1.00  0.00     0.026 C
ENDBRANCH  37  42
ENDBRANCH  31  35
ENDBRANCH  27  28
ENDBRANCH   1  27
TORSDOF 14
ENDMDL