MODEL 5
REMARK VINA RESULT: -7.947857643      6.521      9.670
REMARK  15 active torsions:
REMARK  status: ('A' for Active; 'I' for Inactive)
REMARK    1  A    between atoms: C2_2  and  C3_3
REMARK    2  A    between atoms: C3_3  and  C4_4
REMARK    3  A    between atoms: C4_4  and  C5_5
REMARK    4  A    between atoms: N1_8  and  C8_9
REMARK    5  A    between atoms: C8_9  and  C9_10
REMARK    6  A    between atoms: C9_10  and  C10_11
REMARK    7  A    between atoms: C11_12  and  C12_13
REMARK    8  A    between atoms: C12_13  and  N2_14
REMARK    9  A    between atoms: N2_14  and  C13_15
REMARK   10  A    between atoms: N2_14  and  C15_17
REMARK   11  A    between atoms: C15_17  and  C16_21
REMARK   12  A    between atoms: C16_21  and  C17_22
REMARK   13  A    between atoms: C17_22  and  O1_23
REMARK   14  A    between atoms: O1_23  and  C18_24
REMARK       I    between atoms: C18_24  and  N4_26
REMARK   15  A    between atoms: C19_27  and  N5_28
REMARK       I    between atoms: N5_28  and  C20_29
ROOT
HETATM    1  C15 UNL     1      18.157   4.635  22.577  1.00  0.00     0.075 C
HETATM    2  N3  UNL     1      17.158   4.012  23.152  1.00  0.00    -0.389 N
ATOM      3  H31 UNL     1      16.928   4.286  24.108  1.00  0.00     0.157 HD
ATOM      4  H32 UNL     1      16.649   3.287  22.645  1.00  0.00     0.157 HD
ENDROOT
BRANCH   1   5
HETATM    5  N2  UNL     1      18.473   4.259  21.263  1.00  0.00    -0.361 N
BRANCH   5   6
HETATM    6  C12 UNL     1      17.520   4.472  20.168  1.00  0.00     0.218 C
BRANCH   6   7
HETATM    7  C11 UNL     1      17.121   3.191  19.580  1.00  0.00    -0.087 C
HETATM    8  C10 UNL     1      16.784   2.148  19.079  1.00  0.00    -0.103 C
BRANCH   8   9
HETATM    9  C9  UNL     1      16.358   0.889  18.445  1.00  0.00     0.114 C
BRANCH   9  10
HETATM   10  C8  UNL     1      17.325   0.605  17.316  1.00  0.00     0.139 C
BRANCH  10  11
HETATM   11  N1  UNL     1      18.674   0.502  17.833  1.00  0.00    -0.366 N
HETATM   12  C7  UNL     1      19.015  -0.428  18.735  1.00  0.00     0.091 A
HETATM   13  C6  UNL     1      20.326  -0.511  19.221  1.00  0.00     0.024 A
HETATM   14  C5  UNL     1      21.299   0.356  18.790  1.00  0.00    -0.056 A
HETATM   15  C27 UNL     1      20.929   1.314  17.854  1.00  0.00     0.024 A
HETATM   16  C26 UNL     1      19.626   1.363  17.398  1.00  0.00     0.091 A
BRANCH  14  17
HETATM   17  C4  UNL     1      22.701   0.306  19.278  1.00  0.00     0.038 C
BRANCH  17  18
HETATM   18  C3  UNL     1      23.087   1.747  19.595  1.00  0.00     0.004 C
BRANCH  18  19
HETATM   19  C2  UNL     1      23.556   1.844  21.022  1.00  0.00    -0.004 C
HETATM   20  C1  UNL     1      23.875   3.279  21.326  1.00  0.00     0.005 C
ENDBRANCH  18  19
ENDBRANCH  17  18
ENDBRANCH  14  17
ENDBRANCH  10  11
ENDBRANCH   9  10
ENDBRANCH   8   9
ENDBRANCH   6   7
ENDBRANCH   5   6
BRANCH   5  21
HETATM   21  C13 UNL     1      19.719   3.666  20.913  1.00  0.00     0.120 C
HETATM   22  C14 UNL     1      19.970   2.366  21.668  1.00  0.00     0.026 C
ENDBRANCH   5  21
ENDBRANCH   1   5
BRANCH   1  23
HETATM   23  C16 UNL     1      18.884   5.673  23.304  1.00  0.00     0.102 C
BRANCH  23  24
HETATM   24  C17 UNL     1      18.142   6.921  23.614  1.00  0.00     0.188 C
BRANCH  24  25
HETATM   25  O1  UNL     1      16.747   6.848  23.403  1.00  0.00    -0.303 OA
BRANCH  25  26
HETATM   26  C18 UNL     1      15.814   6.885  24.425  1.00  0.00     0.372 C
HETATM   27  O2  UNL     1      15.527   5.722  24.876  1.00  0.00    -0.238 OA
HETATM   28  N4  UNL     1      15.210   8.053  24.955  1.00  0.00    -0.230 N
HETATM   29  C19 UNL     1      14.221   7.850  26.030  1.00  0.00     0.266 C
HETATM   30  C25 UNL     1      15.466   9.397  24.576  1.00  0.00     0.203 C
HETATM   31  N8  UNL     1      13.963   9.106  26.773  1.00  0.00    -0.349 N
HETATM   32  C21 UNL     1      13.952  10.394  26.157  1.00  0.00     0.132 C
ATOM     33  H8  UNL     1      13.784   9.047  27.776  1.00  0.00     0.163 HD
HETATM   34  C22 UNL     1      14.168  10.189  24.688  1.00  0.00     0.051 C
HETATM   35  C23 UNL     1      14.601  11.437  23.952  1.00  0.00     0.054 C
HETATM   36  C24 UNL     1      15.389  10.779  22.853  1.00  0.00     0.058 C
HETATM   37  N9  UNL     1      15.847   9.650  23.245  1.00  0.00    -0.381 N
ATOM     38  H9  UNL     1      16.410   9.021  22.672  1.00  0.00     0.160 HD
BRANCH  29  39
HETATM   39  N5  UNL     1      13.700   6.846  26.277  1.00  0.00    -0.339 NA
HETATM   40  C20 UNL     1      13.124   5.669  26.485  1.00  0.00     0.264 C
HETATM   41  N6  UNL     1      13.696   4.604  27.020  1.00  0.00    -0.362 N
HETATM   42  N7  UNL     1      11.741   5.395  26.126  1.00  0.00    -0.049 NA
ATOM     43  H62 UNL     1      14.666   4.796  27.271  1.00  0.00     0.159 HD
ATOM     44  H61 UNL     1      13.254   3.699  27.179  1.00  0.00     0.159 HD
ENDBRANCH  29  39
ENDBRANCH  25  26
ENDBRANCH  24  25
ENDBRANCH  23  24
ENDBRANCH   1  23
TORSDOF 15
ENDMDL