MODEL 4
REMARK VINA RESULT: -8.145261881      2.104      3.048
REMARK  12 active torsions:
REMARK  status: ('A' for Active; 'I' for Inactive)
REMARK    1  A    between atoms: C2_2  and  C3_3
REMARK    2  A    between atoms: C4_4  and  S1_5
REMARK    3  A    between atoms: C6_8  and  N1_9
REMARK       I    between atoms: N1_9  and  C7_11
REMARK    4  A    between atoms: N3_17  and  C10_18
REMARK    5  A    between atoms: C10_18  and  C11_19
REMARK    6  A    between atoms: C11_19  and  C12_20
REMARK    7  A    between atoms: C12_20  and  C13_21
REMARK    8  A    between atoms: C13_21  and  C14_22
REMARK    9  A    between atoms: C14_22  and  N4_23
REMARK   10  A    between atoms: C16_27  and  C17_28
REMARK   11  A    between atoms: C17_28  and  C18_29
REMARK   12  A    between atoms: C18_29  and  C19_30
ROOT
HETATM    1  N4  UNL     1      17.675   4.530  19.661  1.00  0.00    -0.351 N
HETATM    2  C15 UNL     1      16.772   5.492  19.907  1.00  0.00     0.183 A
HETATM    3  N5  UNL     1      16.851   5.926  21.158  1.00  0.00    -0.354 N
ATOM      4  H5  UNL     1      16.270   6.653  21.579  1.00  0.00     0.166 HD
HETATM    5  C16 UNL     1      17.838   5.235  21.776  1.00  0.00     0.026 A
HETATM    6  C25 UNL     1      18.340   4.368  20.822  1.00  0.00     0.116 A
ENDROOT
BRANCH   1   7
HETATM    7  C14 UNL     1      17.861   3.837  18.398  1.00  0.00     0.129 C
BRANCH   7   8
HETATM    8  C13 UNL     1      19.328   3.722  18.135  1.00  0.00     0.020 C
BRANCH   8   9
HETATM    9  C12 UNL     1      19.707   2.509  17.307  1.00  0.00     0.003 C
BRANCH   9  10
HETATM   10  C11 UNL     1      20.877   1.788  17.910  1.00  0.00     0.020 C
BRANCH  10  11
HETATM   11  C10 UNL     1      20.813   1.823  19.439  1.00  0.00     0.130 C
BRANCH  11  12
HETATM   12  N3  UNL     1      22.068   1.445  20.025  1.00  0.00    -0.342 N
HETATM   13  C3  UNL     1      22.775   2.173  20.887  1.00  0.00     0.057 A
HETATM   14  C4  UNL     1      23.995   1.637  21.340  1.00  0.00     0.102 A
HETATM   15  C6  UNL     1      24.479   0.422  20.942  1.00  0.00     0.130 A
HETATM   16  N2  UNL     1      23.702  -0.287  20.049  1.00  0.00    -0.337 N
HETATM   17  C9  UNL     1      22.544   0.218  19.617  1.00  0.00     0.185 A
ATOM     18  H2  UNL     1      24.012  -1.200  19.717  1.00  0.00     0.168 HD
BRANCH  13  19
HETATM   19  C2  UNL     1      22.404   3.466  21.357  1.00  0.00     0.021 C
HETATM   20  C1  UNL     1      21.612   3.828  22.314  1.00  0.00     0.013 C
ENDBRANCH  13  19
BRANCH  14  21
HETATM   21  S1  UNL     1      24.964   2.566  22.480  1.00  0.00     0.051 S
HETATM   22  C5  UNL     1      24.492   2.031  24.130  1.00  0.00     0.133 C
HETATM   23  O1  UNL     1      26.587   2.322  22.262  1.00  0.00    -0.253 OA
ENDBRANCH  14  21
BRANCH  15  24
HETATM   24  N1  UNL     1      25.537  -0.120  21.310  1.00  0.00    -0.312 N
HETATM   25  C7  UNL     1      25.930  -1.117  22.153  1.00  0.00     0.219 C
HETATM   26  C8  UNL     1      25.927  -2.537  21.714  1.00  0.00     0.117 C
HETATM   27  O2  UNL     1      26.310  -0.872  23.326  1.00  0.00    -0.274 OA
ATOM     28  H1  UNL     1      26.341   0.303  20.848  1.00  0.00     0.170 HD
ENDBRANCH  15  24
ENDBRANCH  11  12
ENDBRANCH  10  11
ENDBRANCH   9  10
ENDBRANCH   8   9
ENDBRANCH   7   8
ENDBRANCH   1   7
BRANCH   5  29
HETATM   29  C17 UNL     1      18.230   5.430  23.174  1.00  0.00     0.064 C
BRANCH  29  30
HETATM   30  C18 UNL     1      18.629   6.851  23.505  1.00  0.00     0.065 C
BRANCH  30  31
HETATM   31  C19 UNL     1      17.681   7.332  24.546  1.00  0.00     0.037 A
HETATM   32  N6  UNL     1      17.609   7.010  25.845  1.00  0.00    -0.366 N
HETATM   33  C20 UNL     1      16.600   7.670  26.446  1.00  0.00     0.107 A
ATOM     34  H6  UNL     1      18.233   6.355  26.314  1.00  0.00     0.165 HD
HETATM   35  C21 UNL     1      15.987   8.455  25.501  1.00  0.00     0.076 A
HETATM   36  C22 UNL     1      14.925   9.332  25.515  1.00  0.00     0.263 A
HETATM   37  C24 UNL     1      16.667   8.238  24.320  1.00  0.00     0.076 A
HETATM   38  O3  UNL     1      14.299   9.537  26.582  1.00  0.00    -0.267 OA
HETATM   39  N7  UNL     1      14.560   9.965  24.389  1.00  0.00    -0.275 N
HETATM   40  C23 UNL     1      15.229   9.743  23.258  1.00  0.00     0.327 A
ATOM     41  H7  UNL     1      13.774  10.614  24.400  1.00  0.00     0.173 HD
HETATM   42  O4  UNL     1      14.908  10.322  22.186  1.00  0.00    -0.247 OA
HETATM   43  N8  UNL     1      16.267   8.890  23.226  1.00  0.00    -0.306 N
ATOM     44  H8  UNL     1      16.760   8.739  22.347  1.00  0.00     0.171 HD
ENDBRANCH  30  31
ENDBRANCH  29  30
ENDBRANCH   5  29
TORSDOF 12
ENDMDL