MODEL 3
REMARK VINA RESULT: -8.095172700      3.819      7.692
REMARK  12 active torsions:
REMARK  status: ('A' for Active; 'I' for Inactive)
REMARK    1  A    between atoms: C6_6  and  C7_7
REMARK    2  A    between atoms: C7_7  and  C8_8
REMARK    3  A    between atoms: C8_8  and  C9_9
REMARK       I    between atoms: C9_9  and  N1_11
REMARK    4  A    between atoms: N1_11  and  C10_13
REMARK    5  A    between atoms: C10_13  and  C11_14
REMARK    6  A    between atoms: C11_14  and  C12_15
REMARK    7  A    between atoms: C12_15  and  C13_16
REMARK    8  A    between atoms: C13_16  and  C14_17
REMARK    9  A    between atoms: C17_22  and  C18_23
REMARK   10  A    between atoms: C23_33  and  N5_34
REMARK   11  A    between atoms: N5_34  and  C26_37
REMARK   12  A    between atoms: C26_37  and  C27_38
ROOT
HETATM    1  C14 UNL     1      17.576   3.802  22.263  1.00  0.00     0.045 A
HETATM    2  N2  UNL     1      18.728   4.101  22.887  1.00  0.00    -0.366 N
ATOM      3  H2  UNL     1      18.792   4.409  23.856  1.00  0.00     0.165 HD
HETATM    4  C15 UNL     1      19.771   3.946  22.084  1.00  0.00     0.102 A
HETATM    5  C16 UNL     1      19.283   3.513  20.844  1.00  0.00     0.018 A
HETATM    6  C17 UNL     1      20.110   3.322  19.674  1.00  0.00     0.050 C
HETATM    7  C23 UNL     1      17.931   3.417  20.953  1.00  0.00     0.170 A
ENDROOT
BRANCH   1   8
HETATM    8  C13 UNL     1      16.249   3.969  22.856  1.00  0.00     0.059 C
BRANCH   8   9
HETATM    9  C12 UNL     1      16.087   5.164  23.773  1.00  0.00     0.008 C
BRANCH   9  10
HETATM   10  C11 UNL     1      15.922   6.413  22.881  1.00  0.00     0.020 C
BRANCH  10  11
HETATM   11  C10 UNL     1      16.259   7.658  23.688  1.00  0.00     0.123 C
BRANCH  11  12
HETATM   12  N1  UNL     1      17.245   7.383  24.689  1.00  0.00    -0.358 N
HETATM   13  C9  UNL     1      17.138   7.892  26.058  1.00  0.00     0.241 C
HETATM   14  O1  UNL     1      16.148   8.643  26.273  1.00  0.00    -0.269 OA
ATOM     15  H1  UNL     1      18.052   6.812  24.439  1.00  0.00     0.162 HD
BRANCH  13  16
HETATM   16  C8  UNL     1      18.107   7.536  27.039  1.00  0.00     0.076 C
BRANCH  16  17
HETATM   17  C7  UNL     1      19.338   6.787  26.739  1.00  0.00     0.036 C
BRANCH  17  18
HETATM   18  C6  UNL     1      20.500   6.955  27.057  1.00  0.00     0.040 A
HETATM   19  C4  UNL     1      21.774   7.136  27.401  1.00  0.00    -0.034 A
HETATM   20  C3  UNL     1      22.970   6.611  27.493  1.00  0.00     0.021 A
HETATM   21  C5  UNL     1      21.824   8.687  27.846  1.00  0.00     0.050 C
HETATM   22  C2  UNL     1      23.099   5.289  27.084  1.00  0.00    -0.029 A
HETATM   23  C1  UNL     1      24.220   4.662  27.117  1.00  0.00     0.025 C
HETATM   24  C29 UNL     1      21.899   4.795  26.655  1.00  0.00     0.101 A
HETATM   25  N7  UNL     1      20.803   5.380  26.607  1.00  0.00    -0.360 N
HETATM   26  C28 UNL     1      19.599   4.696  26.261  1.00  0.00     0.155 C
ENDBRANCH  17  18
ENDBRANCH  16  17
ENDBRANCH  13  16
ENDBRANCH  11  12
ENDBRANCH  10  11
ENDBRANCH   9  10
ENDBRANCH   8   9
ENDBRANCH   1   8
BRANCH   7  27
HETATM   27  N5  UNL     1      16.956   2.986  20.037  1.00  0.00    -0.034 N
HETATM   28  C24 UNL     1      15.660   2.796  20.667  1.00  0.00     0.279 C
HETATM   29  C25 UNL     1      17.411   1.691  19.482  1.00  0.00     0.279 C
BRANCH  27  30
HETATM   30  C26 UNL     1      16.757   3.822  18.885  1.00  0.00     0.342 C
BRANCH  30  31
HETATM   31  C27 UNL     1      16.507   5.255  19.271  1.00  0.00     0.257 C
HETATM   32  N6  UNL     1      15.225   5.821  19.352  1.00  0.00    -0.061 NA
HETATM   33  O3  UNL     1      17.459   6.061  19.557  1.00  0.00    -0.275 OA
ENDBRANCH  30  31
ENDBRANCH  27  30
ENDBRANCH   7  27
BRANCH   6  34
HETATM   34  C18 UNL     1      21.041   2.456  19.444  1.00  0.00     0.103 A
HETATM   35  N3  UNL     1      22.027   2.018  20.241  1.00  0.00    -0.338 N
HETATM   36  C19 UNL     1      22.775   1.107  19.573  1.00  0.00     0.104 A
ATOM     37  H3  UNL     1      22.189   2.322  21.201  1.00  0.00     0.167 HD
HETATM   38  C20 UNL     1      23.827   0.444  19.999  1.00  0.00     0.018 C
HETATM   39  N4  UNL     1      22.254   0.961  18.312  1.00  0.00    -0.308 N
HETATM   40  C21 UNL     1      24.362   0.616  21.349  1.00  0.00     0.040 C
HETATM   41  C22 UNL     1      21.218   1.771  18.245  1.00  0.00     0.273 A
ATOM     42  H4  UNL     1      22.600   0.347  17.574  1.00  0.00     0.170 HD
HETATM   43  O2  UNL     1      20.505   1.880  17.204  1.00  0.00    -0.266 OA
ENDBRANCH   6  34
TORSDOF 12
ENDMDL