MODEL 4
REMARK VINA RESULT: -5.531466070      1.086      1.731
REMARK  4 active torsions:
REMARK  status: ('A' for Active; 'I' for Inactive)
REMARK    1  A    between atoms: C2_2  and  N1_3
REMARK    2  A    between atoms: N3_10  and  C6_11
REMARK    3  A    between atoms: C6_11  and  C7_12
REMARK    4  A    between atoms: C7_12  and  C9_15
ROOT
HETATM    1  N1  UNL     1     -10.566  16.597 -17.459  1.00  0.00    -0.145 N
HETATM    2  C3  UNL     1     -11.596  16.309 -16.557  1.00  0.00     0.292 A
HETATM    3  O1  UNL     1     -11.917  17.142 -15.636  1.00  0.00    -0.265 OA
HETATM    4  C4  UNL     1     -12.353  15.072 -16.606  1.00  0.00     0.148 A
HETATM    5  N2  UNL     1     -13.402  14.611 -15.925  1.00  0.00    -0.345 N
ATOM      6  H2  UNL     1     -13.846  15.078 -15.135  1.00  0.00     0.167 HD
HETATM    7  C5  UNL     1     -13.775  13.455 -16.438  1.00  0.00     0.185 A
HETATM    8  N3  UNL     1     -12.946  13.120 -17.511  1.00  0.00    -0.324 N
HETATM    9  C11 UNL     1     -12.050  14.114 -17.591  1.00  0.00     0.167 A
HETATM   10  N4  UNL     1     -10.975  14.371 -18.520  1.00  0.00    -0.104 N
HETATM   11  C12 UNL     1     -10.477  13.364 -19.353  1.00  0.00     0.198 C
HETATM   12  S1  UNL     1     -10.787  11.799 -19.191  1.00  0.00    -0.040 SA
HETATM   13  N5  UNL     1      -9.293  13.656 -20.135  1.00  0.00    -0.340 N
ATOM     14  H5  UNL     1      -8.748  12.891 -20.534  1.00  0.00     0.164 HD
HETATM   15  C13 UNL     1      -8.881  15.021 -20.354  1.00  0.00     0.115 C
HETATM   16  C14 UNL     1      -9.264  15.595 -21.672  1.00  0.00     0.063 C
HETATM   17  C15 UNL     1      -7.348  14.989 -20.282  1.00  0.00     0.063 C
HETATM   18  N6  UNL     1      -9.336  15.861 -19.299  1.00  0.00    -0.199 N
ATOM     19  H6  UNL     1      -8.869  16.765 -19.215  1.00  0.00     0.180 HD
HETATM   20  C16 UNL     1     -10.257  15.626 -18.444  1.00  0.00     0.695 A
ENDROOT
BRANCH   8  21
HETATM   21  C6  UNL     1     -13.401  12.135 -18.432  1.00  0.00     0.160 C
BRANCH  21  22
HETATM   22  C7  UNL     1     -14.904  12.174 -18.802  1.00  0.00     0.084 C
HETATM   23  C8  UNL     1     -15.634  13.413 -18.582  1.00  0.00     0.037 C
HETATM   24 CL1  UNL     1     -15.693  11.057 -17.555  1.00  0.00    -0.115 Cl
BRANCH  22  25
HETATM   25  C9  UNL     1     -15.265  11.496 -20.073  1.00  0.00     0.132 C
HETATM   26  C10 UNL     1     -15.879  10.098 -19.773  1.00  0.00     0.052 C
HETATM   27 CL2  UNL     1     -16.511  12.268 -21.056  1.00  0.00    -0.100 Cl
HETATM   28 CL3  UNL     1     -13.881  11.171 -21.142  1.00  0.00    -0.100 Cl
ENDBRANCH  22  25
ENDBRANCH  21  22
ENDBRANCH   8  21
BRANCH   1  29
HETATM   29  C2  UNL     1      -9.840  17.832 -17.402  1.00  0.00     0.146 C
HETATM   30  C1  UNL     1     -10.572  18.979 -18.056  1.00  0.00     0.027 C
ENDBRANCH   1  29
TORSDOF 4
ENDMDL