MODEL 3
REMARK VINA RESULT: -6.718340079      5.232      9.174
REMARK  4 active torsions:
REMARK  status: ('A' for Active; 'I' for Inactive)
REMARK    1  A    between atoms: O1_2  and  C2_3
REMARK    2  A    between atoms: C4_5  and  C5_6
REMARK    3  A    between atoms: C12_17  and  C13_18
REMARK    4  A    between atoms: C13_18  and  N1_20
ROOT
HETATM    1  C2  UNL     1     -22.171  19.992 -13.539  1.00  0.00     0.089 A
HETATM    2  C3  UNL     1     -21.656  19.586 -12.347  1.00  0.00     0.051 A
HETATM    3  C4  UNL     1     -20.670  18.574 -12.214  1.00  0.00     0.025 A
HETATM    4  C6  UNL     1     -20.245  18.005 -13.369  1.00  0.00     0.063 A
HETATM    5  C7  UNL     1     -20.761  18.408 -14.629  1.00  0.00     0.104 A
HETATM    6  C8  UNL     1     -21.717  19.397 -14.687  1.00  0.00     0.078 A
HETATM    7 BR1  UNL     1     -22.423  19.953 -16.365  1.00  0.00    -0.045 Br
HETATM    8  O2  UNL     1     -20.394  17.901 -15.846  1.00  0.00    -0.344 OA
HETATM    9  C9  UNL     1     -19.607  16.855 -16.302  1.00  0.00     0.217 C
HETATM   10  C10 UNL     1     -18.412  16.528 -15.477  1.00  0.00     0.007 A
HETATM   11  C11 UNL     1     -17.193  16.094 -15.991  1.00  0.00     0.052 A
HETATM   12  C12 UNL     1     -16.374  15.897 -14.903  1.00  0.00     0.114 A
HETATM   13  O3  UNL     1     -17.008  16.178 -13.790  1.00  0.00    -0.303 OA
HETATM   14  C16 UNL     1     -18.226  16.557 -14.111  1.00  0.00     0.135 A
HETATM   15  C17 UNL     1     -19.262  16.960 -13.146  1.00  0.00     0.220 C
HETATM   16  O4  UNL     1     -19.308  16.373 -12.065  1.00  0.00    -0.284 OA
ENDROOT
BRANCH  12  17
HETATM   17  C13 UNL     1     -14.969  15.430 -14.972  1.00  0.00     0.132 C
HETATM   18  S1  UNL     1     -13.735  16.470 -14.749  1.00  0.00    -0.058 SA
BRANCH  17  19
HETATM   19  N1  UNL     1     -14.687  14.075 -15.236  1.00  0.00    -0.378 N
HETATM   20  C14 UNL     1     -13.405  13.689 -15.747  1.00  0.00     0.150 C
HETATM   21  C15 UNL     1     -15.681  13.056 -14.995  1.00  0.00     0.150 C
ENDBRANCH  17  19
ENDBRANCH  12  17
BRANCH   3  22
HETATM   22  C5  UNL     1     -20.154  18.252 -10.913  1.00  0.00     0.388 C
HETATM   23  F1  UNL     1     -19.269  19.259 -10.430  1.00  0.00    -0.209 F
HETATM   24  F2  UNL     1     -21.258  18.665 -10.095  1.00  0.00    -0.209 F
ENDBRANCH   3  22
BRANCH   1  25
HETATM   25  O1  UNL     1     -23.153  21.007 -13.600  1.00  0.00    -0.354 OA
HETATM   26  C1  UNL     1     -23.171  21.981 -12.569  1.00  0.00     0.210 C
ENDBRANCH   1  25
TORSDOF 4
ENDMDL