MODEL 1
REMARK VINA RESULT: -7.909351667      0.000      0.000
REMARK  3 active torsions:
REMARK  status: ('A' for Active; 'I' for Inactive)
REMARK    1  A    between atoms: C4_4  and  S1_5
REMARK    2  A    between atoms: S1_5  and  N1_8
REMARK    3  A    between atoms: N3_19  and  C11_20
ROOT
HETATM    1  C1  UNL     1     -20.436  14.835 -15.412  1.00  0.00     0.070 C
HETATM    2  C2  UNL     1     -19.069  15.389 -15.107  1.00  0.00     0.034 A
HETATM    3  C3  UNL     1     -17.845  14.817 -15.371  1.00  0.00     0.071 A
HETATM    4  C4  UNL     1     -16.892  15.700 -14.907  1.00  0.00     0.166 A
HETATM    5  N2  UNL     1     -17.559  16.750 -14.394  1.00  0.00    -0.281 N
ATOM      6  H2  UNL     1     -17.117  17.568 -13.975  1.00  0.00     0.188 HD
HETATM    7  N3  UNL     1     -18.864  16.576 -14.506  1.00  0.00    -0.257 N
ENDROOT
BRANCH   4   8
HETATM    8  S1  UNL     1     -15.171  15.529 -14.955  1.00  0.00     0.284 S
HETATM    9  O1  UNL     1     -14.556  16.882 -15.135  1.00  0.00    -0.198 OA
HETATM   10  O2  UNL     1     -14.716  15.009 -13.600  1.00  0.00    -0.198 OA
BRANCH   8  11
HETATM   11  N1  UNL     1     -14.627  14.476 -16.204  1.00  0.00    -0.235 N
HETATM   12  C5  UNL     1     -15.562  14.121 -17.248  1.00  0.00     0.176 C
HETATM   13  C6  UNL     1     -14.995  13.291 -18.342  1.00  0.00     0.137 C
HETATM   14  C7  UNL     1     -15.527  11.873 -18.266  1.00  0.00     0.041 C
HETATM   15  O3  UNL     1     -13.650  13.357 -18.541  1.00  0.00    -0.370 OA
HETATM   16  C8  UNL     1     -12.847  13.246 -17.439  1.00  0.00     0.211 C
HETATM   17  C9  UNL     1     -12.465  11.809 -17.111  1.00  0.00     0.050 C
HETATM   18  C10 UNL     1     -13.326  13.951 -16.257  1.00  0.00     0.262 C
HETATM   19  O4  UNL     1     -12.560  14.090 -15.276  1.00  0.00    -0.269 OA
ENDBRANCH   8  11
ENDBRANCH   4   8
BRANCH   7  20
HETATM   20  C11 UNL     1     -19.901  17.447 -14.079  1.00  0.00     0.100 A
HETATM   21  C12 UNL     1     -20.372  18.468 -14.870  1.00  0.00     0.066 A
HETATM   22 CL1  UNL     1     -19.665  18.700 -16.455  1.00  0.00    -0.082 Cl
HETATM   23  C13 UNL     1     -21.382  19.314 -14.459  1.00  0.00     0.050 A
HETATM   24  C14 UNL     1     -21.952  19.155 -13.229  1.00  0.00     0.037 A
HETATM   25 CL2  UNL     1     -23.231  20.263 -12.761  1.00  0.00    -0.084 Cl
HETATM   26  C15 UNL     1     -21.511  18.139 -12.392  1.00  0.00     0.050 A
HETATM   27  C16 UNL     1     -20.497  17.305 -12.828  1.00  0.00     0.066 A
HETATM   28 CL3  UNL     1     -19.920  16.015 -11.801  1.00  0.00    -0.082 Cl
ENDBRANCH   7  20
TORSDOF 3
ENDMDL