MODEL 5
REMARK VINA RESULT: -6.676164350      5.340     10.431
REMARK  5 active torsions:
REMARK  status: ('A' for Active; 'I' for Inactive)
REMARK    1  A    between atoms: C2_2  and  O2_4
REMARK    2  A    between atoms: O2_4  and  C3_5
REMARK    3  A    between atoms: C3_5  and  C4_6
REMARK    4  A    between atoms: C16_19  and  O3_20
REMARK    5  A    between atoms: O3_20  and  C17_21
ROOT
HETATM    1  C4  UNL     1     -14.862  13.330 -17.723  1.00  0.00     0.050 C
HETATM    2  C5  UNL     1     -15.216  14.748 -18.126  1.00  0.00     0.020 C
HETATM    3  C6  UNL     1     -14.085  15.558 -17.530  1.00  0.00     0.002 C
HETATM    4  C7  UNL     1     -12.899  14.702 -17.827  1.00  0.00     0.011 C
HETATM    5  C8  UNL     1     -13.380  13.286 -17.528  1.00  0.00    -0.023 C
HETATM    6  C9  UNL     1     -12.941  12.966 -16.141  1.00  0.00     0.017 C
HETATM    7  C10 UNL     1     -12.820  12.370 -18.579  1.00  0.00     0.007 C
HETATM    8  C11 UNL     1     -11.708  11.498 -18.129  1.00  0.00     0.007 C
HETATM    9  C12 UNL     1     -11.406  10.510 -19.237  1.00  0.00     0.012 C
HETATM   10  C13 UNL     1     -12.568   9.693 -19.660  1.00  0.00    -0.015 C
HETATM   11  C14 UNL     1     -12.892   8.672 -18.579  1.00  0.00     0.017 C
HETATM   12  C15 UNL     1     -12.310   9.043 -20.984  1.00  0.00     0.126 C
HETATM   13 CL1  UNL     1     -12.459   7.261 -20.846  1.00  0.00    -0.121 Cl
HETATM   14  C16 UNL     1     -13.349   9.562 -21.957  1.00  0.00     0.223 C
HETATM   15  C19 UNL     1     -13.721  10.906 -21.300  1.00  0.00     0.276 C
HETATM   16  F1  UNL     1     -12.727  11.762 -21.616  1.00  0.00    -0.203 F
HETATM   17  F2  UNL     1     -14.878  11.313 -21.907  1.00  0.00    -0.203 F
HETATM   18  C20 UNL     1     -13.835  10.492 -19.900  1.00  0.00     0.082 C
HETATM   19  C21 UNL     1     -13.997  11.452 -18.833  1.00  0.00     0.072 C
HETATM   20  C22 UNL     1     -15.132  12.361 -18.844  1.00  0.00     0.143 C
HETATM   21  O5  UNL     1     -16.134  12.444 -19.533  1.00  0.00    -0.297 OA
ENDROOT
BRANCH   1  22
HETATM   22  C3  UNL     1     -15.658  13.010 -16.499  1.00  0.00     0.196 C
BRANCH  22  23
HETATM   23  O2  UNL     1     -16.840  13.727 -16.368  1.00  0.00    -0.321 OA
BRANCH  23  24
HETATM   24  C2  UNL     1     -17.219  14.271 -15.181  1.00  0.00     0.254 C
HETATM   25  C1  UNL     1     -16.204  15.106 -14.446  1.00  0.00     0.126 C
HETATM   26  O1  UNL     1     -18.371  14.097 -14.697  1.00  0.00    -0.266 OA
ENDBRANCH  23  24
ENDBRANCH  22  23
ENDBRANCH   1  22
BRANCH  14  27
HETATM   27  O3  UNL     1     -12.672   9.786 -23.188  1.00  0.00    -0.309 OA
BRANCH  27  28
HETATM   28  C17 UNL     1     -12.104   8.779 -23.938  1.00  0.00     0.255 C
HETATM   29  C18 UNL     1     -10.660   8.731 -24.288  1.00  0.00     0.126 C
HETATM   30  O4  UNL     1     -12.853   7.854 -24.345  1.00  0.00    -0.266 OA
ENDBRANCH  27  28
ENDBRANCH  14  27
TORSDOF 5
ENDMDL