MODEL 3
REMARK VINA RESULT: -6.311895613      3.496      6.260
REMARK  6 active torsions:
REMARK  status: ('A' for Active; 'I' for Inactive)
REMARK    1  A    between atoms: O1_2  and  C2_3
REMARK    2  A    between atoms: C6_8  and  S1_9
REMARK    3  A    between atoms: S1_9  and  C7_10
REMARK    4  A    between atoms: N1_20  and  C12_21
REMARK    5  A    between atoms: C12_21  and  O4_22
REMARK    6  A    between atoms: C12_21  and  N2_24
ROOT
HETATM    1  C7  UNL     1     -14.948  13.977 -16.350  1.00  0.00     0.105 C
HETATM    2  C8  UNL     1     -15.515  14.839 -17.469  1.00  0.00     0.053 C
HETATM    3  C9  UNL     1     -15.463  12.572 -16.410  1.00  0.00     0.099 C
HETATM    4  C10 UNL     1     -14.821  11.919 -17.559  1.00  0.00     0.094 C
HETATM    5  C11 UNL     1     -15.276  11.045 -18.376  1.00  0.00     0.122 C
HETATM    6 CL1  UNL     1     -14.348  10.359 -19.719  1.00  0.00    -0.070 Cl
HETATM    7 CL2  UNL     1     -16.926  10.464 -18.184  1.00  0.00    -0.070 Cl
HETATM    8  S2  UNL     1     -13.191  12.646 -17.562  1.00  0.00     0.268 S
HETATM    9  O2  UNL     1     -12.237  11.651 -17.016  1.00  0.00    -0.200 OA
HETATM   10  O3  UNL     1     -12.868  13.115 -18.953  1.00  0.00    -0.200 OA
HETATM   11  N1  UNL     1     -13.490  13.935 -16.476  1.00  0.00    -0.216 N
ENDROOT
BRANCH   1  12
HETATM   12  S1  UNL     1     -15.486  14.690 -14.792  1.00  0.00    -0.094 SA
BRANCH  12  13
HETATM   13  C6  UNL     1     -16.957  15.680 -14.987  1.00  0.00     0.044 A
HETATM   14  C5  UNL     1     -18.164  15.142 -15.423  1.00  0.00     0.133 A
HETATM   15  C4  UNL     1     -19.261  15.976 -15.550  1.00  0.00     0.046 A
HETATM   16  F1  UNL     1     -18.239  13.816 -15.715  1.00  0.00    -0.205 F
HETATM   17  C3  UNL     1     -19.217  17.327 -15.262  1.00  0.00     0.040 A
HETATM   18  C2  UNL     1     -18.016  17.853 -14.829  1.00  0.00     0.069 A
HETATM   19  C15 UNL     1     -16.912  17.029 -14.699  1.00  0.00     0.058 A
BRANCH  18  20
HETATM   20  O1  UNL     1     -17.980  19.211 -14.542  1.00  0.00    -0.356 OA
HETATM   21  C1  UNL     1     -16.744  19.885 -14.311  1.00  0.00     0.210 C
ENDBRANCH  18  20
ENDBRANCH  12  13
ENDBRANCH   1  12
BRANCH  11  22
HETATM   22  C12 UNL     1     -12.612  14.791 -15.834  1.00  0.00     0.232 C
BRANCH  22  23
HETATM   23  O4  UNL     1     -12.109  14.300 -14.725  1.00  0.00    -0.332 OA
ATOM     24  H4  UNL     1     -12.721  14.292 -13.998  1.00  0.00     0.221 HD
ENDBRANCH  22  23
BRANCH  22  25
HETATM   25  N2  UNL     1     -12.171  16.079 -16.163  1.00  0.00    -0.355 N
HETATM   26  C13 UNL     1     -11.417  16.517 -17.299  1.00  0.00     0.152 C
HETATM   27  C14 UNL     1     -12.524  17.150 -15.207  1.00  0.00     0.152 C
ENDBRANCH  22  25
ENDBRANCH  11  22
TORSDOF 6
ENDMDL