MODEL 3
REMARK VINA RESULT: -6.748650815      3.192      4.047
REMARK  3 active torsions:
REMARK  status: ('A' for Active; 'I' for Inactive)
REMARK    1  A    between atoms: O1_2  and  C2_3
REMARK    2  A    between atoms: N1_7  and  S2_9
REMARK    3  A    between atoms: S2_9  and  C5_12
ROOT
HETATM    1  S2  UNL     1     -20.559  18.436 -12.161  1.00  0.00     0.265 S
HETATM    2  O2  UNL     1     -20.345  19.338 -10.962  1.00  0.00    -0.200 OA
HETATM    3  O3  UNL     1     -21.258  17.198 -11.641  1.00  0.00    -0.200 OA
ENDROOT
BRANCH   1   4
HETATM    4  N1  UNL     1     -19.072  18.028 -12.902  1.00  0.00    -0.269 N
HETATM    5  C4  UNL     1     -19.011  16.928 -13.540  1.00  0.00     0.119 C
HETATM    6  S1  UNL     1     -20.249  15.667 -13.823  1.00  0.00    -0.101 SA
HETATM    7  S3  UNL     1     -17.544  16.336 -14.377  1.00  0.00    -0.072 SA
HETATM    8  C3  UNL     1     -19.460  14.720 -15.182  1.00  0.00     0.124 C
HETATM    9  C2  UNL     1     -18.041  14.606 -14.731  1.00  0.00     0.198 C
ATOM     10  H1  UNL     1     -18.262  18.645 -12.835  1.00  0.00     0.180 HD
BRANCH   9  11
HETATM   11  O1  UNL     1     -17.204  14.022 -15.649  1.00  0.00    -0.379 OA
HETATM   12  C1  UNL     1     -16.396  15.018 -16.199  1.00  0.00     0.203 C
ENDBRANCH   9  11
ENDBRANCH   1   4
BRANCH   1  13
HETATM   13  C5  UNL     1     -21.551  19.240 -13.352  1.00  0.00     0.099 A
HETATM   14  C6  UNL     1     -21.137  19.392 -14.638  1.00  0.00     0.052 A
HETATM   15  C7  UNL     1     -21.936  20.028 -15.548  1.00  0.00     0.057 A
HETATM   16 CL1  UNL     1     -21.439  20.243 -17.213  1.00  0.00    -0.083 Cl
HETATM   17  C8  UNL     1     -23.166  20.517 -15.165  1.00  0.00     0.057 A
HETATM   18 CL2  UNL     1     -24.209  21.333 -16.307  1.00  0.00    -0.083 Cl
HETATM   19  C9  UNL     1     -23.577  20.354 -13.844  1.00  0.00     0.046 A
HETATM   20  C10 UNL     1     -22.778  19.721 -12.943  1.00  0.00     0.036 A
HETATM   21 BR1  UNL     1     -23.363  19.512 -11.141  1.00  0.00    -0.049 Br
ENDBRANCH   1  13
TORSDOF 3
ENDMDL