MODEL 3
REMARK VINA RESULT: -6.730956794      7.752     11.464
REMARK  5 active torsions:
REMARK  status: ('A' for Active; 'I' for Inactive)
REMARK    1  A    between atoms: O1_2  and  C2_3
REMARK    2  A    between atoms: C2_3  and  C3_5
REMARK    3  A    between atoms: N2_14  and  C10_16
REMARK    4  A    between atoms: C10_16  and  C11_18
REMARK    5  A    between atoms: C11_18  and  C12_20
ROOT
HETATM    1  C3  UNL     1     -14.480  11.016 -19.410  1.00  0.00     0.155 C
HETATM    2  C4  UNL     1     -14.113  11.046 -20.871  1.00  0.00    -0.003 C
HETATM    3  C5  UNL     1     -12.874  11.299 -21.236  1.00  0.00     0.049 C
HETATM    4  C6  UNL     1     -11.800  11.558 -20.316  1.00  0.00     0.172 C
HETATM    5  O3  UNL     1     -10.629  11.663 -20.761  1.00  0.00    -0.291 OA
HETATM    6  C7  UNL     1     -12.090  11.700 -18.856  1.00  0.00     0.212 C
HETATM    7  C8  UNL     1     -11.739  10.404 -18.250  1.00  0.00     0.078 C
HETATM    8  N1  UNL     1     -11.481   9.386 -17.767  1.00  0.00    -0.196 NA
HETATM    9  C9  UNL     1     -13.543  11.931 -18.725  1.00  0.00     0.026 C
HETATM   10  N2  UNL     1     -13.980  12.902 -18.035  1.00  0.00    -0.375 N
ATOM     11  H2  UNL     1     -14.992  13.018 -17.978  1.00  0.00     0.160 HD
ENDROOT
BRANCH   1  12
HETATM   12  C2  UNL     1     -15.900  11.436 -19.235  1.00  0.00     0.271 C
HETATM   13  O2  UNL     1     -16.374  12.336 -19.973  1.00  0.00    -0.264 OA
BRANCH  12  14
HETATM   14  O1  UNL     1     -16.710  10.871 -18.289  1.00  0.00    -0.326 OA
HETATM   15  C1  UNL     1     -17.356   9.615 -18.451  1.00  0.00     0.213 C
ENDBRANCH  12  14
ENDBRANCH   1  12
BRANCH  10  16
HETATM   16  C10 UNL     1     -13.177  13.837 -17.339  1.00  0.00     0.202 C
HETATM   17 CL1  UNL     1     -13.710  15.524 -17.651  1.00  0.00    -0.101 Cl
BRANCH  16  18
HETATM   18  C11 UNL     1     -13.359  13.617 -15.841  1.00  0.00     0.159 C
HETATM   19 CL2  UNL     1     -12.095  14.532 -14.998  1.00  0.00    -0.116 Cl
BRANCH  18  20
HETATM   20  C12 UNL     1     -14.700  14.120 -15.428  1.00  0.00     0.005 A
HETATM   21  C13 UNL     1     -15.000  15.050 -14.468  1.00  0.00     0.018 A
HETATM   22  C14 UNL     1     -16.288  15.344 -14.272  1.00  0.00     0.028 A
HETATM   23  C15 UNL     1     -17.212  14.693 -15.045  1.00  0.00     0.051 A
HETATM   24 BR1  UNL     1     -19.130  14.882 -15.014  1.00  0.00    -0.043 Br
HETATM   25  S1  UNL     1     -16.237  13.685 -16.025  1.00  0.00    -0.086 SA
ENDBRANCH  18  20
ENDBRANCH  16  18
ENDBRANCH  10  16
TORSDOF 5
ENDMDL