MODEL 4
REMARK VINA RESULT: -7.594266197      4.902      7.262
REMARK  3 active torsions:
REMARK  status: ('A' for Active; 'I' for Inactive)
REMARK    1  A    between atoms: C3_3  and  S1_4
REMARK    2  A    between atoms: S1_4  and  C4_7
REMARK    3  A    between atoms: C12_18  and  N1_19
ROOT
HETATM    1  C1  UNL     1     -17.457  17.665 -13.660  1.00  0.00     0.051 C
HETATM    2  C2  UNL     1     -17.896  16.350 -14.185  1.00  0.00    -0.017 A
HETATM    3  C3  UNL     1     -19.166  15.900 -13.948  1.00  0.00     0.071 A
HETATM    4  C10 UNL     1     -19.465  14.633 -14.481  1.00  0.00     0.027 A
HETATM    5  C11 UNL     1     -18.542  13.911 -15.187  1.00  0.00     0.039 A
HETATM    6  C12 UNL     1     -17.248  14.374 -15.427  1.00  0.00     0.124 A
HETATM    7  C13 UNL     1     -16.950  15.608 -14.909  1.00  0.00     0.085 A
HETATM    8  C14 UNL     1     -15.629  16.137 -15.122  1.00  0.00     0.102 C
HETATM    9  N2  UNL     1     -14.555  16.586 -15.280  1.00  0.00    -0.191 NA
ENDROOT
BRANCH   6  10
HETATM   10  N1  UNL     1     -16.322  13.589 -16.163  1.00  0.00    -0.114 N
HETATM   11  O3  UNL     1     -15.745  12.626 -15.633  1.00  0.00    -0.532 OA
HETATM   12  O4  UNL     1     -16.037  13.868 -17.469  1.00  0.00    -0.532 OA
ENDBRANCH   6  10
BRANCH   3  13
HETATM   13  S1  UNL     1     -20.373  16.790 -13.078  1.00  0.00     0.207 S
HETATM   14  O1  UNL     1     -21.536  15.866 -12.727  1.00  0.00    -0.217 OA
HETATM   15  O2  UNL     1     -19.871  17.257 -11.716  1.00  0.00    -0.217 OA
BRANCH  13  16
HETATM   16  C4  UNL     1     -21.038  18.149 -13.899  1.00  0.00     0.067 A
HETATM   17  C5  UNL     1     -20.583  18.461 -15.160  1.00  0.00     0.049 A
HETATM   18  C6  UNL     1     -21.101  19.551 -15.857  1.00  0.00     0.058 A
HETATM   19 CL1  UNL     1     -20.504  19.932 -17.469  1.00  0.00    -0.082 Cl
HETATM   20  C7  UNL     1     -22.080  20.338 -15.298  1.00  0.00     0.073 A
HETATM   21 CL2  UNL     1     -22.755  21.719 -16.153  1.00  0.00    -0.081 Cl
HETATM   22  C8  UNL     1     -22.544  20.036 -14.038  1.00  0.00     0.035 A
HETATM   23 BR1  UNL     1     -23.918  21.126 -13.230  1.00  0.00    -0.049 Br
HETATM   24  C9  UNL     1     -22.018  18.960 -13.373  1.00  0.00     0.044 A
ENDBRANCH  13  16
ENDBRANCH   3  13
TORSDOF 3
ENDMDL