MODEL 3
REMARK VINA RESULT: -6.085279390      8.724     12.612
REMARK  5 active torsions:
REMARK  status: ('A' for Active; 'I' for Inactive)
REMARK    1  A    between atoms: C4_4  and  C5_5
REMARK    2  A    between atoms: C6_9  and  N1_10
REMARK    3  A    between atoms: C17_23  and  O3_25
REMARK    4  A    between atoms: O3_25  and  C19_26
REMARK    5  A    between atoms: C19_26  and  C20_28
ROOT
HETATM    1  C1  UNL     1     -12.149  13.257 -18.121  1.00  0.00     0.014 C
HETATM    2  C2  UNL     1     -12.975  12.363 -18.968  1.00  0.00     0.025 C
HETATM    3  C3  UNL     1     -12.276  11.399 -19.857  1.00  0.00     0.017 C
HETATM    4  C4  UNL     1     -11.182  11.870 -20.738  1.00  0.00     0.113 C
HETATM    5  C6  UNL     1     -11.474  11.434 -22.139  1.00  0.00     0.233 C
HETATM    6  C9  UNL     1     -11.884  10.008 -22.266  1.00  0.00     0.041 C
HETATM    7  C10 UNL     1     -12.842   9.509 -21.234  1.00  0.00    -0.005 C
HETATM    8  C11 UNL     1     -14.010   8.855 -21.998  1.00  0.00     0.011 C
HETATM    9  C12 UNL     1     -13.418  10.660 -20.460  1.00  0.00    -0.001 C
HETATM   10  C13 UNL     1     -14.410  11.334 -21.294  1.00  0.00     0.019 C
HETATM   11  C14 UNL     1     -14.130  10.267 -19.171  1.00  0.00     0.119 C
HETATM   12  C15 UNL     1     -13.914   8.902 -18.667  1.00  0.00     0.153 C
HETATM   13  C16 UNL     1     -15.331   9.057 -18.245  1.00  0.00     0.262 C
HETATM   14  O1  UNL     1     -16.103   8.638 -17.357  1.00  0.00    -0.265 OA
HETATM   15  O2  UNL     1     -15.507   9.947 -19.324  1.00  0.00    -0.305 OA
HETATM   16  C17 UNL     1     -13.888  11.431 -18.231  1.00  0.00     0.103 C
HETATM   17  C18 UNL     1     -12.990  10.897 -17.065  1.00  0.00     0.050 C
ENDROOT
BRANCH  16  18
HETATM   18  O3  UNL     1     -14.955  11.847 -17.548  1.00  0.00    -0.307 OA
BRANCH  18  19
HETATM   19  C19 UNL     1     -15.310  12.417 -16.403  1.00  0.00     0.264 C
HETATM   20  O4  UNL     1     -15.760  11.622 -15.569  1.00  0.00    -0.265 OA
BRANCH  19  21
HETATM   21  C20 UNL     1     -15.210  13.873 -16.069  1.00  0.00     0.085 A
HETATM   22  C21 UNL     1     -15.436  14.805 -17.246  1.00  0.00     0.015 A
HETATM   23  C22 UNL     1     -16.522  14.635 -16.279  1.00  0.00     0.015 A
ENDBRANCH  19  21
ENDBRANCH  18  19
ENDBRANCH  16  18
BRANCH   4  24
HETATM   24  C5  UNL     1      -9.825  11.330 -20.261  1.00  0.00     0.326 C
HETATM   25  F1  UNL     1      -9.470  10.157 -20.891  1.00  0.00    -0.187 F
HETATM   26  F2  UNL     1      -9.904  10.943 -18.910  1.00  0.00    -0.187 F
HETATM   27 CL1  UNL     1      -8.528  12.527 -20.294  1.00  0.00    -0.048 Cl
ENDBRANCH   4  24
BRANCH   5  28
HETATM   28  N1  UNL     1     -10.483  11.755 -23.137  1.00  0.00     0.085 N
HETATM   29  C7  UNL     1     -10.818  13.000 -23.838  1.00  0.00     0.309 C
HETATM   30  C8  UNL     1     -10.519  10.718 -24.150  1.00  0.00     0.309 C
ENDBRANCH   5  28
TORSDOF 5
ENDMDL