MODEL 4
REMARK VINA RESULT: -7.294442472      0.844      1.217
REMARK  2 active torsions:
REMARK  status: ('A' for Active; 'I' for Inactive)
REMARK    1  A    between atoms: C4_6  and  C5_7
REMARK    2  A    between atoms: C8_10  and  S1_11
ROOT
HETATM    1  C1  UNL     1      -7.685  14.447 -20.580  1.00  0.00     0.159 C
HETATM    2  N1  UNL     1      -8.900  14.488 -19.794  1.00  0.00    -0.325 N
HETATM    3  C2  UNL     1      -9.255  15.555 -19.058  1.00  0.00     0.137 A
HETATM    4  C3  UNL     1     -10.383  15.648 -18.305  1.00  0.00     0.144 A
HETATM    5  F1  UNL     1     -10.730  16.730 -17.566  1.00  0.00    -0.204 F
HETATM    6  C4  UNL     1     -11.244  14.527 -18.303  1.00  0.00     0.031 A
HETATM    7  C12 UNL     1     -10.910  13.426 -19.043  1.00  0.00     0.057 A
HETATM    8  C13 UNL     1     -11.758  12.258 -19.070  1.00  0.00    -0.016 A
HETATM    9  C14 UNL     1     -12.294  11.869 -20.292  1.00  0.00     0.038 A
HETATM   10  C15 UNL     1     -13.108  10.770 -20.443  1.00  0.00     0.058 A
HETATM   11 CL1  UNL     1     -13.771  10.305 -22.005  1.00  0.00    -0.082 Cl
HETATM   12  C16 UNL     1     -13.415  10.007 -19.322  1.00  0.00     0.076 A
HETATM   13 CL2  UNL     1     -14.454   8.600 -19.506  1.00  0.00    -0.081 Cl
HETATM   14  C17 UNL     1     -12.893  10.369 -18.084  1.00  0.00     0.068 A
HETATM   15  C18 UNL     1     -13.234   9.553 -16.949  1.00  0.00     0.101 C
HETATM   16  N2  UNL     1     -13.511   8.880 -16.048  1.00  0.00    -0.191 NA
HETATM   17  C19 UNL     1     -12.080  11.479 -17.977  1.00  0.00     0.037 A
HETATM   18  C20 UNL     1      -9.727  13.435 -19.781  1.00  0.00     0.259 A
HETATM   19  O3  UNL     1      -9.456  12.403 -20.450  1.00  0.00    -0.267 OA
ENDROOT
BRANCH   6  20
HETATM   20  C5  UNL     1     -12.463  14.542 -17.532  1.00  0.00    -0.022 A
HETATM   21  C6  UNL     1     -12.437  14.268 -16.186  1.00  0.00     0.014 A
HETATM   22  C7  UNL     1     -13.561  14.279 -15.392  1.00  0.00     0.024 A
HETATM   23  C8  UNL     1     -14.771  14.573 -15.949  1.00  0.00     0.058 A
HETATM   24  C10 UNL     1     -14.849  14.857 -17.307  1.00  0.00     0.024 A
HETATM   25  C11 UNL     1     -13.681  14.837 -18.082  1.00  0.00     0.014 A
BRANCH  23  26
HETATM   26  S1  UNL     1     -16.212  14.597 -14.954  1.00  0.00     0.171 S
HETATM   27  C9  UNL     1     -17.376  15.753 -15.668  1.00  0.00     0.167 C
HETATM   28  O1  UNL     1     -15.894  15.132 -13.570  1.00  0.00    -0.223 OA
HETATM   29  O2  UNL     1     -16.839  13.256 -14.811  1.00  0.00    -0.223 OA
ENDBRANCH  23  26
ENDBRANCH   6  20
TORSDOF 2
ENDMDL