MODEL 4
REMARK VINA RESULT: -7.451455333      2.796      9.432
REMARK  9 active torsions:
REMARK  status: ('A' for Active; 'I' for Inactive)
REMARK    1  A    between atoms: C2_2  and  N1_3
REMARK       I    between atoms: N1_3  and  C3_5
REMARK       I    between atoms: C3_5  and  N3_9
REMARK    2  A    between atoms: N3_9  and  C4_11
REMARK    3  A    between atoms: C4_11  and  C5_12
REMARK    4  A    between atoms: C5_12  and  C6_13
REMARK    5  A    between atoms: C6_13  and  C7_14
REMARK       I    between atoms: C7_14  and  N4_16
REMARK       I    between atoms: N5_19  and  C10_20
REMARK    6  A    between atoms: C10_20  and  C11_22
REMARK    7  A    between atoms: C11_22  and  N6_23
REMARK    8  A    between atoms: N7_26  and  C14_27
REMARK    9  A    between atoms: C14_27  and  C15_28
ROOT
HETATM    1  C7  UNL     1      18.004   1.377  17.753  1.00  0.00     0.221 C
HETATM    2  O1  UNL     1      17.166   0.536  17.297  1.00  0.00    -0.273 OA
HETATM    3  N4  UNL     1      17.616   2.138  18.878  1.00  0.00    -0.334 N
HETATM    4  C8  UNL     1      16.344   2.037  19.563  1.00  0.00     0.147 C
HETATM    5  C9  UNL     1      16.709   2.399  20.975  1.00  0.00     0.147 C
HETATM    6  N5  UNL     1      17.922   3.143  20.883  1.00  0.00    -0.330 N
HETATM    7  C10 UNL     1      18.543   3.799  22.014  1.00  0.00     0.268 C
HETATM    8  O2  UNL     1      19.606   4.423  21.788  1.00  0.00    -0.267 OA
HETATM    9  C22 UNL     1      18.413   3.135  19.538  1.00  0.00     0.255 C
ENDROOT
BRANCH   7  10
HETATM   10  C11 UNL     1      17.934   3.720  23.353  1.00  0.00     0.279 C
BRANCH  10  11
HETATM   11  N6  UNL     1      17.075   4.809  23.590  1.00  0.00    -0.011 N
HETATM   12  C12 UNL     1      17.326   5.961  22.783  1.00  0.00     0.273 C
HETATM   13  C13 UNL     1      16.784   7.129  23.626  1.00  0.00     0.268 C
HETATM   14  N7  UNL     1      16.311   6.462  24.822  1.00  0.00    -0.034 N
HETATM   15  C18 UNL     1      15.141   5.713  24.499  1.00  0.00     0.273 C
HETATM   16  C21 UNL     1      17.298   5.401  24.936  1.00  0.00     0.479 C
HETATM   17  C19 UNL     1      15.680   4.531  23.677  1.00  0.00     0.220 C
HETATM   18  C20 UNL     1      15.367   3.281  24.463  1.00  0.00     0.043 C
BRANCH  14  19
HETATM   19  C14 UNL     1      16.224   7.304  25.958  1.00  0.00     0.297 C
BRANCH  19  20
HETATM   20  C15 UNL     1      15.312   8.460  25.785  1.00  0.00     0.053 A
HETATM   21  C16 UNL     1      14.182   8.694  26.535  1.00  0.00     0.117 A
HETATM   22  N8  UNL     1      13.580   9.822  26.120  1.00  0.00    -0.341 N
HETATM   23  C17 UNL     1      14.336  10.295  25.108  1.00  0.00     0.176 A
ATOM     24  H8  UNL     1      12.726  10.235  26.495  1.00  0.00     0.167 HD
HETATM   25  S1  UNL     1      13.955  11.683  24.297  1.00  0.00    -0.041 SA
HETATM   26  N9  UNL     1      15.363   9.480  24.913  1.00  0.00    -0.334 N
ATOM     27  H9  UNL     1      16.086   9.608  24.204  1.00  0.00     0.168 HD
ENDBRANCH  19  20
ENDBRANCH  14  19
ENDBRANCH  10  11
ENDBRANCH   7  10
BRANCH   1  28
HETATM   28  C6  UNL     1      19.340   1.570  17.151  1.00  0.00     0.105 C
BRANCH  28  29
HETATM   29  C5  UNL     1      20.476   0.994  17.922  1.00  0.00     0.029 C
BRANCH  29  30
HETATM   30  C4  UNL     1      21.687   1.889  17.926  1.00  0.00     0.138 C
BRANCH  30  31
HETATM   31  N3  UNL     1      22.583   1.542  19.023  1.00  0.00    -0.227 N
HETATM   32  C3  UNL     1      22.130   1.800  20.341  1.00  0.00     0.667 C
HETATM   33  N1  UNL     1      21.840   0.729  21.251  1.00  0.00    -0.227 N
HETATM   34  N2  UNL     1      21.973   3.014  20.740  1.00  0.00    -0.235 N
ATOM     35  H1  UNL     1      21.223   0.898  22.045  1.00  0.00     0.177 HD
ATOM     36  H22 UNL     1      21.647   3.200  21.688  1.00  0.00     0.174 HD
ATOM     37  H21 UNL     1      22.179   3.775  20.092  1.00  0.00     0.174 HD
ATOM     38  H3  UNL     1      23.499   1.130  18.848  1.00  0.00     0.177 HD
BRANCH  33  39
HETATM   39  C2  UNL     1      22.410  -0.588  21.060  1.00  0.00     0.133 C
HETATM   40  C1  UNL     1      23.845  -0.586  21.553  1.00  0.00     0.027 C
ENDBRANCH  33  39
ENDBRANCH  30  31
ENDBRANCH  29  30
ENDBRANCH  28  29
ENDBRANCH   1  28
TORSDOF 9
ENDMDL