MODEL 2
REMARK VINA RESULT: -8.258645827      5.636      8.199
REMARK  11 active torsions:
REMARK  status: ('A' for Active; 'I' for Inactive)
REMARK    1  A    between atoms: C2_2  and  C3_3
REMARK       I    between atoms: C3_3  and  N1_5
REMARK    2  A    between atoms: N1_5  and  C4_7
REMARK    3  A    between atoms: C4_7  and  C6_9
REMARK    4  A    between atoms: C4_7  and  C18_37
REMARK       I    between atoms: N2_13  and  C10_14
REMARK    5  A    between atoms: C10_14  and  C11_16
REMARK    6  A    between atoms: C11_16  and  C12_17
REMARK    7  A    between atoms: C11_16  and  N8_32
REMARK    8  A    between atoms: C12_17  and  C13_18
REMARK    9  A    between atoms: C15_22  and  N4_23
REMARK   10  A    between atoms: N4_23  and  N5_25
REMARK       I    between atoms: N8_32  and  C16_34
REMARK   11  A    between atoms: C18_37  and  C21_40
ROOT
HETATM    1  C6  UNL     1      19.433   6.382  28.278  1.00  0.00     0.021 C
HETATM    2  C7  UNL     1      19.057   5.020  28.853  1.00  0.00     0.057 C
HETATM    3  C8  UNL     1      17.801   5.428  29.575  1.00  0.00     0.026 C
HETATM    4  C9  UNL     1      17.358   6.723  28.949  1.00  0.00     0.132 C
HETATM    5  N2  UNL     1      18.217   6.733  27.717  1.00  0.00    -0.321 N
HETATM    6  C10 UNL     1      17.566   7.104  26.540  1.00  0.00     0.247 C
HETATM    7  O2  UNL     1      18.088   7.287  25.384  1.00  0.00    -0.271 OA
ENDROOT
BRANCH   6   8
HETATM    8  C11 UNL     1      16.096   7.365  26.382  1.00  0.00     0.182 C
BRANCH   8   9
HETATM    9  C12 UNL     1      15.776   8.158  25.137  1.00  0.00     0.094 C
BRANCH   9  10
HETATM   10  C13 UNL     1      14.910   9.322  25.317  1.00  0.00     0.045 A
HETATM   11  C14 UNL     1      13.940   9.531  26.264  1.00  0.00     0.131 A
HETATM   12  N3  UNL     1      13.385  10.726  26.082  1.00  0.00    -0.199 N
HETATM   13  C15 UNL     1      13.975  11.311  25.028  1.00  0.00     0.698 A
ATOM     14  H3  UNL     1      12.638  11.130  26.648  1.00  0.00     0.183 HD
HETATM   15  N7  UNL     1      14.902  10.464  24.559  1.00  0.00    -0.193 N
ATOM     16  H7  UNL     1      15.508  10.642  23.758  1.00  0.00     0.184 HD
BRANCH  13  17
HETATM   17  N4  UNL     1      13.673  12.492  24.570  1.00  0.00    -0.118 N
ATOM     18  H4  UNL     1      12.931  12.588  23.877  1.00  0.00     0.207 HD
BRANCH  17  19
HETATM   19  N5  UNL     1      14.350  13.626  25.017  1.00  0.00    -0.235 N
HETATM   20  N6  UNL     1      15.160  14.256  24.270  1.00  0.00    -0.330 N
ATOM     21  H62 UNL     1      15.307  13.910  23.321  1.00  0.00     0.178 HD
ATOM     22  H61 UNL     1      15.656  15.085  24.596  1.00  0.00     0.178 HD
ATOM     23  H5  UNL     1      14.191  13.958  25.968  1.00  0.00     0.208 HD
ENDBRANCH  17  19
ENDBRANCH  13  17
ENDBRANCH   9  10
ENDBRANCH   8   9
BRANCH   8  24
HETATM   24  N8  UNL     1      15.496   6.037  26.105  1.00  0.00    -0.348 N
HETATM   25  C16 UNL     1      14.396   5.544  26.844  1.00  0.00     0.214 C
HETATM   26  C17 UNL     1      13.830   4.212  26.533  1.00  0.00     0.117 C
HETATM   27  O3  UNL     1      13.925   6.259  27.754  1.00  0.00    -0.274 OA
ATOM     28  H8  UNL     1      15.889   5.462  25.359  1.00  0.00     0.163 HD
ENDBRANCH   8  24
ENDBRANCH   6   8
BRANCH   1  29
HETATM   29  C4  UNL     1      20.820   6.709  28.019  1.00  0.00     0.075 C
HETATM   30  C5  UNL     1      20.706   7.935  27.020  1.00  0.00     0.046 C
BRANCH  29  31
HETATM   31  N1  UNL     1      21.446   5.639  27.274  1.00  0.00    -0.346 N
HETATM   32  C3  UNL     1      21.178   4.911  26.149  1.00  0.00     0.218 C
HETATM   33  O1  UNL     1      20.197   5.027  25.425  1.00  0.00    -0.274 OA
ATOM     34  H1  UNL     1      22.324   5.350  27.705  1.00  0.00     0.163 HD
BRANCH  32  35
HETATM   35  C2  UNL     1      22.140   3.827  25.679  1.00  0.00     0.098 C
HETATM   36  C1  UNL     1      23.500   3.993  26.303  1.00  0.00     0.014 C
ENDBRANCH  32  35
ENDBRANCH  29  31
BRANCH  29  37
HETATM   37  C18 UNL     1      21.683   7.291  29.099  1.00  0.00    -0.011 C
HETATM   38  C19 UNL     1      22.175   8.666  28.583  1.00  0.00     0.018 C
HETATM   39  C20 UNL     1      22.946   6.448  29.263  1.00  0.00     0.018 C
BRANCH  37  40
HETATM   40  C21 UNL     1      21.242   7.564  30.473  1.00  0.00    -0.042 C
HETATM   41  C22 UNL     1      22.412   8.431  31.041  1.00  0.00     0.015 C
HETATM   42  C23 UNL     1      21.138   6.424  31.439  1.00  0.00     0.015 C
HETATM   43  C24 UNL     1      20.044   8.418  30.744  1.00  0.00     0.015 C
ENDBRANCH  37  40
ENDBRANCH  29  37
ENDBRANCH   1  29
TORSDOF 11
ENDMDL