MODEL 5
REMARK VINA RESULT: -8.835919760      1.937      2.618
REMARK  11 active torsions:
REMARK  status: ('A' for Active; 'I' for Inactive)
REMARK    1  A    between atoms: C2_2  and  C3_3
REMARK    2  A    between atoms: C3_3  and  N1_4
REMARK    3  A    between atoms: C6_7  and  C7_8
REMARK    4  A    between atoms: C8_9  and  C9_10
REMARK       I    between atoms: N3_15  and  C12_17
REMARK       I    between atoms: C12_17  and  N4_19
REMARK    5  A    between atoms: N4_19  and  C13_21
REMARK    6  A    between atoms: C13_21  and  C14_22
REMARK    7  A    between atoms: C13_21  and  C18_33
REMARK    8  A    between atoms: C14_22  and  C15_23
REMARK    9  A    between atoms: C17_27  and  N6_28
REMARK   10  A    between atoms: C18_33  and  O2_34
REMARK   11  A    between atoms: C18_33  and  N8_36
ROOT
HETATM    1  C9  UNL     1      17.353   2.001  21.494  1.00  0.00     0.065 A
HETATM    2  C10 UNL     1      17.482   2.218  22.825  1.00  0.00     0.136 A
HETATM    3  N2  UNL     1      16.937   3.445  23.090  1.00  0.00    -0.199 N
ATOM      4  H2  UNL     1      16.891   3.879  24.012  1.00  0.00     0.183 HD
HETATM    5  C11 UNL     1      16.480   3.984  21.973  1.00  0.00     0.686 A
HETATM    6  N3  UNL     1      15.894   5.134  21.862  1.00  0.00    -0.141 N
ATOM      7  H3  UNL     1      15.592   5.425  20.932  1.00  0.00     0.189 HD
HETATM    8  C12 UNL     1      15.645   6.012  22.938  1.00  0.00     0.335 C
HETATM    9  O1  UNL     1      15.110   5.543  23.999  1.00  0.00    -0.246 OA
HETATM   10  N4  UNL     1      15.965   7.361  22.867  1.00  0.00    -0.330 N
ATOM     11  H4  UNL     1      16.393   7.742  22.022  1.00  0.00     0.165 HD
HETATM   12  N10 UNL     1      16.729   3.112  20.993  1.00  0.00    -0.190 N
ATOM     13  H10 UNL     1      16.489   3.254  20.012  1.00  0.00     0.184 HD
ENDROOT
BRANCH  10  14
HETATM   14  C13 UNL     1      15.681   8.253  24.029  1.00  0.00     0.166 C
BRANCH  14  15
HETATM   15  C14 UNL     1      15.345   9.602  23.588  1.00  0.00     0.092 C
BRANCH  15  16
HETATM   16  C15 UNL     1      14.544  10.435  24.499  1.00  0.00     0.045 A
HETATM   17  C16 UNL     1      13.818  10.061  25.600  1.00  0.00     0.131 A
HETATM   18  N5  UNL     1      13.242  11.143  26.140  1.00  0.00    -0.200 N
HETATM   19  C17 UNL     1      13.587  12.195  25.403  1.00  0.00     0.675 A
ATOM     20  H5  UNL     1      12.645  11.158  26.967  1.00  0.00     0.183 HD
HETATM   21  N7  UNL     1      14.378  11.764  24.406  1.00  0.00    -0.194 N
ATOM     22  H7  UNL     1      14.791  12.358  23.687  1.00  0.00     0.184 HD
BRANCH  19  23
HETATM   23  N6  UNL     1      13.230  13.415  25.606  1.00  0.00    -0.234 N
ATOM     24  H62 UNL     1      13.385  13.947  26.462  1.00  0.00     0.174 HD
ATOM     25  H61 UNL     1      12.742  14.017  24.944  1.00  0.00     0.174 HD
ENDBRANCH  19  23
ENDBRANCH  15  16
ENDBRANCH  14  15
BRANCH  14  26
HETATM   26  C18 UNL     1      16.795   8.001  24.954  1.00  0.00     0.138 C
BRANCH  26  27
HETATM   27  O2  UNL     1      17.940   8.412  24.359  1.00  0.00    -0.348 OA
ATOM     28  H2  UNL     1      17.761   9.223  23.898  1.00  0.00     0.219 HD
ENDBRANCH  26  27
BRANCH  26  29
HETATM   29  N8  UNL     1      16.970   7.486  26.220  1.00  0.00    -0.338 N
HETATM   30  C19 UNL     1      18.354   7.471  26.826  1.00  0.00     0.154 C
HETATM   31  C20 UNL     1      18.310   6.014  27.316  1.00  0.00     0.258 C
HETATM   32  N9  UNL     1      16.967   5.924  27.896  1.00  0.00    -0.057 N
HETATM   33  C21 UNL     1      17.037   6.157  29.338  1.00  0.00     0.274 C
HETATM   34  C22 UNL     1      16.364   4.635  27.732  1.00  0.00     0.274 C
HETATM   35  C23 UNL     1      16.188   6.994  27.303  1.00  0.00     0.362 C
ENDBRANCH  26  29
ENDBRANCH  14  26
ENDBRANCH  10  14
BRANCH   1  36
HETATM   36  C8  UNL     1      17.727   0.870  20.693  1.00  0.00     0.028 C
HETATM   37  C7  UNL     1      18.847   0.269  20.555  1.00  0.00    -0.010 C
BRANCH  37  38
HETATM   38  C6  UNL     1      20.186   0.453  21.128  1.00  0.00     0.102 C
HETATM   39  C5  UNL     1      21.020  -0.751  20.621  1.00  0.00     0.038 C
HETATM   40  C4  UNL     1      21.304  -0.418  19.176  1.00  0.00     0.127 C
HETATM   41  N1  UNL     1      21.220   1.035  19.129  1.00  0.00    -0.348 N
HETATM   42  C24 UNL     1      20.913   1.561  20.413  1.00  0.00     0.227 C
HETATM   43  O3  UNL     1      21.200   2.706  20.833  1.00  0.00    -0.273 OA
BRANCH  41  44
HETATM   44  C3  UNL     1      21.436   1.795  17.894  1.00  0.00     0.152 C
BRANCH  44  45
HETATM   45  C2  UNL     1      20.170   1.818  17.094  1.00  0.00    -0.017 C
HETATM   46  C1  UNL     1      19.204   2.626  17.466  1.00  0.00     0.008 C
ENDBRANCH  44  45
ENDBRANCH  41  44
ENDBRANCH  37  38
ENDBRANCH   1  36
TORSDOF 11
ENDMDL