MODEL 5
REMARK VINA RESULT: -7.563897788      1.888      2.952
REMARK  13 active torsions:
REMARK  status: ('A' for Active; 'I' for Inactive)
REMARK    1  A    between atoms: C2_2  and  C3_3
REMARK    2  A    between atoms: C3_3  and  C4_4
REMARK    3  A    between atoms: C4_4  and  C5_5
REMARK    4  A    between atoms: C5_5  and  N1_6
REMARK    5  A    between atoms: C5_5  and  C19_24
REMARK    6  A    between atoms: N1_6  and  C6_8
REMARK    7  A    between atoms: C6_8  and  C7_10
REMARK    8  A    between atoms: C7_10  and  C8_11
REMARK       I    between atoms: C19_24  and  N5_26
REMARK    9  A    between atoms: N5_26  and  C20_28
REMARK   10  A    between atoms: C21_33  and  N8_34
REMARK   11  A    between atoms: N8_34  and  C22_36
REMARK   12  A    between atoms: C22_36  and  C23_37
REMARK   13  A    between atoms: C23_37  and  N9_40
ROOT
HETATM    1  C5  UNL     1      18.767   4.105  19.509  1.00  0.00     0.099 C
ENDROOT
BRANCH   1   2
HETATM    2  C4  UNL     1      19.015   3.588  18.318  1.00  0.00     0.008 C
BRANCH   2   3
HETATM    3  C3  UNL     1      18.697   2.207  17.944  1.00  0.00     0.029 C
BRANCH   3   4
HETATM    4  C2  UNL     1      19.835   1.629  17.138  1.00  0.00    -0.001 C
HETATM    5  C1  UNL     1      21.179   1.773  17.750  1.00  0.00     0.005 C
ENDBRANCH   3   4
ENDBRANCH   2   3
ENDBRANCH   1   2
BRANCH   1   6
HETATM    6  N1  UNL     1      19.746   4.098  20.492  1.00  0.00    -0.341 N
ATOM      7  H1  UNL     1      20.665   4.440  20.212  1.00  0.00     0.167 HD
BRANCH   6   8
HETATM    8  C6  UNL     1      19.632   3.704  21.741  1.00  0.00     0.115 C
HETATM    9  N2  UNL     1      19.387   2.328  21.894  1.00  0.00    -0.083 NA
BRANCH   8  10
HETATM   10  C7  UNL     1      19.793   4.625  22.847  1.00  0.00     0.052 C
BRANCH  10  11
HETATM   11  C8  UNL     1      18.698   5.037  23.728  1.00  0.00     0.222 C
HETATM   12  C9  UNL     1      18.324   6.503  23.466  1.00  0.00     0.066 C
HETATM   13  C10 UNL     1      16.920   6.930  23.484  1.00  0.00     0.244 C
HETATM   14  N3  UNL     1      16.287   7.613  24.524  1.00  0.00    -0.055 N
HETATM   15  C11 UNL     1      16.059   9.010  23.969  1.00  0.00     0.277 C
HETATM   16  C12 UNL     1      14.869   7.174  24.563  1.00  0.00     0.277 C
HETATM   17  C13 UNL     1      16.657   7.896  25.817  1.00  0.00     0.201 C
HETATM   18  C14 UNL     1      16.602   6.956  26.968  1.00  0.00     0.026 C
HETATM   19  C15 UNL     1      17.216   5.747  26.931  1.00  0.00     0.026 C
HETATM   20  C16 UNL     1      17.886   5.464  25.742  1.00  0.00     0.202 C
HETATM   21  N4  UNL     1      18.888   4.723  25.149  1.00  0.00    -0.047 N
HETATM   22  C17 UNL     1      18.593   3.324  25.396  1.00  0.00     0.279 C
HETATM   23  C18 UNL     1      20.164   5.095  25.671  1.00  0.00     0.279 C
ENDBRANCH  10  11
ENDBRANCH   8  10
ENDBRANCH   6   8
ENDBRANCH   1   6
BRANCH   1  24
HETATM   24  C19 UNL     1      17.413   4.659  19.713  1.00  0.00     0.286 C
HETATM   25  O1  UNL     1      17.167   5.828  19.323  1.00  0.00    -0.265 OA
HETATM   26  N5  UNL     1      16.354   3.972  20.320  1.00  0.00    -0.152 N
ATOM     27  H5  UNL     1      16.366   3.912  21.337  1.00  0.00     0.187 HD
BRANCH  26  28
HETATM   28  C20 UNL     1      15.379   3.419  19.724  1.00  0.00     0.714 A
HETATM   29  N6  UNL     1      14.828   2.204  19.901  1.00  0.00    -0.117 N
HETATM   30  N7  UNL     1      13.823   2.015  19.069  1.00  0.00    -0.117 N
ATOM     31  H6  UNL     1      15.147   1.520  20.587  1.00  0.00     0.206 HD
HETATM   32  C21 UNL     1      13.725   3.143  18.336  1.00  0.00     0.707 A
ATOM     33  H7  UNL     1      13.237   1.184  18.995  1.00  0.00     0.206 HD
HETATM   34  N10 UNL     1      14.672   3.994  18.737  1.00  0.00    -0.020 N
ATOM     35  H10 UNL     1      14.833   4.927  18.357  1.00  0.00     0.203 HD
BRANCH  32  36
HETATM   36  N8  UNL     1      12.866   3.385  17.395  1.00  0.00    -0.222 N
ATOM     37  H8  UNL     1      13.201   3.365  16.433  1.00  0.00     0.177 HD
BRANCH  36  38
HETATM   38  C22 UNL     1      11.483   3.678  17.607  1.00  0.00     0.175 C
BRANCH  38  39
HETATM   39  C23 UNL     1      10.586   2.484  17.343  1.00  0.00     0.133 C
HETATM   40  C24 UNL     1       9.344   2.986  16.650  1.00  0.00     0.047 C
HETATM   41  C25 UNL     1      10.228   1.753  18.597  1.00  0.00     0.047 C
BRANCH  39  42
HETATM   42  N9  UNL     1      11.317   1.551  16.489  1.00  0.00    -0.070 N
ATOM     43  H93 UNL     1      11.529   1.940  15.569  1.00  0.00     0.275 HD
ATOM     44  H92 UNL     1      12.278   1.402  16.798  1.00  0.00     0.275 HD
ATOM     45  H91 UNL     1      10.780   0.685  16.436  1.00  0.00     0.275 HD
ENDBRANCH  39  42
ENDBRANCH  38  39
ENDBRANCH  36  38
ENDBRANCH  32  36
ENDBRANCH  26  28
ENDBRANCH   1  24
TORSDOF 13
ENDMDL