MODEL 5
REMARK VINA RESULT: -7.720504373      1.372      1.533
REMARK  14 active torsions:
REMARK  status: ('A' for Active; 'I' for Inactive)
REMARK    1  A    between atoms: C3_5  and  O1_6
REMARK    2  A    between atoms: C5_9  and  C6_10
REMARK    3  A    between atoms: C6_10  and  C7_11
REMARK    4  A    between atoms: C7_11  and  N2_12
REMARK    5  A    between atoms: N2_12  and  C10_15
REMARK    6  A    between atoms: C10_15  and  C11_16
REMARK    7  A    between atoms: C13_20  and  C14_21
REMARK    8  A    between atoms: C15_22  and  C16_23
REMARK    9  A    between atoms: C17_24  and  N4_25
REMARK   10  A    between atoms: N4_25  and  C18_26
REMARK   11  A    between atoms: C18_26  and  C19_27
REMARK   12  A    between atoms: C19_27  and  N5_28
REMARK   13  A    between atoms: C27_40  and  N8_41
REMARK   14  A    between atoms: N8_41  and  N9_42
ROOT
HETATM    1  C11 UNL     1      21.999   7.077  30.373  1.00  0.00     0.045 A
HETATM    2  C12 UNL     1      21.445   5.974  29.806  1.00  0.00     0.105 A
HETATM    3  N3  UNL     1      20.793   6.010  28.625  1.00  0.00    -0.358 N
ATOM      4  H3  UNL     1      20.381   5.171  28.218  1.00  0.00     0.166 HD
HETATM    5  C13 UNL     1      20.712   7.209  28.006  1.00  0.00     0.090 A
HETATM    6  C26 UNL     1      21.256   8.339  28.534  1.00  0.00     0.086 A
HETATM    7  C27 UNL     1      21.927   8.329  29.753  1.00  0.00     0.146 A
ENDROOT
BRANCH   5   8
HETATM    8  C14 UNL     1      19.936   7.309  26.819  1.00  0.00    -0.035 C
HETATM    9  C15 UNL     1      19.261   7.345  25.862  1.00  0.00    -0.007 C
BRANCH   9  10
HETATM   10  C16 UNL     1      18.441   7.332  24.766  1.00  0.00     0.004 C
HETATM   11  C17 UNL     1      17.701   7.297  23.850  1.00  0.00     0.013 C
BRANCH  11  12
HETATM   12  N4  UNL     1      16.792   7.249  22.799  1.00  0.00    -0.159 NA
BRANCH  12  13
HETATM   13  C18 UNL     1      15.695   8.113  22.966  1.00  0.00     0.145 C
BRANCH  13  14
HETATM   14  C19 UNL     1      14.870   7.877  24.262  1.00  0.00     0.144 C
BRANCH  14  15
HETATM   15  N5  UNL     1      14.652   9.288  24.683  1.00  0.00    -0.363 N
HETATM   16  C20 UNL     1      15.125  10.193  23.799  1.00  0.00     0.091 A
HETATM   17  C21 UNL     1      14.824  11.522  23.963  1.00  0.00     0.032 A
HETATM   18  C22 UNL     1      14.051  11.904  25.024  1.00  0.00     0.011 A
HETATM   19  C23 UNL     1      13.584  13.136  25.432  1.00  0.00     0.120 A
HETATM   20  C24 UNL     1      13.582  10.965  25.913  1.00  0.00     0.075 A
HETATM   21  N6  UNL     1      12.855  12.895  26.544  1.00  0.00    -0.311 N
HETATM   22  N7  UNL     1      12.857  11.598  26.824  1.00  0.00    -0.299 N
ATOM     23  H6  UNL     1      12.371  13.608  27.090  1.00  0.00     0.186 HD
ATOM     24  H7  UNL     1      12.380  11.160  27.611  1.00  0.00     0.187 HD
HETATM   25  C25 UNL     1      13.904   9.626  25.719  1.00  0.00     0.122 A
ENDBRANCH  14  15
ENDBRANCH  13  14
ENDBRANCH  12  13
ENDBRANCH  11  12
ENDBRANCH   9  10
ENDBRANCH   5   8
BRANCH   7  26
HETATM   26  N8  UNL     1      22.439   9.362  30.229  1.00  0.00    -0.332 NA
BRANCH  26  27
HETATM   27  N9  UNL     1      22.910  10.456  30.575  1.00  0.00    -0.280 N
ATOM     28  H92 UNL     1      23.368  10.428  29.664  1.00  0.00     0.191 HD
ATOM     29  H91 UNL     1      23.235  11.341  30.964  1.00  0.00     0.191 HD
ENDBRANCH  26  27
ENDBRANCH   7  26
BRANCH   1  30
HETATM   30  C10 UNL     1      22.551   7.018  31.759  1.00  0.00     0.217 C
BRANCH  30  31
HETATM   31  N2  UNL     1      21.603   7.001  32.765  1.00  0.00    -0.053 N
HETATM   32  C8  UNL     1      22.351   7.607  33.939  1.00  0.00     0.277 C
HETATM   33  C9  UNL     1      21.451   5.579  33.285  1.00  0.00     0.277 C
BRANCH  31  34
HETATM   34  C7  UNL     1      20.262   7.433  32.741  1.00  0.00     0.246 C
BRANCH  34  35
HETATM   35  C6  UNL     1      19.349   6.207  32.874  1.00  0.00     0.069 C
BRANCH  35  36
HETATM   36  C5  UNL     1      18.000   6.305  32.310  1.00  0.00    -0.030 A
HETATM   37  C2  UNL     1      16.817   5.979  33.042  1.00  0.00     0.013 A
HETATM   38  C1  UNL     1      16.804   5.495  34.426  1.00  0.00     0.068 C
HETATM   39  N1  UNL     1      15.745   6.210  32.255  1.00  0.00    -0.341 N
HETATM   40  C3  UNL     1      16.138   6.659  31.048  1.00  0.00     0.140 A
ATOM     41  H1  UNL     1      14.774   6.064  32.535  1.00  0.00     0.167 HD
HETATM   42  C4  UNL     1      17.525   6.715  31.098  1.00  0.00     0.065 A
BRANCH  40  43
HETATM   43  O1  UNL     1      15.321   6.994  29.976  1.00  0.00    -0.346 OA
ATOM     44  H1  UNL     1      15.027   7.865  29.733  1.00  0.00     0.219 HD
ENDBRANCH  40  43
ENDBRANCH  35  36
ENDBRANCH  34  35
ENDBRANCH  31  34
ENDBRANCH  30  31
ENDBRANCH   1  30
TORSDOF 14
ENDMDL