MODEL 1
REMARK VINA RESULT: -7.624975686      0.000      0.000
REMARK  9 active torsions:
REMARK  status: ('A' for Active; 'I' for Inactive)
REMARK    1  A    between atoms: N1_2  and  C4_5
REMARK    2  A    between atoms: C4_5  and  C5_6
REMARK    3  A    between atoms: C5_6  and  N2_7
REMARK       I    between atoms: N2_7  and  C6_9
REMARK       I    between atoms: C6_9  and  N3_10
REMARK       I    between atoms: C6_9  and  N5_13
REMARK    4  A    between atoms: N5_13  and  C8_15
REMARK    5  A    between atoms: C8_15  and  C9_16
REMARK    6  A    between atoms: C9_16  and  C10_17
REMARK    7  A    between atoms: C10_17  and  C11_18
REMARK    8  A    between atoms: C11_18  and  N6_19
REMARK       I    between atoms: N6_19  and  C12_21
REMARK       I    between atoms: C12_21  and  N8_25
REMARK    9  A    between atoms: N8_25  and  C13_27
ROOT
HETATM    1  N2  UNL     1      16.664   5.635  21.187  1.00  0.00    -0.348 N
ATOM      2  H2  UNL     1      17.657   5.838  21.074  1.00  0.00     0.163 HD
HETATM    3  C6  UNL     1      15.826   4.908  20.202  1.00  0.00     0.263 C
HETATM    4  N3  UNL     1      15.249   4.401  19.509  1.00  0.00    -0.294 NA
HETATM    5  C7  UNL     1      14.359   3.769  18.774  1.00  0.00     0.271 C
HETATM    6  N4  UNL     1      13.539   3.240  18.165  1.00  0.00    -0.156 NA
HETATM    7  N5  UNL     1      17.271   4.918  19.117  1.00  0.00    -0.350 N
ATOM      8  H5  UNL     1      17.873   5.709  18.887  1.00  0.00     0.163 HD
ENDROOT
BRANCH   1   9
HETATM    9  C5  UNL     1      15.844   6.020  22.356  1.00  0.00     0.151 C
BRANCH   9  10
HETATM   10  C4  UNL     1      16.675   6.944  23.189  1.00  0.00     0.255 C
BRANCH  10  11
HETATM   11  N1  UNL     1      15.834   7.702  24.105  1.00  0.00    -0.077 N
HETATM   12  C1  UNL     1      14.901   6.785  24.663  1.00  0.00     0.271 C
HETATM   13  C2  UNL     1      16.681   8.206  25.192  1.00  0.00     0.271 C
HETATM   14  C3  UNL     1      15.142   8.755  23.418  1.00  0.00     0.271 C
ENDBRANCH  10  11
ENDBRANCH   9  10
ENDBRANCH   1   9
BRANCH   7  15
HETATM   15  C8  UNL     1      17.382   3.630  18.671  1.00  0.00     0.123 C
BRANCH  15  16
HETATM   16  C9  UNL     1      18.814   3.453  18.151  1.00  0.00     0.021 C
BRANCH  16  17
HETATM   17  C10 UNL     1      18.960   2.150  17.459  1.00  0.00     0.022 C
BRANCH  17  18
HETATM   18  C11 UNL     1      20.188   1.394  17.794  1.00  0.00     0.138 C
BRANCH  18  19
HETATM   19  N6  UNL     1      21.277   2.245  18.218  1.00  0.00    -0.227 N
HETATM   20  C12 UNL     1      22.281   1.813  19.213  1.00  0.00     0.669 C
HETATM   21  N7  UNL     1      22.555   0.612  19.009  1.00  0.00    -0.235 N
HETATM   22  N8  UNL     1      22.619   2.783  20.139  1.00  0.00    -0.191 N
ATOM     23  H72 UNL     1      22.305  -0.103  18.326  1.00  0.00     0.174 HD
ATOM     24  H71 UNL     1      23.248   0.315  19.696  1.00  0.00     0.174 HD
ATOM     25  H8  UNL     1      22.788   3.714  19.758  1.00  0.00     0.180 HD
ATOM     26  H6  UNL     1      21.355   3.179  17.816  1.00  0.00     0.177 HD
BRANCH  22  27
HETATM   27  C13 UNL     1      22.767   2.660  21.585  1.00  0.00     0.219 C
HETATM   28  C14 UNL     1      23.695   1.499  21.808  1.00  0.00     0.090 C
HETATM   29  C15 UNL     1      24.080   1.228  23.230  1.00  0.00     0.241 C
HETATM   30  N9  UNL     1      23.914   2.420  24.036  1.00  0.00    -0.069 N
HETATM   31  C16 UNL     1      24.784   2.267  25.193  1.00  0.00     0.272 C
HETATM   32  C17 UNL     1      24.341   3.595  23.320  1.00  0.00     0.241 C
HETATM   33  C19 UNL     1      22.575   2.449  24.506  1.00  0.00     0.265 C
HETATM   34  C18 UNL     1      23.567   3.880  22.087  1.00  0.00     0.090 C
HETATM   35  C20 UNL     1      21.575   3.114  23.630  1.00  0.00     0.268 C
HETATM   36  N10 UNL     1      21.509   2.551  22.265  1.00  0.00    -0.038 N
HETATM   37  C21 UNL     1      20.575   3.427  21.582  1.00  0.00     0.240 C
HETATM   38  C25 UNL     1      20.930   1.259  22.373  1.00  0.00     0.240 C
HETATM   39  C22 UNL     1      19.143   3.221  22.004  1.00  0.00     0.028 C
HETATM   40  C23 UNL     1      18.608   1.874  21.597  1.00  0.00     0.003 C
HETATM   41  C24 UNL     1      19.804   0.957  21.411  1.00  0.00     0.028 C
ENDBRANCH  22  27
ENDBRANCH  18  19
ENDBRANCH  17  18
ENDBRANCH  16  17
ENDBRANCH  15  16
ENDBRANCH   7  15
TORSDOF 9
ENDMDL