MODEL 5
REMARK VINA RESULT: -8.007680064      5.851      9.792
REMARK  13 active torsions:
REMARK  status: ('A' for Active; 'I' for Inactive)
REMARK    1  A    between atoms: C2_2  and  C3_3
REMARK    2  A    between atoms: C3_3  and  C4_4
REMARK    3  A    between atoms: C4_4  and  C5_5
REMARK    4  A    between atoms: C5_5  and  C6_6
REMARK    5  A    between atoms: C5_5  and  C12_13
REMARK    6  A    between atoms: C6_6  and  N1_7
REMARK       I    between atoms: C12_13  and  N2_15
REMARK    7  A    between atoms: N2_15  and  C13_17
REMARK    8  A    between atoms: C13_17  and  C14_18
REMARK    9  A    between atoms: C15_19  and  C16_20
REMARK   10  A    between atoms: C18_24  and  N4_25
REMARK   11  A    between atoms: N5_28  and  C19_29
REMARK   12  A    between atoms: C19_29  and  C20_30
REMARK   13  A    between atoms: C21_31  and  C22_32
ROOT
HETATM    1  C16 UNL     1      18.978   4.765  24.467  1.00  0.00     0.056 A
HETATM    2  C17 UNL     1      19.089   4.666  25.835  1.00  0.00     0.128 A
HETATM    3  N3  UNL     1      17.975   4.844  26.572  1.00  0.00    -0.201 N
ATOM      4  H3  UNL     1      18.038   4.774  27.588  1.00  0.00     0.183 HD
HETATM    5  C18 UNL     1      16.790   5.110  26.009  1.00  0.00     0.679 A
HETATM    6  N5  UNL     1      16.631   5.217  24.664  1.00  0.00    -0.175 N
HETATM    7  C26 UNL     1      17.727   5.042  23.911  1.00  0.00     0.046 A
HETATM    8  C27 UNL     1      17.660   5.141  22.431  1.00  0.00     0.070 C
ENDROOT
BRANCH   1   9
HETATM    9  C15 UNL     1      20.125   4.584  23.596  1.00  0.00    -0.062 C
HETATM   10  C14 UNL     1      21.089   4.445  22.885  1.00  0.00    -0.081 C
BRANCH  10  11
HETATM   11  C13 UNL     1      22.261   4.294  22.023  1.00  0.00     0.217 C
BRANCH  11  12
HETATM   12  N2  UNL     1      21.904   3.384  20.963  1.00  0.00    -0.346 N
HETATM   13  C12 UNL     1      22.735   2.239  20.771  1.00  0.00     0.253 C
HETATM   14  O1  UNL     1      23.698   2.127  21.542  1.00  0.00    -0.268 OA
ATOM     15  H2  UNL     1      21.089   3.552  20.373  1.00  0.00     0.163 HD
BRANCH  13  16
HETATM   16  C5  UNL     1      22.381   1.276  19.669  1.00  0.00     0.044 C
BRANCH  16  17
HETATM   17  C4  UNL     1      22.035   1.941  18.414  1.00  0.00    -0.008 C
BRANCH  17  18
HETATM   18  C3  UNL     1      20.970   1.500  17.519  1.00  0.00     0.028 C
BRANCH  18  19
HETATM   19  C2  UNL     1      19.612   2.152  17.698  1.00  0.00    -0.001 C
HETATM   20  C1  UNL     1      18.463   1.305  17.281  1.00  0.00     0.005 C
ENDBRANCH  18  19
ENDBRANCH  17  18
ENDBRANCH  16  17
BRANCH  16  21
HETATM   21  C6  UNL     1      21.770   0.009  20.097  1.00  0.00     0.112 C
BRANCH  21  22
HETATM   22  N1  UNL     1      20.391  -0.175  20.288  1.00  0.00    -0.342 N
HETATM   23  C7  UNL     1      19.764  -1.189  19.672  1.00  0.00     0.096 A
HETATM   24  C8  UNL     1      18.439  -1.428  19.836  1.00  0.00     0.018 A
HETATM   25  C9  UNL     1      17.692  -0.624  20.652  1.00  0.00     0.003 A
HETATM   26  C10 UNL     1      18.300   0.422  21.297  1.00  0.00     0.018 A
HETATM   27  C11 UNL     1      19.663   0.610  21.084  1.00  0.00     0.096 A
ENDBRANCH  21  22
ENDBRANCH  16  21
ENDBRANCH  13  16
ENDBRANCH  11  12
ENDBRANCH  10  11
ENDBRANCH   1   9
BRANCH   6  28
HETATM   28  C19 UNL     1      15.358   5.500  24.086  1.00  0.00     0.241 C
BRANCH  28  29
HETATM   29  C20 UNL     1      15.056   6.927  24.272  1.00  0.00    -0.080 C
HETATM   30  C21 UNL     1      14.797   8.095  24.425  1.00  0.00    -0.058 C
BRANCH  30  31
HETATM   31  C22 UNL     1      14.482   9.479  24.627  1.00  0.00     0.101 A
HETATM   32  C23 UNL     1      13.675   9.940  25.662  1.00  0.00     0.119 A
HETATM   33  N6  UNL     1      13.405  11.245  25.814  1.00  0.00    -0.317 N
HETATM   34  C24 UNL     1      13.899  12.166  24.977  1.00  0.00     0.327 A
ATOM     35  H6  UNL     1      12.808  11.543  26.586  1.00  0.00     0.170 HD
HETATM   36  O2  UNL     1      13.640  13.410  25.125  1.00  0.00    -0.247 OA
HETATM   37  N7  UNL     1      14.684  11.745  23.966  1.00  0.00    -0.274 N
HETATM   38  C25 UNL     1      14.975  10.447  23.782  1.00  0.00     0.269 A
ATOM     39  H7  UNL     1      15.069  12.434  23.320  1.00  0.00     0.173 HD
HETATM   40  O3  UNL     1      15.712  10.052  22.833  1.00  0.00    -0.266 OA
ENDBRANCH  30  31
ENDBRANCH  28  29
ENDBRANCH   6  28
BRANCH   5  41
HETATM   41  N4  UNL     1      15.738   5.280  26.712  1.00  0.00    -0.234 N
ATOM     42  H42 UNL     1      15.857   5.203  27.723  1.00  0.00     0.174 HD
ATOM     43  H41 UNL     1      14.834   5.481  26.284  1.00  0.00     0.174 HD
ENDBRANCH   5  41
TORSDOF 13
ENDMDL