MODEL 1
REMARK VINA RESULT: -9.692739976      0.000      0.000
REMARK  7 active torsions:
REMARK  status: ('A' for Active; 'I' for Inactive)
REMARK    1  A    between atoms: C2_2  and  C3_3
REMARK       I    between atoms: N1_5  and  C5_6
REMARK       I    between atoms: N3_11  and  C8_12
REMARK       I    between atoms: C8_12  and  N5_16
REMARK    2  A    between atoms: N5_16  and  C9_18
REMARK    3  A    between atoms: C9_18  and  C10_19
REMARK    4  A    between atoms: C10_19  and  N6_20
REMARK       I    between atoms: N6_20  and  C11_22
REMARK    5  A    between atoms: C11_22  and  C12_24
REMARK    6  A    between atoms: C13_25  and  C14_26
REMARK       I    between atoms: N9_33  and  C18_35
REMARK    7  A    between atoms: C18_35  and  C19_37
ROOT
HETATM    1  C10 UNL     1      17.742   6.471  24.713  1.00  0.00     0.105 C
HETATM    2  N9  UNL     1      18.632   6.414  25.672  1.00  0.00    -0.315 N
ATOM      3  H9  UNL     1      19.405   5.762  25.530  1.00  0.00     0.170 HD
HETATM    4  C18 UNL     1      18.652   7.174  26.923  1.00  0.00     0.227 C
HETATM    5  O3  UNL     1      17.796   7.990  27.203  1.00  0.00    -0.273 OA
ENDROOT
BRANCH   1   6
HETATM    6  C9  UNL     1      18.792   5.452  23.555  1.00  0.00     0.214 C
BRANCH   6   7
HETATM    7  N5  UNL     1      18.023   4.305  23.661  1.00  0.00    -0.220 N
HETATM    8  C8  UNL     1      18.083   3.194  22.732  1.00  0.00     0.670 C
HETATM    9  N3  UNL     1      18.915   3.216  21.623  1.00  0.00    -0.211 N
HETATM   10  N4  UNL     1      17.272   2.165  22.910  1.00  0.00    -0.235 N
HETATM   11  C3  UNL     1      20.152   2.482  21.502  1.00  0.00     0.119 C
HETATM   12  C7  UNL     1      18.515   4.058  20.497  1.00  0.00     0.161 C
HETATM   13  C4  UNL     1      20.812   2.776  20.170  1.00  0.00     0.153 C
HETATM   14  N1  UNL     1      19.876   2.635  19.087  1.00  0.00    -0.333 N
HETATM   15  C5  UNL     1      20.199   2.008  17.860  1.00  0.00     0.331 C
HETATM   16  C6  UNL     1      18.532   3.189  19.217  1.00  0.00     0.147 C
HETATM   17  N2  UNL     1      21.543   1.543  17.673  1.00  0.00    -0.040 NA
HETATM   18  O1  UNL     1      19.362   1.870  16.968  1.00  0.00    -0.251 OA
ATOM     19  H42 UNL     1      17.314   1.383  22.256  1.00  0.00     0.174 HD
ATOM     20  H41 UNL     1      16.661   2.149  23.726  1.00  0.00     0.174 HD
ATOM     21  H5  UNL     1      17.373   4.237  24.444  1.00  0.00     0.178 HD
BRANCH  11  22
HETATM   22  C2  UNL     1      19.887   0.969  21.546  1.00  0.00     0.023 C
HETATM   23  C1  UNL     1      21.235   0.298  21.475  1.00  0.00     0.007 C
ENDBRANCH  11  22
ENDBRANCH   6   7
ENDBRANCH   1   6
BRANCH   1  24
HETATM   24  N6  UNL     1      16.914   6.515  23.803  1.00  0.00    -0.312 N
HETATM   25  C11 UNL     1      15.881   7.592  23.696  1.00  0.00     0.246 C
HETATM   26  O2  UNL     1      14.705   7.182  23.831  1.00  0.00    -0.268 OA
ATOM     27  H6  UNL     1      16.932   5.785  23.091  1.00  0.00     0.170 HD
BRANCH  25  28
HETATM   28  C12 UNL     1      16.412   8.933  23.462  1.00  0.00     0.077 C
HETATM   29  C13 UNL     1      15.510  10.015  23.371  1.00  0.00     0.036 C
BRANCH  29  30
HETATM   30  C14 UNL     1      14.653  10.627  24.377  1.00  0.00     0.050 A
HETATM   31  C15 UNL     1      14.231  12.005  24.156  1.00  0.00     0.118 A
HETATM   32  N7  UNL     1      13.445  12.355  25.186  1.00  0.00    -0.360 N
HETATM   33  C16 UNL     1      13.336  11.331  26.034  1.00  0.00     0.182 A
ATOM     34  H7  UNL     1      12.999  13.265  25.304  1.00  0.00     0.166 HD
HETATM   35  N8  UNL     1      14.078  10.308  25.503  1.00  0.00    -0.346 N
HETATM   36  C17 UNL     1      14.198   9.070  26.267  1.00  0.00     0.157 C
ENDBRANCH  29  30
ENDBRANCH  25  28
ENDBRANCH   1  24
BRANCH   4  37
HETATM   37  C19 UNL     1      19.774   6.901  27.824  1.00  0.00     0.083 C
HETATM   38  C20 UNL     1      19.806   7.909  28.981  1.00  0.00     0.019 C
HETATM   39  C21 UNL     1      21.258   8.211  28.981  1.00  0.00    -0.013 C
HETATM   40  C22 UNL     1      21.949   6.892  28.560  1.00  0.00     0.010 C
HETATM   41  C24 UNL     1      21.473   8.566  27.500  1.00  0.00     0.010 C
HETATM   42  C23 UNL     1      21.146   7.088  27.299  1.00  0.00    -0.001 C
ENDBRANCH   4  37
TORSDOF 7
ENDMDL