MODEL 1
REMARK VINA RESULT: -9.165642350      0.000      0.000
REMARK  8 active torsions:
REMARK  status: ('A' for Active; 'I' for Inactive)
REMARK    1  A    between atoms: C1_2  and  C2_3
REMARK       I    between atoms: C1_2  and  N3_13
REMARK    2  A    between atoms: C2_3  and  N1_4
REMARK       I    between atoms: N1_4  and  C3_6
REMARK       I    between atoms: C3_6  and  N2_8
REMARK    3  A    between atoms: N3_13  and  C8_15
REMARK    4  A    between atoms: C11_21  and  N5_22
REMARK       I    between atoms: N5_22  and  C12_24
REMARK       I    between atoms: C12_24  and  N6_26
REMARK    5  A    between atoms: N6_26  and  C13_28
REMARK    6  A    between atoms: C13_28  and  C14_29
REMARK    7  A    between atoms: C14_29  and  C15_30
REMARK    8  A    between atoms: C15_30  and  N7_31
ROOT
HETATM    1  C8  UNL     1      15.046   8.356  23.784  1.00  0.00     0.134 C
HETATM    2  C9  UNL     1      15.816   9.662  23.487  1.00  0.00     0.150 C
HETATM    3  N4  UNL     1      14.878  10.630  23.975  1.00  0.00    -0.357 N
ATOM      4  H4  UNL     1      14.785  11.580  23.615  1.00  0.00     0.162 HD
HETATM    5  C10 UNL     1      14.095  10.087  25.027  1.00  0.00     0.242 C
HETATM    6  O3  UNL     1      13.236  10.671  25.741  1.00  0.00    -0.271 OA
HETATM    7  C11 UNL     1      14.480   8.657  25.143  1.00  0.00     0.202 C
ENDROOT
BRANCH   7   8
HETATM    8  N5  UNL     1      15.508   8.578  26.181  1.00  0.00    -0.328 N
HETATM    9  C12 UNL     1      15.677   7.376  26.913  1.00  0.00     0.316 C
HETATM   10  O4  UNL     1      14.906   6.397  26.665  1.00  0.00    -0.247 OA
HETATM   11  N6  UNL     1      16.648   7.191  27.904  1.00  0.00    -0.343 N
ATOM     12  H6  UNL     1      17.287   7.956  28.117  1.00  0.00     0.164 HD
ATOM     13  H5  UNL     1      16.100   9.384  26.376  1.00  0.00     0.165 HD
BRANCH  11  14
HETATM   14  C13 UNL     1      16.778   5.916  28.656  1.00  0.00     0.126 C
BRANCH  14  15
HETATM   15  C14 UNL     1      18.181   5.854  29.134  1.00  0.00     0.048 C
BRANCH  15  16
HETATM   16  C15 UNL     1      18.773   6.955  29.875  1.00  0.00     0.239 C
BRANCH  16  17
HETATM   17  N7  UNL     1      20.045   7.529  29.603  1.00  0.00    -0.066 N
HETATM   18  C16 UNL     1      19.928   8.266  28.336  1.00  0.00     0.238 C
HETATM   19  C17 UNL     1      21.097   8.154  27.435  1.00  0.00     0.032 C
HETATM   20  C18 UNL     1      22.424   8.493  28.038  1.00  0.00    -0.012 C
HETATM   21  C19 UNL     1      22.320   9.468  29.179  1.00  0.00     0.011 C
HETATM   22  C23 UNL     1      23.092   7.191  28.431  1.00  0.00     0.011 C
HETATM   23  C20 UNL     1      21.955   8.847  30.478  1.00  0.00     0.012 C
HETATM   24  C21 UNL     1      22.714   7.574  30.786  1.00  0.00     0.012 C
HETATM   25  C25 UNL     1      20.463   8.471  30.567  1.00  0.00     0.242 C
HETATM   26  C22 UNL     1      22.385   6.647  29.634  1.00  0.00     0.012 C
HETATM   27  C24 UNL     1      20.956   6.402  29.438  1.00  0.00     0.242 C
ENDBRANCH  16  17
ENDBRANCH  15  16
ENDBRANCH  14  15
ENDBRANCH  11  14
ENDBRANCH   7   8
BRANCH   1  28
HETATM   28  N3  UNL     1      15.962   7.242  23.794  1.00  0.00    -0.351 N
HETATM   29  C1  UNL     1      15.984   6.368  22.661  1.00  0.00     0.235 C
HETATM   30  O1  UNL     1      15.229   6.555  21.679  1.00  0.00    -0.272 OA
ATOM     31  H3  UNL     1      16.579   7.081  24.590  1.00  0.00     0.163 HD
BRANCH  29  32
HETATM   32  C2  UNL     1      16.912   5.205  22.618  1.00  0.00     0.227 C
BRANCH  32  33
HETATM   33  N1  UNL     1      17.480   4.963  21.322  1.00  0.00    -0.334 N
HETATM   34  C3  UNL     1      18.383   3.888  21.130  1.00  0.00     0.318 C
HETATM   35  O2  UNL     1      18.684   3.138  22.096  1.00  0.00    -0.247 OA
HETATM   36  N2  UNL     1      18.953   3.644  19.850  1.00  0.00    -0.334 N
HETATM   37  C4  UNL     1      18.722   4.407  18.635  1.00  0.00     0.127 C
HETATM   38  C7  UNL     1      19.870   2.567  19.557  1.00  0.00     0.127 C
HETATM   39  C5  UNL     1      18.916   3.340  17.560  1.00  0.00     0.022 C
HETATM   40  C6  UNL     1      20.145   2.633  18.077  1.00  0.00     0.022 C
ATOM     41  H1  UNL     1      17.234   5.567  20.537  1.00  0.00     0.164 HD
ENDBRANCH  32  33
ENDBRANCH  29  32
ENDBRANCH   1  28
TORSDOF 8
ENDMDL