MODEL 3
REMARK VINA RESULT: -7.154847911      2.863      5.013
REMARK  10 active torsions:
REMARK  status: ('A' for Active; 'I' for Inactive)
REMARK    1  A    between atoms: C5_8  and  O1_9
REMARK    2  A    between atoms: C6_11  and  C7_12
REMARK    3  A    between atoms: C7_12  and  C8_13
REMARK    4  A    between atoms: C7_12  and  O2_18
REMARK    5  A    between atoms: C8_13  and  N4_14
REMARK    6  A    between atoms: O2_18  and  C9_19
REMARK    7  A    between atoms: C9_19  and  C10_20
REMARK    8  A    between atoms: C10_20  and  N5_21
REMARK    9  A    between atoms: C16_37  and  N11_38
REMARK   10  A    between atoms: N11_38  and  O4_40
ROOT
HETATM    1  N1  UNL     1      83.720 -15.351   9.241  1.00  0.00    -0.191 NA
HETATM    2  C1  UNL     1      82.591 -15.362   8.880  1.00  0.00     0.104 C
HETATM    3  C2  UNL     1      81.225 -15.369   8.409  1.00  0.00     0.100 A
HETATM    4  C3  UNL     1      80.406 -16.431   8.748  1.00  0.00     0.096 A
HETATM    5  N2  UNL     1      80.844 -17.478   9.632  1.00  0.00    -0.099 NA
HETATM    6  C4  UNL     1      79.113 -16.458   8.236  1.00  0.00     0.106 A
HETATM    7  N3  UNL     1      78.274 -17.561   8.654  1.00  0.00    -0.097 NA
HETATM    8  C5  UNL     1      78.644 -15.468   7.411  1.00  0.00     0.106 A
HETATM    9  C6  UNL     1      79.452 -14.388   7.060  1.00  0.00     0.060 A
HETATM   10  C16 UNL     1      80.745 -14.381   7.587  1.00  0.00     0.092 A
ENDROOT
BRANCH  10  11
HETATM   11  N11 UNL     1      81.600 -13.334   7.181  1.00  0.00    -0.267 N
ATOM     12  H11 UNL     1      82.153 -13.430   6.329  1.00  0.00     0.194 HD
BRANCH  11  13
HETATM   13  O4  UNL     1      81.679 -12.296   7.860  1.00  0.00    -0.289 OA
ATOM     14  H4  UNL     1      80.889 -11.838   8.124  1.00  0.00     0.244 HD
ENDBRANCH  11  13
ENDBRANCH  10  11
BRANCH   9  15
HETATM   15  C7  UNL     1      78.985 -13.400   6.076  1.00  0.00     0.087 C
BRANCH  15  16
HETATM   16  C8  UNL     1      78.077 -12.320   6.604  1.00  0.00     0.294 C
BRANCH  16  17
HETATM   17  N4  UNL     1      78.734 -11.295   7.353  1.00  0.00    -0.074 N
ATOM     18  H43 UNL     1      78.783 -11.554   8.339  1.00  0.00     0.274 HD
ATOM     19  H42 UNL     1      79.728 -11.275   7.126  1.00  0.00     0.274 HD
ATOM     20  H41 UNL     1      78.330 -10.364   7.252  1.00  0.00     0.274 HD
ENDBRANCH  16  17
ENDBRANCH  15  16
BRANCH  15  21
HETATM   21  O2  UNL     1      78.893 -13.771   4.762  1.00  0.00    -0.351 OA
BRANCH  21  22
HETATM   22  C9  UNL     1      78.226 -12.771   4.081  1.00  0.00     0.205 C
BRANCH  22  23
HETATM   23  C10 UNL     1      78.913 -12.011   3.010  1.00  0.00     0.308 C
BRANCH  23  24
HETATM   24  N5  UNL     1      77.897 -11.478   2.111  1.00  0.00     0.180 N
HETATM   25  C11 UNL     1      76.867 -10.697   2.741  1.00  0.00     0.512 C
HETATM   26  N6  UNL     1      77.048  -9.311   2.491  1.00  0.00    -0.027 N
HETATM   27  C12 UNL     1      76.900  -9.049   1.099  1.00  0.00     0.407 C
ATOM     28  H62 UNL     1      76.427  -8.734   3.058  1.00  0.00     0.281 HD
ATOM     29  H61 UNL     1      77.938  -8.969   2.852  1.00  0.00     0.281 HD
HETATM   30  O3  UNL     1      77.337 -10.118   0.303  1.00  0.00    -0.303 OA
HETATM   31  C13 UNL     1      78.428 -10.747   0.993  1.00  0.00     0.405 A
HETATM   32  N7  UNL     1      79.393  -9.764   1.327  1.00  0.00    -0.300 N
HETATM   33  C15 UNL     1      79.087 -11.629   0.037  1.00  0.00     0.184 A
HETATM   34  C14 UNL     1      80.468  -9.985   0.680  1.00  0.00     0.193 A
ATOM     35  H7  UNL     1      79.249  -8.997   1.985  1.00  0.00     0.167 HD
HETATM   36  N8  UNL     1      81.690  -9.239   0.715  1.00  0.00    -0.063 NA
HETATM   37  N9  UNL     1      80.293 -11.154  -0.135  1.00  0.00    -0.317 N
ATOM     38  H9  UNL     1      81.001 -11.552  -0.752  1.00  0.00     0.169 HD
HETATM   39  N10 UNL     1      78.534 -12.766  -0.585  1.00  0.00    -0.080 NA
ENDBRANCH  23  24
ENDBRANCH  22  23
ENDBRANCH  21  22
ENDBRANCH  15  21
ENDBRANCH   9  15
BRANCH   8  40
HETATM   40  O1  UNL     1      77.350 -15.536   6.915  1.00  0.00    -0.358 OA
ATOM     41  H1  UNL     1      76.836 -14.743   6.821  1.00  0.00     0.217 HD
ENDBRANCH   8  40
TORSDOF 10
ENDMDL