MODEL 4
REMARK VINA RESULT: -7.884108809      1.621      1.983
REMARK  11 active torsions:
REMARK  status: ('A' for Active; 'I' for Inactive)
REMARK    1  A    between atoms: C4_6  and  N3_7
REMARK    2  A    between atoms: N3_7  and  N4_8
REMARK       I    between atoms: N3_7  and  C6_16
REMARK    3  A    between atoms: N4_8  and  O1_9
REMARK    4  A    between atoms: O1_9  and  C5_10
REMARK    5  A    between atoms: N6_12  and  O2_14
REMARK    6  A    between atoms: C6_16  and  O4_18
REMARK    7  A    between atoms: O4_18  and  C7_19
REMARK    8  A    between atoms: C7_19  and  C8_20
REMARK    9  A    between atoms: C9_24  and  N8_25
REMARK   10  A    between atoms: N8_25  and  O6_26
REMARK   11  A    between atoms: N8_25  and  O7_28
ROOT
HETATM    1  N3  UNL     1      78.363 -13.430   3.782  1.00  0.00    -0.183 N
HETATM    2  C6  UNL     1      79.594 -13.920   4.286  1.00  0.00     0.383 C
HETATM    3  O3  UNL     1      80.676 -13.459   3.874  1.00  0.00    -0.237 OA
ENDROOT
BRANCH   2   4
HETATM    4  O4  UNL     1      79.674 -14.917   5.243  1.00  0.00    -0.296 OA
BRANCH   4   5
HETATM    5  C7  UNL     1      80.640 -15.920   5.334  1.00  0.00     0.250 C
BRANCH   5   6
HETATM    6  C8  UNL     1      81.379 -15.993   6.594  1.00  0.00     0.129 A
HETATM    7  O5  UNL     1      82.611 -15.613   6.669  1.00  0.00    -0.236 OA
HETATM    8  N7  UNL     1      83.323 -15.653   7.757  1.00  0.00    -0.242 N
HETATM    9  C9  UNL     1      82.819 -16.101   8.909  1.00  0.00     0.208 A
ATOM     10  H7  UNL     1      84.291 -15.333   7.730  1.00  0.00     0.196 HD
HETATM   11  C10 UNL     1      81.507 -16.531   8.930  1.00  0.00     0.243 A
HETATM   12  O8  UNL     1      80.997 -16.961   9.991  1.00  0.00    -0.282 OA
HETATM   13  C11 UNL     1      80.791 -16.475   7.768  1.00  0.00     0.133 A
HETATM   14  N9  UNL     1      79.439 -16.894   7.740  1.00  0.00    -0.095 NA
BRANCH   9  15
HETATM   15  N8  UNL     1      83.545 -16.173  10.123  1.00  0.00    -0.013 NA
BRANCH  15  16
HETATM   16  O6  UNL     1      84.546 -15.271  10.073  1.00  0.00    -0.283 OA
ATOM     17  H6  UNL     1      85.325 -15.669  10.443  1.00  0.00     0.240 HD
ENDBRANCH  15  16
BRANCH  15  18
HETATM   18  O7  UNL     1      83.991 -17.407  10.413  1.00  0.00    -0.283 OA
ATOM     19  H7  UNL     1      84.911 -17.434  10.648  1.00  0.00     0.240 HD
ENDBRANCH  15  18
ENDBRANCH   9  15
ENDBRANCH   5   6
ENDBRANCH   4   5
ENDBRANCH   2   4
BRANCH   1  20
HETATM   20  C4  UNL     1      78.206 -12.438   2.792  1.00  0.00     0.285 C
HETATM   21  N2  UNL     1      76.981 -12.469   2.028  1.00  0.00    -0.108 NA
HETATM   22  N1  UNL     1      76.900 -11.342   1.272  1.00  0.00    -0.125 NA
HETATM   23  C2  UNL     1      77.058 -10.132   2.015  1.00  0.00     0.090 C
HETATM   24  C1  UNL     1      78.043  -9.233   1.264  1.00  0.00     0.047 C
HETATM   25  C3  UNL     1      75.805  -9.409   2.364  1.00  0.00     0.047 C
HETATM   26  S1  UNL     1      77.959 -10.747   3.499  1.00  0.00    -0.096 SA
ENDBRANCH   1  20
BRANCH   1  27
HETATM   27  N4  UNL     1      77.166 -13.963   4.319  1.00  0.00     0.039 NA
BRANCH  27  28
HETATM   28  O1  UNL     1      76.744 -13.299   5.410  1.00  0.00    -0.188 OA
BRANCH  28  29
HETATM   29  C5  UNL     1      77.058 -13.718   6.689  1.00  0.00     0.273 C
HETATM   30  N5  UNL     1      77.280 -12.739   7.709  1.00  0.00    -0.053 NA
HETATM   31  N6  UNL     1      77.162 -14.953   7.007  1.00  0.00    -0.234 N
ATOM     32  H6  UNL     1      77.398 -15.165   7.977  1.00  0.00     0.197 HD
BRANCH  31  33
HETATM   33  O2  UNL     1      76.987 -16.011   6.165  1.00  0.00    -0.287 OA
ATOM     34  H2  UNL     1      77.577 -16.750   6.070  1.00  0.00     0.244 HD
ENDBRANCH  31  33
ENDBRANCH  28  29
ENDBRANCH  27  28
ENDBRANCH   1  27
TORSDOF 11
ENDMDL