MODEL 3
REMARK VINA RESULT: -8.040684966      2.679     10.199
REMARK  10 active torsions:
REMARK  status: ('A' for Active; 'I' for Inactive)
REMARK    1  A    between atoms: N1_1  and  C1_4
REMARK    2  A    between atoms: C2_7  and  C3_8
REMARK    3  A    between atoms: C4_9  and  N3_10
REMARK    4  A    between atoms: N3_10  and  N4_12
REMARK    5  A    between atoms: N5_15  and  C5_16
REMARK    6  A    between atoms: C5_16  and  C6_17
REMARK    7  A    between atoms: C6_17  and  N6_18
REMARK    8  A    between atoms: C8_22  and  C9_23
REMARK    9  A    between atoms: C12_33  and  O1_34
REMARK   10  A    between atoms: N12_41  and  N13_42
ROOT
HETATM    1  C3  UNL     1      78.291 -15.452   6.958  1.00  0.00     0.090 A
HETATM    2  C4  UNL     1      78.737 -15.896   5.727  1.00  0.00     0.138 A
HETATM    3  N5  UNL     1      78.518 -15.200   4.571  1.00  0.00    -0.337 N
HETATM    4  C11 UNL     1      77.840 -14.040   4.644  1.00  0.00     0.133 A
HETATM    5  C12 UNL     1      77.372 -13.551   5.836  1.00  0.00     0.132 A
HETATM    6  C13 UNL     1      77.597 -14.254   7.001  1.00  0.00     0.222 A
HETATM    7  O2  UNL     1      77.177 -13.813   8.102  1.00  0.00    -0.284 OA
ENDROOT
BRANCH   3   8
HETATM    8  C5  UNL     1      79.033 -15.683   3.307  1.00  0.00     0.150 C
BRANCH   8   9
HETATM    9  C6  UNL     1      80.324 -14.931   3.085  1.00  0.00     0.149 C
BRANCH   9  10
HETATM   10  N6  UNL     1      80.334 -14.053   1.960  1.00  0.00    -0.349 N
HETATM   11  C7  UNL     1      80.689 -14.358   0.710  1.00  0.00     0.183 A
HETATM   12  N7  UNL     1      80.587 -13.243  -0.048  1.00  0.00    -0.348 N
HETATM   13  C8  UNL     1      80.165 -12.207   0.705  1.00  0.00     0.095 A
ATOM     14  H7  UNL     1      80.799 -13.192  -1.044  1.00  0.00     0.167 HD
HETATM   15  C10 UNL     1      80.016 -12.755   1.961  1.00  0.00     0.125 A
BRANCH  13  16
HETATM   16  C9  UNL     1      79.933 -10.836   0.278  1.00  0.00     0.162 A
HETATM   17  N8  UNL     1      79.499  -9.819   1.038  1.00  0.00    -0.270 N
HETATM   18  N9  UNL     1      79.414  -8.727   0.305  1.00  0.00    -0.225 N
ATOM     19  H8  UNL     1      79.270  -9.882   2.030  1.00  0.00     0.190 HD
HETATM   20  N10 UNL     1      79.787  -9.006  -0.932  1.00  0.00    -0.005 NA
ATOM     21  H9  UNL     1      79.109  -7.813   0.639  1.00  0.00     0.205 HD
HETATM   22  N11 UNL     1      80.105 -10.305  -0.940  1.00  0.00    -0.265 N
ATOM     23  H11 UNL     1      80.432 -10.819  -1.758  1.00  0.00     0.186 HD
ENDBRANCH  13  16
ENDBRANCH   9  10
ENDBRANCH   8   9
ENDBRANCH   3   8
BRANCH   2  24
HETATM   24  N3  UNL     1      79.410 -17.139   5.501  1.00  0.00    -0.291 N
ATOM     25  H3  UNL     1      80.417 -17.196   5.345  1.00  0.00     0.188 HD
BRANCH  24  26
HETATM   26  N4  UNL     1      78.574 -18.289   5.510  1.00  0.00    -0.344 N
ATOM     27  H42 UNL     1      78.318 -18.757   6.380  1.00  0.00     0.176 HD
ATOM     28  H41 UNL     1      78.257 -18.601   4.592  1.00  0.00     0.176 HD
ENDBRANCH  24  26
ENDBRANCH   2  24
BRANCH   1  29
HETATM   29  C2  UNL     1      78.628 -16.167   8.202  1.00  0.00     0.072 A
HETATM   30  N2  UNL     1      77.680 -16.539   9.097  1.00  0.00    -0.189 N
HETATM   31  C1  UNL     1      77.985 -17.134  10.282  1.00  0.00     0.700 A
ATOM     32  H2  UNL     1      76.700 -16.365   8.874  1.00  0.00     0.184 HD
HETATM   33  N12 UNL     1      79.268 -17.357  10.567  1.00  0.00    -0.055 N
HETATM   34  C15 UNL     1      80.256 -17.010   9.717  1.00  0.00     0.284 A
HETATM   35  C14 UNL     1      79.941 -16.410   8.526  1.00  0.00     0.108 A
HETATM   36  O3  UNL     1      81.459 -17.227   9.996  1.00  0.00    -0.266 OA
BRANCH  31  37
HETATM   37  N1  UNL     1      77.051 -17.457  11.097  1.00  0.00    -0.233 N
ATOM     38  H12 UNL     1      76.977 -17.032  12.021  1.00  0.00     0.174 HD
ATOM     39  H11 UNL     1      76.353 -18.149  10.825  1.00  0.00     0.174 HD
ENDBRANCH  31  37
BRANCH  33  40
HETATM   40  N13 UNL     1      79.615 -17.971  11.767  1.00  0.00    -0.321 N
ATOM     41 2H13 UNL     1      80.534 -18.406  11.842  1.00  0.00     0.178 HD
ATOM     42 1H13 UNL     1      78.952 -17.979  12.542  1.00  0.00     0.178 HD
ENDBRANCH  33  40
ENDBRANCH   1  29
BRANCH   5  43
HETATM   43  O1  UNL     1      76.678 -12.363   5.899  1.00  0.00    -0.356 OA
ATOM     44  H1  UNL     1      77.049 -11.596   6.320  1.00  0.00     0.218 HD
ENDBRANCH   5  43
TORSDOF 10
ENDMDL