MODEL 5
REMARK VINA RESULT: -8.066245994      7.056     10.916
REMARK  10 active torsions:
REMARK  status: ('A' for Active; 'I' for Inactive)
REMARK    1  A    between atoms: C2_3  and  N2_4
REMARK    2  A    between atoms: N3_6  and  O1_8
REMARK    3  A    between atoms: C3_10  and  C4_11
REMARK    4  A    between atoms: C5_16  and  C6_17
REMARK       I    between atoms: C6_17  and  N6_19
REMARK    5  A    between atoms: N6_19  and  C7_21
REMARK    6  A    between atoms: C7_21  and  C8_22
REMARK    7  A    between atoms: C8_22  and  O4_23
REMARK    8  A    between atoms: C8_22  and  N7_25
REMARK    9  A    between atoms: C12_32  and  N10_33
REMARK   10  A    between atoms: N12_37  and  O5_38
ROOT
HETATM    1  N7  UNL     1      79.830 -16.172   8.291  1.00  0.00    -0.198 N
HETATM    2  C9  UNL     1      81.097 -15.809   8.045  1.00  0.00     0.210 A
HETATM    3  C10 UNL     1      82.207 -15.220   7.447  1.00  0.00     0.177 A
HETATM    4  C11 UNL     1      82.186 -14.396   6.283  1.00  0.00     0.122 C
HETATM    5  N8  UNL     1      82.171 -13.718   5.340  1.00  0.00    -0.190 NA
HETATM    6  N9  UNL     1      83.263 -15.591   8.193  1.00  0.00    -0.176 N
ATOM      7  H9  UNL     1      84.233 -15.325   8.022  1.00  0.00     0.185 HD
HETATM    8  C12 UNL     1      82.834 -16.367   9.194  1.00  0.00     0.703 A
HETATM    9  N11 UNL     1      81.489 -16.512   9.118  1.00  0.00    -0.023 N
HETATM   10  N12 UNL     1      80.238 -16.864   9.352  1.00  0.00    -0.065 N
ENDROOT
BRANCH   1  11
HETATM   11  C8  UNL     1      78.488 -15.964   7.716  1.00  0.00     0.264 C
BRANCH  11  12
HETATM   12  C7  UNL     1      78.208 -14.514   7.720  1.00  0.00     0.178 C
BRANCH  12  13
HETATM   13  N6  UNL     1      78.375 -13.786   6.493  1.00  0.00    -0.351 N
HETATM   14  C6  UNL     1      77.512 -12.900   5.870  1.00  0.00     0.274 C
HETATM   15  O3  UNL     1      76.401 -12.670   6.469  1.00  0.00    -0.266 OA
ATOM     16  H6  UNL     1      79.258 -13.946   6.009  1.00  0.00     0.162 HD
BRANCH  14  17
HETATM   17  C5  UNL     1      77.669 -12.182   4.634  1.00  0.00     0.170 A
HETATM   18  N5  UNL     1      76.825 -11.142   4.327  1.00  0.00    -0.340 N
HETATM   19  C3  UNL     1      76.902 -10.429   3.203  1.00  0.00     0.144 A
ATOM     20  H5  UNL     1      76.096 -10.901   4.999  1.00  0.00     0.166 HD
HETATM   21  C2  UNL     1      77.891 -10.762   2.301  1.00  0.00     0.158 A
HETATM   22  N1  UNL     1      78.754 -11.765   2.531  1.00  0.00    -0.300 N
HETATM   23  C1  UNL     1      79.799 -12.120   1.583  1.00  0.00     0.161 C
HETATM   24  C13 UNL     1      78.628 -12.467   3.706  1.00  0.00     0.281 A
HETATM   25  O6  UNL     1      79.477 -13.380   3.823  1.00  0.00    -0.265 OA
BRANCH  19  26
HETATM   26  C4  UNL     1      75.984  -9.332   2.918  1.00  0.00     0.285 C
HETATM   27  N4  UNL     1      75.265  -9.341   1.707  1.00  0.00    -0.056 NA
HETATM   28  O2  UNL     1      75.812  -8.381   3.715  1.00  0.00    -0.269 OA
ENDBRANCH  19  26
BRANCH  21  29
HETATM   29  N2  UNL     1      78.030 -10.041   1.082  1.00  0.00    -0.264 N
HETATM   30  N3  UNL     1      78.894  -9.128   0.919  1.00  0.00    -0.208 N
ATOM     31  H3  UNL     1      79.527  -8.883   1.680  1.00  0.00     0.215 HD
ATOM     32  H2  UNL     1      77.409 -10.269   0.307  1.00  0.00     0.190 HD
BRANCH  30  33
HETATM   33  O1  UNL     1      78.978  -8.477  -0.267  1.00  0.00    -0.274 OA
ATOM     34  H1  UNL     1      78.956  -8.967  -1.081  1.00  0.00     0.246 HD
ENDBRANCH  30  33
ENDBRANCH  21  29
ENDBRANCH  14  17
ENDBRANCH  12  13
ENDBRANCH  11  12
BRANCH  11  35
HETATM   35  O4  UNL     1      77.563 -16.711   8.368  1.00  0.00    -0.373 OA
ATOM     36  H4  UNL     1      77.905 -17.512   8.745  1.00  0.00     0.212 HD
ENDBRANCH  11  35
ENDBRANCH   1  11
BRANCH   8  37
HETATM   37  N10 UNL     1      83.533 -16.919  10.117  1.00  0.00    -0.233 N
ATOM     38 2H10 UNL     1      83.382 -17.883  10.414  1.00  0.00     0.174 HD
ATOM     39 1H10 UNL     1      84.293 -16.506  10.658  1.00  0.00     0.174 HD
ENDBRANCH   8  37
BRANCH  10  40
HETATM   40  O5  UNL     1      79.655 -17.651  10.339  1.00  0.00    -0.252 OA
ATOM     41  H5  UNL     1      79.478 -18.574  10.478  1.00  0.00     0.248 HD
ENDBRANCH  10  40
TORSDOF 10
ENDMDL