MODEL 4
REMARK VINA RESULT: -8.082539925      2.442      3.443
REMARK  8 active torsions:
REMARK  status: ('A' for Active; 'I' for Inactive)
REMARK    1  A    between atoms: C3_5  and  N3_6
REMARK    2  A    between atoms: N4_8  and  N5_10
REMARK       I    between atoms: N5_10  and  C4_12
REMARK       I    between atoms: C4_12  and  N6_14
REMARK    3  A    between atoms: N6_14  and  N7_16
REMARK    4  A    between atoms: N8_18  and  C5_20
REMARK    5  A    between atoms: C6_26  and  C7_27
REMARK    6  A    between atoms: N12_29  and  O3_31
REMARK    7  A    between atoms: C8_33  and  N13_34
REMARK    8  A    between atoms: N13_34  and  N14_36
REMARK       I    between atoms: N14_36  and  C9_38
ROOT
HETATM    1  N5  UNL     1      78.920 -12.774   5.657  1.00  0.00    -0.236 N
ATOM      2  H5  UNL     1      79.903 -12.798   5.387  1.00  0.00     0.193 HD
HETATM    3  C4  UNL     1      77.992 -12.096   4.820  1.00  0.00     0.355 C
HETATM    4  O1  UNL     1      76.768 -12.042   5.117  1.00  0.00    -0.244 OA
HETATM    5  N6  UNL     1      78.407 -11.457   3.623  1.00  0.00    -0.236 N
ATOM      6  H6  UNL     1      79.393 -11.491   3.367  1.00  0.00     0.193 HD
ENDROOT
BRANCH   1   7
HETATM    7  N4  UNL     1      78.528 -13.406   6.835  1.00  0.00    -0.238 N
HETATM    8  N3  UNL     1      79.113 -14.374   7.390  1.00  0.00    -0.280 N
ATOM      9  H3  UNL     1      78.749 -14.773   8.255  1.00  0.00     0.189 HD
ATOM     10  H4  UNL     1      77.687 -13.051   7.291  1.00  0.00     0.208 HD
BRANCH   8  11
HETATM   11  C3  UNL     1      80.282 -14.898   6.792  1.00  0.00     0.136 A
HETATM   12  C2  UNL     1      80.164 -15.598   5.580  1.00  0.00     0.154 A
HETATM   13  N1  UNL     1      81.250 -16.117   4.991  1.00  0.00    -0.290 N
HETATM   14  N2  UNL     1      78.873 -15.722   5.018  1.00  0.00    -0.080 NA
HETATM   15  C1  UNL     1      81.091 -16.838   3.734  1.00  0.00     0.162 C
HETATM   16  C10 UNL     1      82.441 -15.952   5.580  1.00  0.00     0.329 A
HETATM   17  N16 UNL     1      82.592 -15.289   6.735  1.00  0.00    -0.291 N
HETATM   18  O5  UNL     1      83.444 -16.462   4.982  1.00  0.00    -0.246 OA
HETATM   19  C8  UNL     1      81.504 -14.736   7.382  1.00  0.00     0.156 A
ATOM     20  H16 UNL     1      83.522 -15.192   7.142  1.00  0.00     0.172 HD
BRANCH  19  21
HETATM   21  N13 UNL     1      81.708 -14.113   8.455  1.00  0.00    -0.280 N
ATOM     22  H13 UNL     1      81.292 -14.514   9.296  1.00  0.00     0.188 HD
BRANCH  21  23
HETATM   23  N14 UNL     1      82.418 -12.970   8.622  1.00  0.00    -0.252 N
HETATM   24  C9  UNL     1      81.759 -11.694   8.486  1.00  0.00     0.347 C
HETATM   25  N15 UNL     1      82.480 -10.487   8.656  1.00  0.00    -0.038 NA
HETATM   26  O4  UNL     1      80.534 -11.650   8.214  1.00  0.00    -0.249 OA
ATOM     27  H14 UNL     1      83.413 -13.012   8.843  1.00  0.00     0.191 HD
ENDBRANCH  21  23
ENDBRANCH  19  21
ENDBRANCH   8  11
ENDBRANCH   1   7
BRANCH   5  28
HETATM   28  N7  UNL     1      77.530 -10.794   2.794  1.00  0.00    -0.237 N
HETATM   29  N8  UNL     1      77.504 -11.017   1.559  1.00  0.00    -0.267 N
ATOM     30  H8  UNL     1      76.836 -10.499   0.988  1.00  0.00     0.190 HD
ATOM     31  H7  UNL     1      76.888 -10.108   3.192  1.00  0.00     0.208 HD
BRANCH  29  32
HETATM   32  C5  UNL     1      78.364 -11.961   0.907  1.00  0.00     0.175 A
HETATM   33  N9  UNL     1      78.131 -13.265   0.677  1.00  0.00    -0.222 N
HETATM   34  O2  UNL     1      79.161 -13.762   0.061  1.00  0.00    -0.155 OA
ATOM     35  H9  UNL     1      77.289 -13.777   0.941  1.00  0.00     0.198 HD
HETATM   36  N10 UNL     1      80.056 -12.840  -0.121  1.00  0.00    -0.234 N
HETATM   37  C6  UNL     1      79.609 -11.674   0.394  1.00  0.00     0.146 A
ATOM     38  H10 UNL     1      80.956 -12.976  -0.581  1.00  0.00     0.197 HD
BRANCH  37  39
HETATM   39  C7  UNL     1      80.270 -10.381   0.419  1.00  0.00     0.168 C
HETATM   40  N11 UNL     1      80.394  -9.680   1.646  1.00  0.00    -0.078 NA
HETATM   41  N12 UNL     1      80.759  -9.820  -0.627  1.00  0.00    -0.253 N
ATOM     42  H12 UNL     1      81.204  -8.910  -0.503  1.00  0.00     0.195 HD
BRANCH  41  43
HETATM   43  O3  UNL     1      80.739 -10.329  -1.883  1.00  0.00    -0.288 OA
ATOM     44  H3  UNL     1      81.492 -10.657  -2.362  1.00  0.00     0.244 HD
ENDBRANCH  41  43
ENDBRANCH  37  39
ENDBRANCH  29  32
ENDBRANCH   5  28
TORSDOF 8
ENDMDL