MODEL 1
REMARK VINA RESULT: -8.514548699      0.000      0.000
REMARK  10 active torsions:
REMARK  status: ('A' for Active; 'I' for Inactive)
REMARK    1  A    between atoms: N3_9  and  C4_10
REMARK    2  A    between atoms: C4_10  and  N4_11
REMARK    3  A    between atoms: C4_10  and  C12_35
REMARK    4  A    between atoms: N4_11  and  C5_13
REMARK    5  A    between atoms: C8_19  and  C9_20
REMARK    6  A    between atoms: C12_35  and  N12_36
REMARK    7  A    between atoms: C12_35  and  C13_40
REMARK    8  A    between atoms: C13_40  and  C14_41
REMARK    9  A    between atoms: C14_41  and  O4_42
REMARK   10  A    between atoms: C14_41  and  O5_44
ROOT
HETATM    1  N4  UNL     1      78.904 -16.795   8.582  1.00  0.00    -0.362 N
ATOM      2  H4  UNL     1      78.390 -17.375   7.919  1.00  0.00     0.162 HD
ENDROOT
BRANCH   1   3
HETATM    3  C4  UNL     1      79.460 -15.568   8.079  1.00  0.00     0.242 C
BRANCH   3   4
HETATM    4  N3  UNL     1      80.677 -15.707   7.339  1.00  0.00    -0.210 N
HETATM    5  N1  UNL     1      80.901 -16.327   6.195  1.00  0.00    -0.239 N
HETATM    6  C1  UNL     1      80.023 -17.047   5.337  1.00  0.00     0.183 C
HETATM    7  C2  UNL     1      82.226 -16.178   5.885  1.00  0.00     0.345 A
HETATM    8  O1  UNL     1      82.834 -16.623   4.874  1.00  0.00    -0.245 OA
HETATM    9  N2  UNL     1      82.804 -15.469   6.842  1.00  0.00    -0.258 N
HETATM   10  C3  UNL     1      81.864 -15.182   7.726  1.00  0.00     0.347 A
ATOM     11  H2  UNL     1      83.787 -15.197   6.889  1.00  0.00     0.175 HD
HETATM   12  O2  UNL     1      82.051 -14.512   8.781  1.00  0.00    -0.245 OA
ENDBRANCH   3   4
BRANCH   3  13
HETATM   13  C12 UNL     1      78.425 -14.756   7.317  1.00  0.00     0.232 C
BRANCH  13  14
HETATM   14  N12 UNL     1      77.189 -14.583   7.982  1.00  0.00    -0.071 N
ATOM     15 3H12 UNL     1      77.326 -14.618   8.992  1.00  0.00     0.274 HD
ATOM     16 2H12 UNL     1      76.866 -13.621   7.877  1.00  0.00     0.274 HD
ATOM     17 1H12 UNL     1      76.453 -15.232   7.705  1.00  0.00     0.274 HD
ENDBRANCH  13  14
BRANCH  13  18
HETATM   18  C13 UNL     1      79.013 -13.410   6.970  1.00  0.00     0.097 C
BRANCH  18  19
HETATM   19  C14 UNL     1      78.021 -12.299   7.194  1.00  0.00     0.256 C
BRANCH  19  20
HETATM   20  O4  UNL     1      77.339 -12.031   6.017  1.00  0.00    -0.371 OA
ATOM     21  H4  UNL     1      77.410 -11.108   5.806  1.00  0.00     0.212 HD
ENDBRANCH  19  20
BRANCH  19  22
HETATM   22  O5  UNL     1      78.671 -11.173   7.705  1.00  0.00    -0.371 OA
ATOM     23  H5  UNL     1      78.527 -10.427   7.135  1.00  0.00     0.212 HD
ENDBRANCH  19  22
ENDBRANCH  18  19
ENDBRANCH  13  18
ENDBRANCH   3  13
ENDBRANCH   1   3
BRANCH   1  24
HETATM   24  C5  UNL     1      79.003 -17.273   9.908  1.00  0.00     0.086 A
HETATM   25  C6  UNL     1      80.034 -17.770  10.563  1.00  0.00     0.104 A
HETATM   26  N5  UNL     1      81.322 -17.937  10.045  1.00  0.00    -0.097 NA
HETATM   27  C7  UNL     1      79.670 -18.134  11.937  1.00  0.00     0.097 A
HETATM   28  N6  UNL     1      80.093 -18.644  13.114  1.00  0.00    -0.330 N
HETATM   29  C10 UNL     1      78.341 -17.842  12.134  1.00  0.00     0.135 A
HETATM   30  C8  UNL     1      79.041 -18.641  13.947  1.00  0.00     0.196 A
ATOM     31  H6  UNL     1      81.035 -18.971  13.328  1.00  0.00     0.168 HD
HETATM   32  O3  UNL     1      77.984 -18.152  13.346  1.00  0.00    -0.285 OA
HETATM   33  C11 UNL     1      77.889 -17.288  10.850  1.00  0.00     0.091 A
HETATM   34  N11 UNL     1      76.671 -16.893  10.678  1.00  0.00    -0.395 N
ATOM     35 2H11 UNL     1      76.357 -16.509   9.786  1.00  0.00     0.156 HD
ATOM     36 1H11 UNL     1      75.893 -16.903  11.338  1.00  0.00     0.156 HD
BRANCH  30  37
HETATM   37  C9  UNL     1      79.039 -19.104  15.330  1.00  0.00     0.189 A
HETATM   38  N7  UNL     1      79.580 -18.513  16.409  1.00  0.00    -0.265 N
HETATM   39  N8  UNL     1      79.350 -19.273  17.479  1.00  0.00    -0.226 N
ATOM     40  H7  UNL     1      80.085 -17.627  16.408  1.00  0.00     0.190 HD
HETATM   41  N9  UNL     1      78.680 -20.324  17.101  1.00  0.00    -0.226 N
ATOM     42  H8  UNL     1      79.648 -19.067  18.433  1.00  0.00     0.210 HD
HETATM   43  N10 UNL     1      78.477 -20.251  15.807  1.00  0.00    -0.265 N
ATOM     44  H9  UNL     1      78.366 -21.079  17.710  1.00  0.00     0.210 HD
ATOM     45  H10 UNL     1      77.978 -20.941  15.248  1.00  0.00     0.190 HD
ENDBRANCH  30  37
ENDBRANCH   1  24
TORSDOF 10
ENDMDL