MODEL 3
REMARK VINA RESULT: -7.819989226      2.608      7.223
REMARK  11 active torsions:
REMARK  status: ('A' for Active; 'I' for Inactive)
REMARK    1  A    between atoms: C2_2  and  N1_3
REMARK    2  A    between atoms: N1_3  and  C3_5
REMARK    3  A    between atoms: C4_8  and  O1_9
REMARK    4  A    between atoms: C5_11  and  N4_12
REMARK    5  A    between atoms: C7_22  and  O3_23
REMARK    6  A    between atoms: C7_22  and  C8_25
REMARK    7  A    between atoms: C9_28  and  N11_29
REMARK    8  A    between atoms: C10_34  and  N13_35
REMARK    9  A    between atoms: N13_35  and  C11_37
REMARK   10  A    between atoms: C11_37  and  O4_39
REMARK   11  A    between atoms: C13_41  and  O5_42
ROOT
HETATM    1  C3  UNL     1      78.083 -15.184   6.133  1.00  0.00     0.259 C
HETATM    2  N2  UNL     1      79.517 -15.057   5.831  1.00  0.00    -0.084 NA
HETATM    3  N3  UNL     1      79.913 -13.897   6.546  1.00  0.00    -0.164 N
HETATM    4  C4  UNL     1      80.967 -13.358   7.167  1.00  0.00     0.212 A
HETATM    5  C5  UNL     1      80.607 -12.165   7.744  1.00  0.00     0.197 A
HETATM    6  C6  UNL     1      79.249 -12.033   7.416  1.00  0.00     0.301 A
HETATM    7  O2  UNL     1      78.622 -11.001   7.830  1.00  0.00    -0.264 OA
HETATM    8  N9  UNL     1      78.835 -13.079   6.690  1.00  0.00    -0.189 N
HETATM    9  C7  UNL     1      77.715 -13.673   6.009  1.00  0.00     0.241 C
ENDROOT
BRANCH   9  10
HETATM   10  O3  UNL     1      76.525 -13.397   6.647  1.00  0.00    -0.361 OA
ATOM     11  H3  UNL     1      76.157 -12.574   6.345  1.00  0.00     0.213 HD
ENDBRANCH   9  10
BRANCH   9  12
HETATM   12  C8  UNL     1      77.710 -13.408   4.552  1.00  0.00     0.124 A
HETATM   13  N10 UNL     1      77.931 -14.434   3.689  1.00  0.00    -0.188 N
HETATM   14  C9  UNL     1      77.961 -14.271   2.380  1.00  0.00     0.677 A
ATOM     15  H10 UNL     1      78.081 -15.368   4.070  1.00  0.00     0.184 HD
HETATM   16  N12 UNL     1      77.759 -13.014   1.906  1.00  0.00    -0.174 N
HETATM   17  C10 UNL     1      77.533 -11.931   2.646  1.00  0.00     0.158 A
ATOM     18  H12 UNL     1      77.782 -12.890   0.894  1.00  0.00     0.186 HD
HETATM   19  C13 UNL     1      77.507 -12.147   4.053  1.00  0.00     0.139 A
BRANCH  14  20
HETATM   20  N11 UNL     1      78.174 -15.269   1.607  1.00  0.00    -0.234 N
ATOM     21 2H11 UNL     1      78.302 -16.216   1.961  1.00  0.00     0.174 HD
ATOM     22 1H11 UNL     1      78.222 -15.139   0.597  1.00  0.00     0.174 HD
ENDBRANCH  14  20
BRANCH  17  23
HETATM   23  N13 UNL     1      77.324 -10.637   2.146  1.00  0.00    -0.324 N
ATOM     24  H13 UNL     1      78.099  -9.991   2.294  1.00  0.00     0.169 HD
BRANCH  23  25
HETATM   25  C11 UNL     1      76.238 -10.098   1.483  1.00  0.00     0.112 C
HETATM   26  C12 UNL     1      75.276  -9.082   1.891  1.00  0.00     0.097 C
BRANCH  25  27
HETATM   27  O4  UNL     1      76.020 -10.580   0.260  1.00  0.00    -0.350 OA
ATOM     28  H4  UNL     1      75.115 -10.790   0.062  1.00  0.00     0.219 HD
ENDBRANCH  25  27
ENDBRANCH  23  25
ENDBRANCH  17  23
BRANCH  19  29
HETATM   29  O5  UNL     1      77.274 -11.082   4.872  1.00  0.00    -0.355 OA
ATOM     30  H5  UNL     1      76.677 -11.140   5.608  1.00  0.00     0.218 HD
ENDBRANCH  19  29
ENDBRANCH   9  12
BRANCH   1  31
HETATM   31  N1  UNL     1      77.900 -15.539   7.490  1.00  0.00    -0.399 N
ATOM     32  H1  UNL     1      77.418 -14.932   8.151  1.00  0.00     0.155 HD
BRANCH  31  33
HETATM   33  C2  UNL     1      78.437 -16.805   7.870  1.00  0.00     0.111 C
HETATM   34  C1  UNL     1      78.434 -16.861   9.402  1.00  0.00     0.026 C
ENDBRANCH  31  33
ENDBRANCH   1  31
BRANCH   4  35
HETATM   35  O1  UNL     1      82.272 -13.868   7.261  1.00  0.00    -0.342 OA
ATOM     36  H1  UNL     1      83.040 -13.449   7.629  1.00  0.00     0.219 HD
ENDBRANCH   4  35
BRANCH   5  37
HETATM   37  N4  UNL     1      81.392 -11.253   8.498  1.00  0.00    -0.157 N
HETATM   38  N5  UNL     1      81.095 -10.028   8.911  1.00  0.00     0.018 NA
HETATM   39  N6  UNL     1      82.122  -9.537   9.586  1.00  0.00     0.010 NA
HETATM   40  N7  UNL     1      83.084 -10.446   9.608  1.00  0.00    -0.212 N
HETATM   41  N8  UNL     1      82.623 -11.475   8.945  1.00  0.00    -0.210 N
ATOM     42  H7  UNL     1      83.999 -10.361  10.051  1.00  0.00     0.207 HD
ATOM     43  H8  UNL     1      83.144 -12.338   8.791  1.00  0.00     0.211 HD
ENDBRANCH   5  37
TORSDOF 11
ENDMDL