MODEL 2
REMARK VINA RESULT: -7.405217959      3.004      9.823
REMARK  12 active torsions:
REMARK  status: ('A' for Active; 'I' for Inactive)
REMARK    1  A    between atoms: C2_2  and  C3_3
REMARK    2  A    between atoms: C3_3  and  N1_4
REMARK    3  A    between atoms: C4_8  and  N3_9
REMARK    4  A    between atoms: N3_9  and  C5_11
REMARK    5  A    between atoms: C6_14  and  N5_15
REMARK    6  A    between atoms: C7_20  and  N7_21
REMARK    7  A    between atoms: C8_24  and  N8_25
REMARK    8  A    between atoms: C11_31  and  O3_32
REMARK    9  A    between atoms: C11_31  and  C12_34
REMARK   10  A    between atoms: C12_34  and  N10_35
REMARK   11  A    between atoms: C13_39  and  C14_40
REMARK   12  A    between atoms: C14_40  and  N13_41
ROOT
HETATM    1  C1  UNL     1      80.015 -13.488   3.053  1.00  0.00     0.043 C
HETATM    2  C2  UNL     1      78.511 -13.388   3.191  1.00  0.00     0.091 A
HETATM    3  N2  UNL     1      77.829 -13.287   1.946  1.00  0.00    -0.208 NA
HETATM    4  C4  UNL     1      78.575 -13.628   0.775  1.00  0.00     0.189 A
HETATM    5  C9  UNL     1      77.610 -14.777   0.641  1.00  0.00     0.150 A
HETATM    6  N9  UNL     1      76.933 -14.316   1.810  1.00  0.00    -0.240 NA
HETATM    7  C10 UNL     1      76.954 -15.138   2.977  1.00  0.00     0.150 A
HETATM    8  C11 UNL     1      78.018 -14.631   3.894  1.00  0.00     0.116 A
ENDROOT
BRANCH   4   9
HETATM    9  N3  UNL     1      78.503 -12.614  -0.247  1.00  0.00    -0.354 N
ATOM     10  H3  UNL     1      78.166 -12.868  -1.175  1.00  0.00     0.163 HD
BRANCH   9  11
HETATM   11  C5  UNL     1      78.888 -11.265   0.003  1.00  0.00     0.155 A
HETATM   12  N4  UNL     1      80.196 -10.973   0.040  1.00  0.00    -0.174 N
HETATM   13  C6  UNL     1      80.577  -9.699   0.276  1.00  0.00     0.679 A
ATOM     14  H4  UNL     1      80.894 -11.701  -0.110  1.00  0.00     0.186 HD
HETATM   15  N6  UNL     1      79.665  -8.718   0.475  1.00  0.00    -0.175 N
HETATM   16  C7  UNL     1      78.366  -9.004   0.438  1.00  0.00     0.151 A
ATOM     17  H6  UNL     1      79.973  -7.762   0.652  1.00  0.00     0.186 HD
HETATM   18  C8  UNL     1      77.944 -10.288   0.201  1.00  0.00     0.190 A
BRANCH  13  19
HETATM   19  N5  UNL     1      81.833  -9.377   0.319  1.00  0.00    -0.234 N
ATOM     20  H52 UNL     1      82.520 -10.131   0.298  1.00  0.00     0.174 HD
ATOM     21  H51 UNL     1      82.121  -8.400   0.373  1.00  0.00     0.174 HD
ENDBRANCH  13  19
BRANCH  16  22
HETATM   22  N7  UNL     1      77.507  -8.050   0.631  1.00  0.00    -0.383 N
ATOM     23  H72 UNL     1      77.684  -7.323   1.323  1.00  0.00     0.157 HD
ATOM     24  H71 UNL     1      76.650  -8.037   0.077  1.00  0.00     0.157 HD
ENDBRANCH  16  22
BRANCH  18  25
HETATM   25  N8  UNL     1      76.575 -10.643   0.154  1.00  0.00    -0.108 N
HETATM   26  O1  UNL     1      75.803 -10.279   1.065  1.00  0.00    -0.531 OA
HETATM   27  O2  UNL     1      76.031 -11.385  -0.865  1.00  0.00    -0.531 OA
ENDBRANCH  18  25
ENDBRANCH   9  11
ENDBRANCH   4   9
BRANCH   2  28
HETATM   28  C3  UNL     1      78.235 -12.155   3.986  1.00  0.00     0.082 C
BRANCH  28  29
HETATM   29  N1  UNL     1      77.606 -11.139   3.548  1.00  0.00    -0.409 N
ATOM     30  H12 UNL     1      76.587 -11.190   3.564  1.00  0.00     0.155 HD
ATOM     31  H11 UNL     1      78.050 -10.294   3.188  1.00  0.00     0.155 HD
ENDBRANCH  28  29
ENDBRANCH   2  28
BRANCH   8  32
HETATM   32  O3  UNL     1      79.050 -15.563   4.024  1.00  0.00    -0.384 OA
ATOM     33  H3  UNL     1      78.997 -16.005   4.863  1.00  0.00     0.210 HD
ENDBRANCH   8  32
BRANCH   8  34
HETATM   34  C12 UNL     1      77.494 -14.205   5.243  1.00  0.00     0.208 C
BRANCH  34  35
HETATM   35  N10 UNL     1      78.145 -14.887   6.342  1.00  0.00    -0.213 N
HETATM   36  N11 UNL     1      79.314 -14.575   6.874  1.00  0.00    -0.003 NA
HETATM   37  N12 UNL     1      79.612 -15.415   7.872  1.00  0.00    -0.269 N
HETATM   38  C13 UNL     1      78.596 -16.261   7.948  1.00  0.00     0.136 A
ATOM     39  H12 UNL     1      80.449 -15.406   8.454  1.00  0.00     0.185 HD
HETATM   40  N14 UNL     1      77.706 -15.937   7.017  1.00  0.00    -0.271 N
ATOM     41  H14 UNL     1      76.824 -16.421   6.848  1.00  0.00     0.189 HD
BRANCH  38  42
HETATM   42  C14 UNL     1      78.388 -17.420   8.889  1.00  0.00     0.308 C
BRANCH  42  43
HETATM   43  N13 UNL     1      77.588 -17.079  10.017  1.00  0.00    -0.073 N
ATOM     44 3H13 UNL     1      77.805 -16.138  10.348  1.00  0.00     0.274 HD
ATOM     45 2H13 UNL     1      76.614 -16.938   9.745  1.00  0.00     0.274 HD
ATOM     46 1H13 UNL     1      77.661 -17.759  10.774  1.00  0.00     0.274 HD
ENDBRANCH  42  43
ENDBRANCH  38  42
ENDBRANCH  34  35
ENDBRANCH   8  34
TORSDOF 12
ENDMDL