MODEL 4
REMARK VINA RESULT: -8.153866741      3.148      7.548
REMARK  10 active torsions:
REMARK  status: ('A' for Active; 'I' for Inactive)
REMARK    1  A    between atoms: N1_1  and  C1_4
REMARK    2  A    between atoms: C4_14  and  N5_15
REMARK    3  A    between atoms: C6_19  and  C7_20
REMARK    4  A    between atoms: C7_20  and  O2_21
REMARK    5  A    between atoms: C7_20  and  N7_23
REMARK    6  A    between atoms: N7_23  and  O3_24
REMARK    7  A    between atoms: N10_31  and  C9_32
REMARK    8  A    between atoms: C10_37  and  C11_38
REMARK    9  A    between atoms: C11_38  and  N13_39
REMARK   10  A    between atoms: N13_39  and  C12_42
ROOT
HETATM    1  C1  UNL     1      81.768 -14.924   5.422  1.00  0.00     0.700 A
HETATM    2  N2  UNL     1      81.053 -15.832   4.772  1.00  0.00    -0.172 N
ATOM      3  H2  UNL     1      81.177 -16.104   3.798  1.00  0.00     0.186 HD
HETATM    4  C2  UNL     1      80.130 -16.335   5.625  1.00  0.00     0.171 A
HETATM    5  N3  UNL     1      79.222 -17.292   5.284  1.00  0.00    -0.290 N
ATOM      6  H3  UNL     1      79.432 -17.880   4.478  1.00  0.00     0.172 HD
HETATM    7  C3  UNL     1      78.050 -17.519   5.948  1.00  0.00     0.340 C
HETATM    8  O1  UNL     1      77.153 -18.005   5.236  1.00  0.00    -0.246 OA
HETATM    9  N4  UNL     1      77.788 -17.270   7.266  1.00  0.00    -0.138 N
ATOM     10  H4  UNL     1      76.830 -17.451   7.567  1.00  0.00     0.189 HD
HETATM   11  C4  UNL     1      78.627 -16.817   8.225  1.00  0.00     0.724 C
HETATM   12  N9  UNL     1      79.583 -15.895   8.001  1.00  0.00    -0.168 N
ATOM     13  H9  UNL     1      79.804 -15.270   8.775  1.00  0.00     0.186 HD
HETATM   14  C8  UNL     1      80.287 -15.708   6.844  1.00  0.00     0.207 A
HETATM   15  N10 UNL     1      81.300 -14.842   6.706  1.00  0.00     0.043 N
ENDROOT
BRANCH  15  16
HETATM   16  C9  UNL     1      81.846 -13.955   7.672  1.00  0.00     0.721 A
HETATM   17  N11 UNL     1      82.747 -14.224   8.619  1.00  0.00    -0.129 N
HETATM   18  N12 UNL     1      82.979 -13.136   9.317  1.00  0.00    -0.273 N
ATOM     19  H11 UNL     1      83.186 -15.131   8.776  1.00  0.00     0.205 HD
HETATM   20  C10 UNL     1      82.211 -12.138   8.813  1.00  0.00     0.138 A
ATOM     21  H12 UNL     1      83.624 -13.056  10.102  1.00  0.00     0.189 HD
HETATM   22  N14 UNL     1      81.524 -12.673   7.800  1.00  0.00    -0.175 N
ATOM     23  H14 UNL     1      80.856 -12.173   7.215  1.00  0.00     0.185 HD
BRANCH  20  24
HETATM   24  C11 UNL     1      82.216 -10.781   9.377  1.00  0.00     0.310 C
BRANCH  24  25
HETATM   25  N13 UNL     1      81.926  -9.739   8.423  1.00  0.00    -0.064 N
ATOM     26 2H13 UNL     1      82.757  -9.203   8.173  1.00  0.00     0.278 HD
ATOM     27 1H13 UNL     1      81.709 -10.111   7.499  1.00  0.00     0.278 HD
BRANCH  25  28
HETATM   28  C12 UNL     1      80.852  -8.886   8.944  1.00  0.00     0.186 A
HETATM   29  C13 UNL     1      80.295  -7.872   7.989  1.00  0.00     0.035 A
HETATM   30  C14 UNL     1      79.501  -9.088   8.358  1.00  0.00     0.035 A
ENDBRANCH  25  28
ENDBRANCH  24  25
ENDBRANCH  20  24
ENDBRANCH  15  16
BRANCH   1  31
HETATM   31  N1  UNL     1      82.743 -14.247   4.892  1.00  0.00    -0.233 N
ATOM     32  H12 UNL     1      82.745 -13.764   3.993  1.00  0.00     0.174 HD
ATOM     33  H11 UNL     1      83.653 -14.115   5.331  1.00  0.00     0.174 HD
ENDBRANCH   1  31
BRANCH  11  34
HETATM   34  N5  UNL     1      78.484 -17.352   9.533  1.00  0.00    -0.020 N
HETATM   35  N6  UNL     1      77.394 -17.448  10.270  1.00  0.00    -0.274 N
HETATM   36  C5  UNL     1      77.711 -18.018  11.464  1.00  0.00     0.140 A
ATOM     37  H6  UNL     1      76.462 -17.143   9.989  1.00  0.00     0.188 HD
HETATM   38  C6  UNL     1      79.060 -18.276  11.438  1.00  0.00     0.091 A
HETATM   39  N8  UNL     1      79.487 -17.851  10.237  1.00  0.00    -0.263 N
ATOM     40  H8  UNL     1      80.453 -17.906   9.912  1.00  0.00     0.189 HD
BRANCH  38  41
HETATM   41  C7  UNL     1      79.853 -18.895  12.530  1.00  0.00     0.291 C
BRANCH  41  42
HETATM   42  O2  UNL     1      79.741 -18.263  13.742  1.00  0.00    -0.372 OA
ATOM     43  H2  UNL     1      79.444 -18.822  14.451  1.00  0.00     0.212 HD
ENDBRANCH  41  42
BRANCH  41  44
HETATM   44  N7  UNL     1      81.254 -19.049  12.102  1.00  0.00    -0.065 NA
BRANCH  44  45
HETATM   45  O3  UNL     1      81.802 -17.808  12.269  1.00  0.00    -0.293 OA
ATOM     46  H3  UNL     1      82.740 -17.960  12.270  1.00  0.00     0.238 HD
ENDBRANCH  44  45
ENDBRANCH  41  44
ENDBRANCH  38  41
ENDBRANCH  11  34
TORSDOF 10
ENDMDL