MODEL 3
REMARK VINA RESULT: -6.290028315      1.279      1.914
REMARK  4 active torsions:
REMARK  status: ('A' for Active; 'I' for Inactive)
REMARK    1  A    between atoms: N3_4  and  C2_6
REMARK    2  A    between atoms: C2_6  and  C3_7
REMARK    3  A    between atoms: C3_7  and  C4_8
REMARK    4  A    between atoms: N5_12  and  O1_13
ROOT
HETATM    1  C4  UNL     1     -45.150   4.113 -33.540  1.00  0.00    -0.020 A
HETATM    2  C5  UNL     1     -45.675   3.429 -32.453  1.00  0.00     0.118 A
HETATM    3  N4  UNL     1     -46.065   2.196 -32.850  1.00  0.00    -0.286 N
ATOM      4  H4  UNL     1     -46.485   1.485 -32.251  1.00  0.00     0.188 HD
HETATM    5  N5  UNL     1     -45.815   2.063 -34.144  1.00  0.00    -0.175 N
HETATM    6  C6  UNL     1     -45.255   3.219 -34.595  1.00  0.00     0.152 A
ENDROOT
BRANCH   1   7
HETATM    7  C3  UNL     1     -44.597   5.498 -33.581  1.00  0.00     0.061 C
BRANCH   7   8
HETATM    8  C2  UNL     1     -44.123   5.827 -32.181  1.00  0.00     0.126 C
BRANCH   8   9
HETATM    9  N3  UNL     1     -45.183   6.433 -31.435  1.00  0.00    -0.367 N
HETATM   10  C1  UNL     1     -45.190   6.420 -30.138  1.00  0.00     0.196 C
HETATM   11  N1  UNL     1     -46.305   7.059 -29.504  1.00  0.00    -0.067 NA
HETATM   12  N2  UNL     1     -44.175   5.820 -29.360  1.00  0.00    -0.067 NA
ATOM     13  H3  UNL     1     -45.950   6.885 -31.933  1.00  0.00     0.161 HD
ENDBRANCH   8   9
ENDBRANCH   7   8
ENDBRANCH   1   7
BRANCH   5  14
HETATM   14  O1  UNL     1     -46.053   0.976 -34.953  1.00  0.00    -0.268 OA
ATOM     15  H1  UNL     1     -46.583   0.932 -35.740  1.00  0.00     0.247 HD
ENDBRANCH   5  14
TORSDOF 4
ENDMDL