MODEL 2
REMARK VINA RESULT: -5.533967066      1.732      2.103
REMARK  4 active torsions:
REMARK  status: ('A' for Active; 'I' for Inactive)
REMARK    1  A    between atoms: N1_1  and  C1_5
REMARK    2  A    between atoms: C1_5  and  C2_6
REMARK    3  A    between atoms: C2_6  and  C3_7
REMARK    4  A    between atoms: C3_7  and  N2_8
ROOT
HETATM    1  N2  UNL     1     -45.040   4.552 -32.207  1.00  0.00    -0.310 N
HETATM    2  C4  UNL     1     -44.617   5.426 -33.153  1.00  0.00     0.097 A
HETATM    3  C5  UNL     1     -44.632   5.107 -34.491  1.00  0.00     0.034 A
HETATM    4  C6  UNL     1     -45.089   3.882 -34.859  1.00  0.00     0.094 A
HETATM    5  N3  UNL     1     -45.514   3.000 -33.934  1.00  0.00    -0.319 N
ATOM      6  H3  UNL     1     -45.857   2.079 -34.208  1.00  0.00     0.170 HD
HETATM    7  C7  UNL     1     -45.475   3.365 -32.648  1.00  0.00     0.326 A
HETATM    8  O1  UNL     1     -45.880   2.524 -31.786  1.00  0.00    -0.246 OA
ENDROOT
BRANCH   1   9
HETATM    9  C3  UNL     1     -45.047   4.828 -30.789  1.00  0.00     0.135 C
BRANCH   9  10
HETATM   10  C2  UNL     1     -44.990   6.328 -30.622  1.00  0.00     0.047 C
BRANCH  10  11
HETATM   11  C1  UNL     1     -46.218   6.894 -29.972  1.00  0.00     0.231 C
BRANCH  11  12
HETATM   12  N1  UNL     1     -47.289   5.930 -30.166  1.00  0.00    -0.079 N
ATOM     13  H13 UNL     1     -46.997   5.110 -30.698  1.00  0.00     0.274 HD
ATOM     14  H12 UNL     1     -47.550   5.445 -29.308  1.00  0.00     0.274 HD
ATOM     15  H11 UNL     1     -48.067   6.429 -30.596  1.00  0.00     0.274 HD
ENDBRANCH  11  12
ENDBRANCH  10  11
ENDBRANCH   9  10
ENDBRANCH   1   9
TORSDOF 4
ENDMDL