MODEL 5
REMARK VINA RESULT: -5.552645231      2.041      2.943
REMARK  4 active torsions:
REMARK  status: ('A' for Active; 'I' for Inactive)
REMARK    1  A    between atoms: N1_1  and  C1_5
REMARK    2  A    between atoms: C1_5  and  C2_6
REMARK    3  A    between atoms: C2_6  and  N2_7
REMARK    4  A    between atoms: C3_9  and  C4_10
ROOT
HETATM    1  N2  UNL     1     -45.185   2.910 -33.501  1.00  0.00    -0.396 N
ATOM      2  H2  UNL     1     -44.178   2.747 -33.491  1.00  0.00     0.158 HD
HETATM    3  C3  UNL     1     -45.692   3.817 -32.769  1.00  0.00     0.097 C
ENDROOT
BRANCH   3   4
HETATM    4  C4  UNL     1     -45.072   4.717 -31.868  1.00  0.00     0.020 A
HETATM    5  C5  UNL     1     -45.439   4.720 -30.514  1.00  0.00     0.017 A
HETATM    6  C6  UNL     1     -44.868   5.571 -29.603  1.00  0.00     0.018 A
HETATM    7  C7  UNL     1     -43.900   6.458 -30.029  1.00  0.00     0.089 A
HETATM    8  N3  UNL     1     -43.559   6.453 -31.297  1.00  0.00    -0.354 N
HETATM    9  C8  UNL     1     -44.112   5.618 -32.215  1.00  0.00     0.127 A
ATOM     10  H3  UNL     1     -42.843   7.110 -31.608  1.00  0.00     0.166 HD
HETATM   11  N4  UNL     1     -43.607   5.772 -33.524  1.00  0.00    -0.082 NA
ENDBRANCH   3   4
BRANCH   1  12
HETATM   12  C2  UNL     1     -46.061   2.087 -34.372  1.00  0.00     0.146 C
BRANCH  12  13
HETATM   13  C1  UNL     1     -45.130   1.534 -35.444  1.00  0.00     0.249 C
BRANCH  13  14
HETATM   14  N1  UNL     1     -45.476   0.148 -35.690  1.00  0.00    -0.078 N
ATOM     15  H13 UNL     1     -45.958  -0.281 -34.900  1.00  0.00     0.274 HD
ATOM     16  H12 UNL     1     -46.220   0.048 -36.381  1.00  0.00     0.274 HD
ATOM     17  H11 UNL     1     -44.629  -0.359 -35.952  1.00  0.00     0.274 HD
ENDBRANCH  13  14
ENDBRANCH  12  13
ENDBRANCH   1  12
TORSDOF 4
ENDMDL