MODEL 1
REMARK VINA RESULT: -5.978041738      0.000      0.000
REMARK  3 active torsions:
REMARK  status: ('A' for Active; 'I' for Inactive)
REMARK    1  A    between atoms: N3_4  and  C2_6
REMARK    2  A    between atoms: C2_6  and  C3_7
REMARK    3  A    between atoms: C3_7  and  N4_8
ROOT
HETATM    1  N4  UNL     1     -45.215   4.433 -33.155  1.00  0.00    -0.285 N
HETATM    2  C4  UNL     1     -45.459   3.631 -32.109  1.00  0.00     0.201 A
HETATM    3  N5  UNL     1     -46.420   2.732 -32.407  1.00  0.00    -0.346 N
ATOM      4  H5  UNL     1     -46.795   2.008 -31.793  1.00  0.00     0.167 HD
HETATM    5  C5  UNL     1     -46.783   2.986 -33.678  1.00  0.00     0.198 A
HETATM    6  N6  UNL     1     -46.037   4.023 -34.110  1.00  0.00    -0.293 N
ATOM      7  H6  UNL     1     -46.096   4.435 -35.041  1.00  0.00     0.188 HD
ENDROOT
BRANCH   1   8
HETATM    8  C3  UNL     1     -44.244   5.529 -33.221  1.00  0.00     0.169 C
BRANCH   8   9
HETATM    9  C2  UNL     1     -44.480   6.396 -32.026  1.00  0.00     0.143 C
BRANCH   9  10
HETATM   10  N3  UNL     1     -43.512   6.244 -30.987  1.00  0.00    -0.365 N
HETATM   11  C1  UNL     1     -43.901   6.336 -29.755  1.00  0.00     0.197 C
HETATM   12  N1  UNL     1     -45.284   6.586 -29.432  1.00  0.00    -0.067 NA
HETATM   13  N2  UNL     1     -43.025   6.203 -28.657  1.00  0.00    -0.067 NA
ATOM     14  H3  UNL     1     -42.533   6.068 -31.211  1.00  0.00     0.161 HD
ENDBRANCH   9  10
ENDBRANCH   8   9
ENDBRANCH   1   8
TORSDOF 3
ENDMDL