MODEL 2
REMARK VINA RESULT: -6.006530962      6.613      8.843
REMARK  3 active torsions:
REMARK  status: ('A' for Active; 'I' for Inactive)
REMARK    1  A    between atoms: C1_4  and  C2_6
REMARK    2  A    between atoms: C3_7  and  C4_8
REMARK    3  A    between atoms: C4_8  and  N3_9
ROOT
HETATM    1  C4  UNL     1     -44.491   5.503 -33.225  1.00  0.00     0.177 C
ENDROOT
BRANCH   1   2
HETATM    2  C3  UNL     1     -44.616   6.088 -31.864  1.00  0.00    -0.002 C
HETATM    3  C2  UNL     1     -43.884   5.721 -30.849  1.00  0.00     0.042 C
BRANCH   3   4
HETATM    4  C1  UNL     1     -44.076   6.345 -29.560  1.00  0.00     0.109 C
HETATM    5  N1  UNL     1     -45.193   6.914 -29.268  1.00  0.00    -0.388 N
ATOM      6  H12 UNL     1     -45.328   7.355 -28.358  1.00  0.00     0.157 HD
ATOM      7  H11 UNL     1     -45.940   6.916 -29.963  1.00  0.00     0.157 HD
HETATM    8  N2  UNL     1     -43.043   6.342 -28.598  1.00  0.00    -0.083 NA
ENDBRANCH   3   4
ENDBRANCH   1   2
BRANCH   1   9
HETATM    9  N3  UNL     1     -45.386   4.351 -33.374  1.00  0.00    -0.284 N
HETATM   10  C5  UNL     1     -45.300   3.394 -34.312  1.00  0.00     0.130 A
HETATM   11  C6  UNL     1     -46.325   2.494 -34.108  1.00  0.00     0.127 A
HETATM   12  N4  UNL     1     -47.015   2.941 -33.034  1.00  0.00    -0.296 N
HETATM   13  N5  UNL     1     -46.431   4.036 -32.630  1.00  0.00    -0.241 N
ATOM     14  H4  UNL     1     -47.837   2.504 -32.618  1.00  0.00     0.187 HD
ATOM     15  H5  UNL     1     -46.747   4.586 -31.831  1.00  0.00     0.208 HD
ENDBRANCH   1   9
TORSDOF 3
ENDMDL