MODEL 1
REMARK VINA RESULT: -5.991662373      0.000      0.000
REMARK  5 active torsions:
REMARK  status: ('A' for Active; 'I' for Inactive)
REMARK    1  A    between atoms: C5_6  and  C6_7
REMARK    2  A    between atoms: C6_7  and  N2_8
REMARK    3  A    between atoms: N2_8  and  N3_9
REMARK    4  A    between atoms: N2_8  and  C7_12
REMARK    5  A    between atoms: C7_12  and  N4_13
ROOT
HETATM    1  N2  UNL     1     -44.775   3.296 -33.413  1.00  0.00    -0.208 NA
ENDROOT
BRANCH   1   2
HETATM    2  C6  UNL     1     -45.123   3.366 -34.804  1.00  0.00     0.154 C
BRANCH   2   3
HETATM    3  C5  UNL     1     -44.801   2.116 -35.545  1.00  0.00    -0.028 A
HETATM    4  C4  UNL     1     -43.722   2.063 -36.402  1.00  0.00     0.011 A
HETATM    5  C3  UNL     1     -43.434   0.899 -37.083  1.00  0.00     0.018 A
HETATM    6  C2  UNL     1     -44.238  -0.210 -36.898  1.00  0.00     0.090 A
HETATM    7  N1  UNL     1     -45.296  -0.182 -36.068  1.00  0.00    -0.370 N
HETATM    8  C1  UNL     1     -46.144  -1.361 -35.876  1.00  0.00     0.154 C
HETATM    9  C8  UNL     1     -45.552   0.966 -35.417  1.00  0.00     0.098 A
ENDBRANCH   2   3
ENDBRANCH   1   2
BRANCH   1  10
HETATM   10  N3  UNL     1     -43.998   4.435 -33.090  1.00  0.00    -0.362 NA
ATOM     11  H32 UNL     1     -44.074   5.060 -33.893  1.00  0.00     0.171 HD
ATOM     12  H31 UNL     1     -43.042   4.130 -32.907  1.00  0.00     0.171 HD
ENDBRANCH   1  10
BRANCH   1  13
HETATM   13  C7  UNL     1     -45.928   3.341 -32.532  1.00  0.00     0.342 C
BRANCH  13  14
HETATM   14  N4  UNL     1     -47.173   3.388 -33.188  1.00  0.00    -0.066 N
ATOM     15  H43 UNL     1     -47.795   4.045 -32.717  1.00  0.00     0.275 HD
ATOM     16  H42 UNL     1     -47.079   3.851 -34.092  1.00  0.00     0.275 HD
ATOM     17  H41 UNL     1     -47.633   2.485 -33.301  1.00  0.00     0.275 HD
ENDBRANCH  13  14
ENDBRANCH   1  13
TORSDOF 5
ENDMDL