MODEL 1
REMARK VINA RESULT: -5.963023761      0.000      0.000
REMARK  2 active torsions:
REMARK  status: ('A' for Active; 'I' for Inactive)
REMARK    1  A    between atoms: C2_2  and  C3_3
REMARK    2  A    between atoms: N3_12  and  N4_14
ROOT
HETATM    1  C3  UNL     1     -46.052  -0.693 -36.151  1.00  0.00     0.223 C
HETATM    2  O1  UNL     1     -46.772   0.304 -35.431  1.00  0.00    -0.305 OA
HETATM    3  C4  UNL     1     -45.887   1.263 -34.962  1.00  0.00     0.219 C
HETATM    4  N1  UNL     1     -46.136   2.214 -34.128  1.00  0.00    -0.365 N
ATOM      5  H11 UNL     1     -45.485   2.920 -33.783  1.00  0.00     0.159 HD
ATOM      6  H12 UNL     1     -47.052   2.367 -33.706  1.00  0.00     0.159 HD
HETATM    7  N2  UNL     1     -44.612   1.051 -35.549  1.00  0.00    -0.308 N
ATOM      8  H2  UNL     1     -43.771   1.605 -35.387  1.00  0.00     0.170 HD
HETATM    9  C5  UNL     1     -44.725  -0.076 -36.403  1.00  0.00     0.134 C
HETATM   10  N3  UNL     1     -43.845  -0.488 -37.241  1.00  0.00    -0.272 N
ATOM     11  H3  UNL     1     -44.024  -1.314 -37.813  1.00  0.00     0.190 HD
ENDROOT
BRANCH   1  12
HETATM   12  C2  UNL     1     -45.956  -1.956 -35.388  1.00  0.00     0.003 C
HETATM   13  C1  UNL     1     -46.722  -3.006 -35.655  1.00  0.00     0.010 C
ENDBRANCH   1  12
BRANCH  10  14
HETATM   14  N4  UNL     1     -42.645   0.205 -37.361  1.00  0.00    -0.248 N
HETATM   15  N5  UNL     1     -41.537  -0.397 -37.307  1.00  0.00    -0.331 N
ATOM     16  H52 UNL     1     -41.539  -1.408 -37.173  1.00  0.00     0.178 HD
ATOM     17  H51 UNL     1     -40.657   0.112 -37.395  1.00  0.00     0.178 HD
ATOM     18  H4  UNL     1     -42.661   1.215 -37.495  1.00  0.00     0.207 HD
ENDBRANCH  10  14
TORSDOF 2
ENDMDL