MODEL 2
REMARK VINA RESULT: -5.981083833      1.800      4.790
REMARK  3 active torsions:
REMARK  status: ('A' for Active; 'I' for Inactive)
REMARK    1  A    between atoms: N3_4  and  C2_6
REMARK    2  A    between atoms: C2_6  and  C3_7
REMARK    3  A    between atoms: C3_7  and  N4_8
ROOT
HETATM    1  N4  UNL     1     -45.207   4.398 -33.318  1.00  0.00    -0.286 N
HETATM    2  C4  UNL     1     -45.293   3.424 -34.246  1.00  0.00     0.130 A
HETATM    3  C5  UNL     1     -46.390   2.616 -33.963  1.00  0.00     0.127 A
HETATM    4  N5  UNL     1     -46.925   3.155 -32.851  1.00  0.00    -0.296 N
ATOM      5  H5  UNL     1     -47.752   2.808 -32.364  1.00  0.00     0.187 HD
HETATM    6  N6  UNL     1     -46.213   4.200 -32.492  1.00  0.00    -0.241 N
ATOM      7  H6  UNL     1     -46.415   4.782 -31.679  1.00  0.00     0.208 HD
ENDROOT
BRANCH   1   8
HETATM    8  C3  UNL     1     -44.207   5.464 -33.235  1.00  0.00     0.169 C
BRANCH   8   9
HETATM    9  C2  UNL     1     -44.535   6.270 -32.009  1.00  0.00     0.143 C
BRANCH   9  10
HETATM   10  N3  UNL     1     -43.584   6.150 -30.956  1.00  0.00    -0.365 N
HETATM   11  C1  UNL     1     -43.924   6.322 -29.726  1.00  0.00     0.197 C
HETATM   12  N1  UNL     1     -45.278   6.637 -29.430  1.00  0.00    -0.067 NA
HETATM   13  N2  UNL     1     -43.026   6.217 -28.631  1.00  0.00    -0.067 NA
ATOM     14  H3  UNL     1     -42.614   5.923 -31.179  1.00  0.00     0.161 HD
ENDBRANCH   9  10
ENDBRANCH   8   9
ENDBRANCH   1   8
TORSDOF 3
ENDMDL