MODEL 3
REMARK VINA RESULT: -5.976436137      1.853      4.178
REMARK  3 active torsions:
REMARK  status: ('A' for Active; 'I' for Inactive)
REMARK    1  A    between atoms: N2_4  and  N3_6
REMARK    2  A    between atoms: C1_8  and  C2_10
REMARK    3  A    between atoms: C2_10  and  C3_11
ROOT
HETATM    1  N3  UNL     1     -45.479   4.578 -33.983  1.00  0.00    -0.277 N
ATOM      2  H3  UNL     1     -45.471   5.025 -34.900  1.00  0.00     0.189 HD
HETATM    3  C1  UNL     1     -44.702   5.070 -33.117  1.00  0.00     0.113 C
HETATM    4  N4  UNL     1     -43.876   6.176 -33.423  1.00  0.00    -0.086 NA
ENDROOT
BRANCH   3   5
HETATM    5  C2  UNL     1     -44.658   4.476 -31.758  1.00  0.00     0.116 C
BRANCH   5   6
HETATM    6  C3  UNL     1     -44.836   5.491 -30.693  1.00  0.00    -0.018 A
HETATM    7  C4  UNL     1     -46.005   6.164 -30.411  1.00  0.00     0.116 A
HETATM    8  N5  UNL     1     -45.730   6.974 -29.395  1.00  0.00    -0.312 N
HETATM    9  N6  UNL     1     -44.471   6.847 -29.030  1.00  0.00    -0.312 N
ATOM     10  H5  UNL     1     -46.401   7.607 -28.958  1.00  0.00     0.186 HD
HETATM   11  C5  UNL     1     -43.893   5.935 -29.818  1.00  0.00     0.116 A
ATOM     12  H6  UNL     1     -44.014   7.358 -28.274  1.00  0.00     0.186 HD
ENDBRANCH   5   6
ENDBRANCH   3   5
BRANCH   1  13
HETATM   13  N2  UNL     1     -46.334   3.516 -33.836  1.00  0.00    -0.248 N
HETATM   14  N1  UNL     1     -47.486   3.535 -33.345  1.00  0.00    -0.331 N
ATOM     15  H12 UNL     1     -47.809   4.449 -33.023  1.00  0.00     0.178 HD
ATOM     16  H11 UNL     1     -48.122   2.745 -33.235  1.00  0.00     0.178 HD
ATOM     17  H2  UNL     1     -45.995   2.611 -34.164  1.00  0.00     0.207 HD
ENDBRANCH   1  13
TORSDOF 3
ENDMDL