MODEL 5
REMARK VINA RESULT: -9.589250934      3.771      6.653
REMARK  4 active torsions:
REMARK  status: ('A' for Active; 'I' for Inactive)
REMARK    1  A    between atoms: C2_2  and  C3_3
REMARK    2  A    between atoms: C16_18  and  O1_19
REMARK    3  A    between atoms: O1_19  and  C17_20
REMARK    4  A    between atoms: C17_20  and  C18_21
ROOT
HETATM    1  C3  UNL     1      10.628  18.186  18.360  1.00  0.00     0.001 A
HETATM    2  C4  UNL     1      11.097  19.098  17.433  1.00  0.00     0.118 A
HETATM    3  C5  UNL     1      10.915  20.446  17.508  1.00  0.00     0.069 A
HETATM    4  N1  UNL     1      10.216  20.891  18.581  1.00  0.00    -0.353 N
ATOM      5  H1  UNL     1      10.051  21.893  18.685  1.00  0.00     0.166 HD
HETATM    6  C6  UNL     1       9.728  20.039  19.523  1.00  0.00     0.043 A
HETATM    7  C7  UNL     1       9.012  20.561  20.585  1.00  0.00     0.030 A
HETATM    8  C8  UNL     1       8.504  19.708  21.533  1.00  0.00     0.002 A
HETATM    9  C9  UNL     1       8.685  18.353  21.459  1.00  0.00     0.001 A
HETATM   10  C10 UNL     1       9.407  17.829  20.387  1.00  0.00     0.014 A
HETATM   11  C11 UNL     1       9.922  18.680  19.435  1.00  0.00     0.002 A
HETATM   12  C12 UNL     1      11.474  21.416  16.557  1.00  0.00     0.022 A
HETATM   13  C13 UNL     1      11.105  22.761  16.709  1.00  0.00     0.016 A
HETATM   14  C14 UNL     1      11.505  23.714  15.815  1.00  0.00     0.004 A
HETATM   15  C15 UNL     1      12.283  23.336  14.749  1.00  0.00     0.039 A
HETATM   16  C16 UNL     1      12.666  22.011  14.573  1.00  0.00     0.097 A
HETATM   17  C27 UNL     1      12.254  21.053  15.491  1.00  0.00     0.090 A
HETATM   18  N3  UNL     1      12.754  19.731  15.294  1.00  0.00    -0.272 N
HETATM   19  C28 UNL     1      13.952  19.523  14.512  1.00  0.00     0.170 C
HETATM   20  S1  UNL     1      11.912  18.421  16.037  1.00  0.00     0.268 S
HETATM   21  O2  UNL     1      12.802  17.295  16.397  1.00  0.00    -0.200 OA
HETATM   22  O3  UNL     1      10.826  18.000  15.069  1.00  0.00    -0.200 OA
ENDROOT
BRANCH  16  23
HETATM   23  O1  UNL     1      13.445  21.695  13.479  1.00  0.00    -0.343 OA
BRANCH  23  24
HETATM   24  C17 UNL     1      14.002  22.742  12.721  1.00  0.00     0.232 C
BRANCH  24  25
HETATM   25  C18 UNL     1      15.461  22.694  12.581  1.00  0.00     0.034 A
HETATM   26  C19 UNL     1      16.260  23.616  13.262  1.00  0.00     0.028 A
HETATM   27  C20 UNL     1      17.614  23.579  13.134  1.00  0.00     0.016 A
HETATM   28  C21 UNL     1      18.243  22.641  12.337  1.00  0.00    -0.009 A
HETATM   29  C22 UNL     1      19.611  22.592  12.200  1.00  0.00     0.013 A
HETATM   30  C26 UNL     1      17.434  21.741  11.676  1.00  0.00     0.042 A
HETATM   31  C23 UNL     1      20.187  21.633  11.390  1.00  0.00     0.001 A
HETATM   32  C24 UNL     1      19.413  20.718  10.714  1.00  0.00     0.002 A
HETATM   33  C25 UNL     1      18.047  20.787  10.868  1.00  0.00     0.030 A
HETATM   34  N2  UNL     1      16.106  21.803  11.822  1.00  0.00    -0.357 N
ATOM     35  H2  UNL     1      15.544  21.120  11.315  1.00  0.00     0.166 HD
ENDBRANCH  24  25
ENDBRANCH  23  24
ENDBRANCH  16  23
BRANCH   1  36
HETATM   36  C2  UNL     1      10.884  16.753  18.166  1.00  0.00     0.004 C
HETATM   37  C1  UNL     1      10.004  15.855  17.853  1.00  0.00     0.012 C
ENDBRANCH   1  36
TORSDOF 4
ENDMDL