MODEL 1
REMARK VINA RESULT: -11.937388523      0.000      0.000
REMARK  4 active torsions:
REMARK  status: ('A' for Active; 'I' for Inactive)
REMARK    1  A    between atoms: C16_17  and  C17_18
REMARK    2  A    between atoms: C21_22  and  N1_23
REMARK    3  A    between atoms: C23_29  and  C24_30
REMARK    4  A    between atoms: N3_36  and  O4_37
ROOT
HETATM    1  O1  UNL     1      12.231  21.222  14.674  1.00  0.00    -0.286 OA
HETATM    2  C1  UNL     1      13.234  21.680  14.155  1.00  0.00     0.197 C
HETATM    3  C2  UNL     1      14.103  20.833  13.443  1.00  0.00     0.026 A
HETATM    4  C3  UNL     1      14.194  19.612  14.017  1.00  0.00     0.016 A
HETATM    5  C4  UNL     1      15.076  18.694  13.489  1.00  0.00     0.001 A
HETATM    6  C5  UNL     1      15.865  19.034  12.371  1.00  0.00     0.001 A
HETATM    7  C6  UNL     1      15.775  20.279  11.780  1.00  0.00     0.013 A
HETATM    8  C7  UNL     1      14.886  21.136  12.341  1.00  0.00    -0.011 A
HETATM    9  C8  UNL     1      14.783  22.297  11.611  1.00  0.00    -0.012 A
HETATM   10  C9  UNL     1      15.041  22.114  10.304  1.00  0.00     0.013 A
HETATM   11  C10 UNL     1      14.876  23.163   9.411  1.00  0.00     0.001 A
HETATM   12  C11 UNL     1      14.434  24.413   9.873  1.00  0.00     0.001 A
HETATM   13  C12 UNL     1      14.165  24.605  11.215  1.00  0.00     0.014 A
HETATM   14  C13 UNL     1      14.345  23.560  12.058  1.00  0.00     0.005 A
HETATM   15  C14 UNL     1      14.049  23.884  13.360  1.00  0.00     0.092 A
HETATM   16  C15 UNL     1      13.461  23.032  14.306  1.00  0.00     0.073 A
HETATM   17  C16 UNL     1      13.129  23.526  15.530  1.00  0.00     0.060 A
HETATM   18  N2  UNL     1      13.402  24.831  15.732  1.00  0.00    -0.338 N
ATOM     19  H2  UNL     1      13.160  25.232  16.638  1.00  0.00     0.167 HD
HETATM   20  C23 UNL     1      13.982  25.657  14.806  1.00  0.00     0.144 A
HETATM   21  N3  UNL     1      14.311  25.167  13.606  1.00  0.00    -0.205 N
ENDROOT
BRANCH  17  22
HETATM   22  C17 UNL     1      12.519  22.723  16.569  1.00  0.00    -0.006 A
HETATM   23  C18 UNL     1      13.295  21.880  17.279  1.00  0.00     0.014 A
HETATM   24  C19 UNL     1      12.760  21.011  18.196  1.00  0.00     0.003 A
HETATM   25  C20 UNL     1      11.398  21.010  18.384  1.00  0.00     0.036 A
HETATM   26  C21 UNL     1      10.590  21.868  17.664  1.00  0.00     0.103 A
HETATM   27  C22 UNL     1      11.180  22.721  16.756  1.00  0.00     0.049 A
BRANCH  26  28
HETATM   28  N1  UNL     1       9.192  21.827  17.895  1.00  0.00    -0.116 N
HETATM   29  O2  UNL     1       8.588  20.749  18.019  1.00  0.00    -0.532 OA
HETATM   30  O3  UNL     1       8.425  22.970  17.995  1.00  0.00    -0.532 OA
ENDBRANCH  26  28
ENDBRANCH  17  22
BRANCH  20  31
HETATM   31  C24 UNL     1      14.209  27.048  15.241  1.00  0.00     0.010 A
HETATM   32  C25 UNL     1      14.885  27.253  16.453  1.00  0.00     0.015 A
HETATM   33  C26 UNL     1      15.122  28.506  16.953  1.00  0.00     0.001 A
HETATM   34  C27 UNL     1      14.688  29.605  16.253  1.00  0.00     0.000 A
HETATM   35  C28 UNL     1      14.029  29.414  15.072  1.00  0.00     0.001 A
HETATM   36  C29 UNL     1      13.786  28.141  14.562  1.00  0.00     0.015 A
ENDBRANCH  20  31
BRANCH  21  37
HETATM   37  O4  UNL     1      15.043  25.868  12.706  1.00  0.00    -0.281 OA
ATOM     38  H4  UNL     1      15.638  26.538  13.022  1.00  0.00     0.245 HD
ENDBRANCH  21  37
TORSDOF 4
ENDMDL