MODEL 2
REMARK VINA RESULT: -10.000599440      2.321      4.854
REMARK  4 active torsions:
REMARK  status: ('A' for Active; 'I' for Inactive)
REMARK    1  A    between atoms: C2_3  and  N1_4
REMARK    2  A    between atoms: C3_7  and  C4_8
REMARK    3  A    between atoms: C11_15  and  C12_16
REMARK    4  A    between atoms: N3_30  and  C24_31
ROOT
HETATM    1  N1  UNL     1      15.913  21.342  13.461  1.00  0.00    -0.262 N
HETATM    2  N2  UNL     1      16.160  20.002  13.388  1.00  0.00    -0.295 N
ATOM      3  H2  UNL     1      16.914  19.608  12.825  1.00  0.00     0.187 HD
HETATM    4  C3  UNL     1      15.352  19.266  14.099  1.00  0.00     0.072 A
HETATM    5  C10 UNL     1      14.414  20.125  14.748  1.00  0.00     0.035 A
HETATM    6  C11 UNL     1      13.332  19.925  15.414  1.00  0.00     0.054 C
HETATM    7  C16 UNL     1      14.820  21.519  14.306  1.00  0.00     0.131 A
HETATM    8  S1  UNL     1      14.116  22.890  14.732  1.00  0.00    -0.058 SA
ENDROOT
BRANCH   1   9
HETATM    9  C2  UNL     1      16.697  22.325  12.732  1.00  0.00     0.235 C
HETATM   10  C1  UNL     1      17.880  21.735  12.056  1.00  0.00     0.255 C
HETATM   11  O1  UNL     1      18.980  21.758  12.623  1.00  0.00    -0.270 OA
HETATM   12  N3  UNL     1      17.782  21.144  10.769  1.00  0.00    -0.297 N
HETATM   13  C23 UNL     1      16.457  21.007  10.205  1.00  0.00     0.172 C
HETATM   14  C22 UNL     1      15.711  22.259  10.430  1.00  0.00    -0.031 A
HETATM   15  C17 UNL     1      15.812  22.906  11.645  1.00  0.00    -0.017 A
HETATM   16  C21 UNL     1      14.894  22.792   9.425  1.00  0.00     0.009 A
HETATM   17  C18 UNL     1      15.095  24.062  11.819  1.00  0.00     0.010 A
HETATM   18  C19 UNL     1      14.291  24.590  10.833  1.00  0.00     0.001 A
HETATM   19  C20 UNL     1      14.182  23.953   9.615  1.00  0.00     0.001 A
BRANCH  12  20
HETATM   20  C24 UNL     1      18.885  20.687  10.010  1.00  0.00     0.110 A
HETATM   21  C25 UNL     1      18.887  20.896   8.646  1.00  0.00     0.049 A
HETATM   22  C26 UNL     1      19.940  20.461   7.870  1.00  0.00     0.005 A
HETATM   23  C27 UNL     1      20.973  19.819   8.524  1.00  0.00     0.017 A
HETATM   24  C28 UNL     1      20.972  19.609   9.886  1.00  0.00     0.089 A
HETATM   25  N4  UNL     1      19.935  20.045  10.596  1.00  0.00    -0.352 N
ATOM     26  H4  UNL     1      19.926  19.895  11.606  1.00  0.00     0.166 HD
ENDBRANCH  12  20
ENDBRANCH   1   9
BRANCH   4  27
HETATM   27  C4  UNL     1      15.565  17.825  14.060  1.00  0.00    -0.007 A
HETATM   28  C5  UNL     1      14.709  16.905  13.565  1.00  0.00     0.014 A
HETATM   29  C6  UNL     1      15.020  15.535  13.464  1.00  0.00     0.001 A
HETATM   30  C7  UNL     1      16.239  15.063  13.880  1.00  0.00     0.000 A
HETATM   31  C8  UNL     1      17.123  15.977  14.389  1.00  0.00     0.001 A
HETATM   32  C9  UNL     1      16.810  17.307  14.480  1.00  0.00     0.014 A
ENDBRANCH   4  27
BRANCH   6  33
HETATM   33  C12 UNL     1      12.573  18.763  15.793  1.00  0.00     0.075 A
HETATM   34  C13 UNL     1      12.954  17.845  16.799  1.00  0.00     0.039 A
HETATM   35  C14 UNL     1      11.995  16.871  16.896  1.00  0.00     0.027 A
HETATM   36  C15 UNL     1      11.053  17.214  15.950  1.00  0.00     0.142 A
HETATM   37  O2  UNL     1      11.432  18.298  15.353  1.00  0.00    -0.323 OA
ENDBRANCH   6  33
TORSDOF 4
ENDMDL