MODEL 2
REMARK VINA RESULT: -8.946416716      2.922      4.572
REMARK  4 active torsions:
REMARK  status: ('A' for Active; 'I' for Inactive)
REMARK    1  A    between atoms: C4_7  and  C5_8
REMARK    2  A    between atoms: C12_15  and  C13_16
REMARK    3  A    between atoms: C13_16  and  N3_17
REMARK    4  A    between atoms: C22_28  and  C24_31
ROOT
HETATM    1  N3  UNL     1      16.128  21.635  12.724  1.00  0.00    -0.313 N
HETATM    2  C14 UNL     1      16.266  20.416  11.965  1.00  0.00     0.256 A
HETATM    3  O1  UNL     1      16.768  20.299  10.825  1.00  0.00    -0.267 OA
HETATM    4  C15 UNL     1      15.723  19.294  12.719  1.00  0.00     0.042 A
HETATM    5  C16 UNL     1      15.615  17.950  12.428  1.00  0.00     0.019 A
HETATM    6  C17 UNL     1      15.047  17.092  13.326  1.00  0.00     0.024 A
HETATM    7  C18 UNL     1      14.586  17.600  14.523  1.00  0.00     0.045 A
HETATM    8  C19 UNL     1      13.993  16.679  15.449  1.00  0.00     0.099 C
HETATM    9  N4  UNL     1      13.515  15.955  16.205  1.00  0.00    -0.191 NA
HETATM   10  C20 UNL     1      14.701  18.946  14.804  1.00  0.00     0.034 A
HETATM   11  C21 UNL     1      15.275  19.814  13.898  1.00  0.00     0.006 A
HETATM   12  C22 UNL     1      15.523  21.287  13.969  1.00  0.00     0.181 A
HETATM   13  C23 UNL     1      16.633  21.466  14.981  1.00  0.00     0.101 C
HETATM   14  N5  UNL     1      17.463  21.598  15.765  1.00  0.00    -0.194 NA
ENDROOT
BRANCH  12  15
HETATM   15  C24 UNL     1      14.374  22.059  14.420  1.00  0.00    -0.011 A
HETATM   16  C25 UNL     1      13.247  22.220  13.604  1.00  0.00     0.011 A
HETATM   17  C26 UNL     1      12.155  22.963  14.004  1.00  0.00     0.001 A
HETATM   18  C27 UNL     1      12.140  23.579  15.237  1.00  0.00     0.000 A
HETATM   19  C28 UNL     1      13.239  23.433  16.055  1.00  0.00     0.001 A
HETATM   20  C29 UNL     1      14.349  22.679  15.649  1.00  0.00     0.011 A
ENDBRANCH  12  15
BRANCH   1  21
HETATM   21  C13 UNL     1      16.627  22.894  12.235  1.00  0.00     0.168 C
BRANCH  21  22
HETATM   22  C12 UNL     1      15.633  23.617  11.459  1.00  0.00    -0.029 A
HETATM   23  C11 UNL     1      15.217  23.289  10.187  1.00  0.00     0.010 A
HETATM   24  C10 UNL     1      14.279  24.054   9.503  1.00  0.00     0.002 A
HETATM   25  C9  UNL     1      13.725  25.168  10.059  1.00  0.00     0.012 A
HETATM   26  C8  UNL     1      14.123  25.516  11.325  1.00  0.00    -0.025 A
HETATM   27  C7  UNL     1      13.585  26.641  11.915  1.00  0.00     0.013 A
HETATM   28  C30 UNL     1      15.050  24.766  12.007  1.00  0.00    -0.017 A
HETATM   29  C6  UNL     1      13.949  27.032  13.168  1.00  0.00     0.014 A
HETATM   30  C5  UNL     1      14.900  26.267  13.878  1.00  0.00    -0.007 A
HETATM   31  C31 UNL     1      15.433  25.152  13.290  1.00  0.00     0.026 A
BRANCH  30  32
HETATM   32  C4  UNL     1      15.251  26.682  15.223  1.00  0.00     0.061 A
HETATM   33  N1  UNL     1      15.037  27.821  15.864  1.00  0.00    -0.296 N
HETATM   34  C1  UNL     1      14.379  29.049  15.416  1.00  0.00     0.178 C
HETATM   35  N2  UNL     1      15.508  27.758  17.130  1.00  0.00    -0.310 N
HETATM   36  C2  UNL     1      16.033  26.563  17.315  1.00  0.00     0.109 A
ATOM     37  H2  UNL     1      15.464  28.506  17.822  1.00  0.00     0.186 HD
HETATM   38  C3  UNL     1      15.889  25.868  16.146  1.00  0.00     0.050 A
ENDBRANCH  30  32
ENDBRANCH  21  22
ENDBRANCH   1  21
TORSDOF 4
ENDMDL