MODEL 1
REMARK VINA RESULT: -9.932406858      0.000      0.000
REMARK  4 active torsions:
REMARK  status: ('A' for Active; 'I' for Inactive)
REMARK    1  A    between atoms: N2_6  and  C5_7
REMARK    2  A    between atoms: C10_12  and  C11_13
REMARK    3  A    between atoms: N4_22  and  C18_23
REMARK    4  A    between atoms: C18_23  and  C19_24
ROOT
HETATM    1  C5  UNL     1      19.929  20.680  10.894  1.00  0.00     0.077 A
HETATM    2  C6  UNL     1      20.333  21.973  11.032  1.00  0.00     0.034 A
HETATM    3  C7  UNL     1      19.542  22.825  11.774  1.00  0.00     0.016 A
HETATM    4  C8  UNL     1      18.360  22.402  12.375  1.00  0.00    -0.008 A
HETATM    5  C9  UNL     1      17.572  23.248  13.110  1.00  0.00     0.029 A
HETATM    6  C10 UNL     1      16.383  22.770  13.697  1.00  0.00     0.019 A
HETATM    7  C25 UNL     1      16.055  21.465  13.515  1.00  0.00     0.051 A
HETATM    8  C26 UNL     1      15.031  20.668  13.989  1.00  0.00     0.032 A
HETATM    9  C27 UNL     1      15.180  19.383  13.556  1.00  0.00     0.020 A
HETATM   10  C28 UNL     1      16.315  19.372  12.801  1.00  0.00     0.097 A
HETATM   11  N5  UNL     1      16.819  20.613  12.791  1.00  0.00    -0.321 N
HETATM   12  C29 UNL     1      17.965  21.110  12.232  1.00  0.00     0.051 A
HETATM   13  C30 UNL     1      18.753  20.261  11.494  1.00  0.00     0.064 A
ENDROOT
BRANCH   6  14
HETATM   14  C11 UNL     1      15.687  23.718  14.542  1.00  0.00     0.048 A
HETATM   15  C12 UNL     1      16.391  24.439  15.557  1.00  0.00     0.044 A
HETATM   16  C13 UNL     1      15.531  25.318  16.115  1.00  0.00    -0.004 A
HETATM   17  C14 UNL     1      15.690  26.232  17.139  1.00  0.00     0.030 A
HETATM   18  C17 UNL     1      14.318  25.197  15.509  1.00  0.00     0.061 A
HETATM   19  C15 UNL     1      14.647  27.014  17.552  1.00  0.00     0.088 A
HETATM   20  N3  UNL     1      13.461  26.892  16.962  1.00  0.00    -0.373 N
HETATM   21  C16 UNL     1      13.300  26.000  15.959  1.00  0.00     0.118 A
ATOM     22  H3  UNL     1      12.677  27.469  17.265  1.00  0.00     0.164 HD
HETATM   23  N4  UNL     1      14.456  24.215  14.554  1.00  0.00    -0.340 N
BRANCH  23  24
HETATM   24  C18 UNL     1      13.335  23.950  13.683  1.00  0.00     0.168 C
BRANCH  24  25
HETATM   25  C19 UNL     1      13.725  23.992  12.219  1.00  0.00    -0.040 A
HETATM   26  C20 UNL     1      14.132  25.144  11.615  1.00  0.00     0.009 A
HETATM   27  C21 UNL     1      14.475  25.112  10.267  1.00  0.00     0.001 A
HETATM   28  C22 UNL     1      14.403  23.946   9.553  1.00  0.00     0.000 A
HETATM   29  C23 UNL     1      13.996  22.764  10.127  1.00  0.00     0.001 A
HETATM   30  C24 UNL     1      13.658  22.809  11.468  1.00  0.00     0.009 A
ENDBRANCH  24  25
ENDBRANCH  23  24
ENDBRANCH   6  14
BRANCH   1  31
HETATM   31  N2  UNL     1      20.660  19.694  10.150  1.00  0.00    -0.195 N
HETATM   32  N1  UNL     1      20.643  19.569   8.835  1.00  0.00    -0.284 N
HETATM   33  C3  UNL     1      21.440  18.542   8.450  1.00  0.00     0.137 A
HETATM   34  C4  UNL     1      19.869  20.422   7.942  1.00  0.00     0.179 C
HETATM   35  C2  UNL     1      21.975  18.015   9.618  1.00  0.00     0.041 A
HETATM   36  C1  UNL     1      22.913  16.863   9.658  1.00  0.00     0.071 C
HETATM   37  N6  UNL     1      21.464  18.754  10.604  1.00  0.00    -0.282 N
ATOM     38  H6  UNL     1      21.671  18.609  11.592  1.00  0.00     0.189 HD
ENDBRANCH   1  31
TORSDOF 4
ENDMDL