MODEL 4
REMARK VINA RESULT: -10.472443477      1.884      4.556
REMARK  4 active torsions:
REMARK  status: ('A' for Active; 'I' for Inactive)
REMARK    1  A    between atoms: N1_13  and  C13_14
REMARK    2  A    between atoms: C13_14  and  C14_15
REMARK    3  A    between atoms: C14_15  and  N2_16
REMARK    4  A    between atoms: N3_19  and  C17_20
ROOT
HETATM    1  C13 UNL     1      12.728  20.656  15.738  1.00  0.00     0.149 C
ENDROOT
BRANCH   1   2
HETATM    2  N1  UNL     1      13.475  19.829  14.866  1.00  0.00    -0.344 N
HETATM    3  C4  UNL     1      14.015  20.393  13.663  1.00  0.00     0.046 A
HETATM    4  C3  UNL     1      15.157  19.997  12.963  1.00  0.00     0.002 A
HETATM    5  C5  UNL     1      13.224  21.408  13.210  1.00  0.00     0.031 A
HETATM    6  C2  UNL     1      16.116  18.968  13.352  1.00  0.00     0.015 C
HETATM    7  C12 UNL     1      15.516  20.619  11.787  1.00  0.00    -0.013 A
HETATM    8  C1  UNL     1      15.923  17.944  14.200  1.00  0.00     0.014 C
HETATM    9  C32 UNL     1      14.718  17.615  14.936  1.00  0.00    -0.009 A
HETATM   10  C27 UNL     1      13.632  18.434  15.244  1.00  0.00     0.045 A
HETATM   11  C31 UNL     1      14.652  16.323  15.390  1.00  0.00     0.014 A
HETATM   12  C28 UNL     1      12.543  18.000  15.956  1.00  0.00     0.030 A
HETATM   13  C29 UNL     1      12.480  16.704  16.410  1.00  0.00     0.002 A
HETATM   14  C30 UNL     1      13.567  15.873  16.107  1.00  0.00     0.001 A
HETATM   15  C7  UNL     1      14.678  21.659  11.351  1.00  0.00    -0.025 A
HETATM   16  C11 UNL     1      16.618  20.248  11.064  1.00  0.00     0.013 A
HETATM   17  C6  UNL     1      13.552  22.049  12.048  1.00  0.00     0.014 A
HETATM   18  C8  UNL     1      14.996  22.315  10.158  1.00  0.00     0.012 A
HETATM   19  C9  UNL     1      16.104  21.938   9.436  1.00  0.00     0.001 A
HETATM   20  C10 UNL     1      16.918  20.916   9.872  1.00  0.00     0.001 A
ENDBRANCH   1   2
BRANCH   1  21
HETATM   21  C14 UNL     1      13.610  21.404  16.771  1.00  0.00     0.137 C
BRANCH  21  22
HETATM   22  N2  UNL     1      13.616  22.810  16.534  1.00  0.00    -0.408 N
HETATM   23  C15 UNL     1      12.418  23.356  15.990  1.00  0.00     0.136 C
HETATM   24  C16 UNL     1      12.447  24.847  15.831  1.00  0.00     0.142 C
HETATM   25  N3  UNL     1      13.596  25.232  15.061  1.00  0.00    -0.376 N
HETATM   26  C25 UNL     1      14.638  24.262  14.844  1.00  0.00     0.142 C
HETATM   27  C26 UNL     1      14.828  23.347  16.027  1.00  0.00     0.136 C
BRANCH  25  28
HETATM   28  C17 UNL     1      13.692  26.540  14.534  1.00  0.00     0.059 A
HETATM   29  C18 UNL     1      13.294  26.754  13.225  1.00  0.00     0.032 A
HETATM   30  C19 UNL     1      13.366  27.999  12.658  1.00  0.00     0.003 A
HETATM   31  C20 UNL     1      13.835  29.048  13.391  1.00  0.00     0.014 A
HETATM   32  C21 UNL     1      14.228  28.830  14.688  1.00  0.00    -0.004 A
HETATM   33  C22 UNL     1      14.697  29.898  15.403  1.00  0.00     0.032 A
HETATM   34  C24 UNL     1      14.166  27.587  15.280  1.00  0.00     0.085 A
HETATM   35  C23 UNL     1      15.097  29.697  16.707  1.00  0.00     0.108 A
HETATM   36  N4  UNL     1      15.010  28.462  17.221  1.00  0.00    -0.311 N
HETATM   37  N5  UNL     1      14.559  27.424  16.538  1.00  0.00    -0.298 N
ATOM     38  H4  UNL     1      15.307  28.316  18.187  1.00  0.00     0.186 HD
ATOM     39  H5  UNL     1      14.513  26.503  16.975  1.00  0.00     0.187 HD
ENDBRANCH  25  28
ENDBRANCH  21  22
ENDBRANCH   1  21
TORSDOF 4
ENDMDL