MODEL 3
REMARK VINA RESULT: -9.489486133      2.660      6.902
REMARK  5 active torsions:
REMARK  status: ('A' for Active; 'I' for Inactive)
REMARK    1  A    between atoms: C2_2  and  C4_4
REMARK    2  A    between atoms: C4_4  and  N1_5
REMARK    3  A    between atoms: C4_4  and  C20_29
REMARK    4  A    between atoms: N3_18  and  S1_20
REMARK    5  A    between atoms: S1_20  and  C14_23
ROOT
HETATM    1  N1  UNL     1      14.028  22.139  15.289  1.00  0.00    -0.365 N
ATOM      2  H1  UNL     1      14.096  21.137  15.114  1.00  0.00     0.162 HD
HETATM    3  C5  UNL     1      14.964  22.787  14.855  1.00  0.00     0.130 A
HETATM    4  N2  UNL     1      15.028  24.188  15.021  1.00  0.00    -0.350 N
ATOM      5  H2  UNL     1      14.278  24.621  15.560  1.00  0.00     0.166 HD
HETATM    6  C6  UNL     1      15.919  24.959  14.570  1.00  0.00     0.102 A
HETATM    7  C7  UNL     1      17.029  24.390  13.776  1.00  0.00    -0.008 A
HETATM    8  C8  UNL     1      17.952  25.281  13.255  1.00  0.00     0.014 A
HETATM    9  C9  UNL     1      18.980  24.834  12.456  1.00  0.00     0.001 A
HETATM   10  C10 UNL     1      19.017  23.455  12.216  1.00  0.00     0.001 A
HETATM   11  C11 UNL     1      18.113  22.580  12.733  1.00  0.00     0.015 A
HETATM   12  C12 UNL     1      17.088  23.053  13.544  1.00  0.00     0.007 A
HETATM   13  C13 UNL     1      16.069  22.133  14.067  1.00  0.00     0.097 A
HETATM   14  N3  UNL     1      16.088  20.935  14.041  1.00  0.00    -0.276 N
ATOM     15  H3  UNL     1      15.278  20.671  14.602  1.00  0.00     0.179 HD
ENDROOT
BRANCH   1  16
HETATM   16  C4  UNL     1      12.809  22.549  16.024  1.00  0.00     0.120 C
BRANCH  16  17
HETATM   17  C2  UNL     1      11.811  22.648  14.876  1.00  0.00     0.005 C
HETATM   18  C1  UNL     1      11.834  21.772  13.735  1.00  0.00     0.012 C
HETATM   19  C3  UNL     1      11.803  24.111  14.375  1.00  0.00     0.012 C
ENDBRANCH  16  17
BRANCH  16  20
HETATM   20  C20 UNL     1      12.444  21.519  16.989  1.00  0.00    -0.021 A
HETATM   21  C21 UNL     1      13.261  20.488  17.394  1.00  0.00     0.027 A
HETATM   22  C22 UNL     1      12.885  19.625  18.393  1.00  0.00     0.089 A
HETATM   23  N4  UNL     1      11.683  19.746  19.042  1.00  0.00    -0.365 N
HETATM   24  C23 UNL     1      10.855  20.736  18.678  1.00  0.00     0.042 A
ATOM     25  H4  UNL     1      11.425  19.097  19.784  1.00  0.00     0.165 HD
HETATM   26  C24 UNL     1       9.614  20.817  19.295  1.00  0.00     0.030 A
HETATM   27  C28 UNL     1      11.214  21.627  17.660  1.00  0.00    -0.001 A
HETATM   28  C25 UNL     1       8.720  21.809  18.886  1.00  0.00     0.002 A
HETATM   29  C26 UNL     1       9.026  22.691  17.917  1.00  0.00     0.001 A
HETATM   30  C27 UNL     1      10.297  22.568  17.319  1.00  0.00     0.014 A
ENDBRANCH  16  20
ENDBRANCH   1  16
BRANCH  14  31
HETATM   31  S1  UNL     1      16.717  19.510  13.586  1.00  0.00     0.263 S
HETATM   32  O1  UNL     1      17.251  19.454  12.159  1.00  0.00    -0.200 OA
HETATM   33  O2  UNL     1      17.887  18.963  14.425  1.00  0.00    -0.200 OA
BRANCH  31  34
HETATM   34  C14 UNL     1      15.546  18.174  13.727  1.00  0.00     0.079 A
HETATM   35  C15 UNL     1      14.448  18.352  14.567  1.00  0.00     0.025 A
HETATM   36  C16 UNL     1      13.582  17.317  14.739  1.00  0.00     0.002 A
HETATM   37  C17 UNL     1      13.748  16.075  14.104  1.00  0.00     0.000 A
HETATM   38  C18 UNL     1      14.846  15.940  13.283  1.00  0.00     0.002 A
HETATM   39  C19 UNL     1      15.746  16.998  13.095  1.00  0.00     0.025 A
ENDBRANCH  31  34
ENDBRANCH  14  31
TORSDOF 5
ENDMDL