MODEL 5
REMARK VINA RESULT: -8.698017473      5.574     11.216
REMARK  8 active torsions:
REMARK  status: ('A' for Active; 'I' for Inactive)
REMARK    1  A    between atoms: O1_2  and  C2_3
REMARK    2  A    between atoms: C5_6  and  C6_7
REMARK    3  A    between atoms: C6_7  and  C7_8
REMARK    4  A    between atoms: C8_9  and  C9_10
REMARK    5  A    between atoms: C12_15  and  C13_16
REMARK    6  A    between atoms: C14_17  and  C15_18
REMARK    7  A    between atoms: C19_22  and  C20_23
REMARK    8  A    between atoms: C30_35  and  O3_36
ROOT
HETATM    1  C9  UNL     1      16.178  22.490  12.584  1.00  0.00     0.134 A
HETATM    2  C10 UNL     1      17.560  22.523  12.531  1.00  0.00     0.131 A
HETATM    3  N1  UNL     1      18.063  21.365  13.009  1.00  0.00    -0.346 N
ATOM      4  H1  UNL     1      19.050  21.117  13.088  1.00  0.00     0.167 HD
HETATM    5  C11 UNL     1      17.010  20.599  13.364  1.00  0.00     0.156 A
HETATM    6  C12 UNL     1      16.679  19.361  13.900  1.00  0.00     0.095 A
HETATM    7  C27 UNL     1      15.298  19.372  13.934  1.00  0.00     0.096 A
HETATM    8  C28 UNL     1      14.395  18.294  14.417  1.00  0.00     0.081 C
HETATM    9  O2  UNL     1      14.867  20.528  13.455  1.00  0.00    -0.231 OA
HETATM   10  N2  UNL     1      15.876  21.281  13.107  1.00  0.00    -0.189 N
ENDROOT
BRANCH   6  11
HETATM   11  C13 UNL     1      17.547  18.299  14.326  1.00  0.00    -0.055 C
HETATM   12  C14 UNL     1      18.292  17.410  14.671  1.00  0.00    -0.061 C
BRANCH  12  13
HETATM   13  C15 UNL     1      19.194  16.355  15.061  1.00  0.00     0.018 A
HETATM   14  C16 UNL     1      19.204  15.872  16.370  1.00  0.00     0.020 A
HETATM   15  C17 UNL     1      20.073  14.864  16.724  1.00  0.00     0.002 A
HETATM   16  C18 UNL     1      20.956  14.289  15.840  1.00  0.00     0.012 A
HETATM   17  C19 UNL     1      20.956  14.761  14.534  1.00  0.00    -0.025 A
HETATM   18  C26 UNL     1      20.083  15.772  14.183  1.00  0.00     0.032 A
BRANCH  17  19
HETATM   19  C20 UNL     1      21.849  14.215  13.538  1.00  0.00    -0.026 A
HETATM   20  C21 UNL     1      21.519  14.205  12.207  1.00  0.00     0.012 A
HETATM   21  C22 UNL     1      22.389  13.677  11.261  1.00  0.00     0.001 A
HETATM   22  C23 UNL     1      23.596  13.159  11.665  1.00  0.00     0.000 A
HETATM   23  C24 UNL     1      23.942  13.160  12.987  1.00  0.00     0.001 A
HETATM   24  C25 UNL     1      23.058  13.695  13.930  1.00  0.00     0.012 A
ENDBRANCH  17  19
ENDBRANCH  12  13
ENDBRANCH   6  11
BRANCH   1  25
HETATM   25  C8  UNL     1      15.299  23.545  12.161  1.00  0.00    -0.044 C
HETATM   26  C7  UNL     1      14.573  24.445  11.815  1.00  0.00    -0.095 C
BRANCH  26  27
HETATM   27  C6  UNL     1      13.706  25.554  11.410  1.00  0.00     0.132 C
BRANCH  27  28
HETATM   28  C5  UNL     1      13.646  26.498  12.526  1.00  0.00    -0.044 A
HETATM   29  C4  UNL     1      13.631  27.850  12.279  1.00  0.00     0.011 A
HETATM   30  C3  UNL     1      13.576  28.759  13.336  1.00  0.00     0.040 A
HETATM   31  C2  UNL     1      13.536  28.327  14.635  1.00  0.00     0.101 A
HETATM   32  C30 UNL     1      13.552  26.950  14.855  1.00  0.00     0.102 A
HETATM   33  C29 UNL     1      13.607  26.042  13.822  1.00  0.00     0.047 A
BRANCH  31  34
HETATM   34  O1  UNL     1      13.480  29.202  15.711  1.00  0.00    -0.353 OA
HETATM   35  C1  UNL     1      14.555  30.016  16.092  1.00  0.00     0.210 C
ENDBRANCH  31  34
BRANCH  32  36
HETATM   36  O3  UNL     1      13.512  26.475  16.168  1.00  0.00    -0.353 OA
HETATM   37  C31 UNL     1      14.719  26.230  16.852  1.00  0.00     0.210 C
ENDBRANCH  32  36
ENDBRANCH  27  28
ENDBRANCH  26  27
ENDBRANCH   1  25
TORSDOF 8
ENDMDL