MODEL 4
REMARK VINA RESULT: -9.311728082      3.939      5.877
REMARK  6 active torsions:
REMARK  status: ('A' for Active; 'I' for Inactive)
REMARK    1  A    between atoms: C2_2  and  N1_3
REMARK    2  A    between atoms: N1_3  and  C3_4
REMARK    3  A    between atoms: N1_3  and  C25_30
REMARK    4  A    between atoms: C3_4  and  C4_5
REMARK    5  A    between atoms: C5_6  and  C6_7
REMARK    6  A    between atoms: C14_15  and  C15_16
ROOT
HETATM    1  C15 UNL     1      18.499  22.331  11.963  1.00  0.00    -0.026 A
HETATM    2  C16 UNL     1      17.892  21.469  11.085  1.00  0.00     0.014 A
HETATM    3  C17 UNL     1      18.659  20.556  10.341  1.00  0.00     0.023 A
HETATM    4  C18 UNL     1      20.034  20.532  10.497  1.00  0.00     0.044 A
HETATM    5  C19 UNL     1      20.854  19.608   9.746  1.00  0.00     0.099 C
HETATM    6  N2  UNL     1      21.510  18.868   9.129  1.00  0.00    -0.191 NA
HETATM    7  C20 UNL     1      20.654  21.404  11.385  1.00  0.00     0.023 A
HETATM    8  C21 UNL     1      19.858  22.298  12.109  1.00  0.00     0.014 A
ENDROOT
BRANCH   1   9
HETATM    9  C14 UNL     1      17.670  23.263  12.717  1.00  0.00    -0.025 A
HETATM   10  C13 UNL     1      16.471  22.922  13.254  1.00  0.00     0.026 A
HETATM   11  C12 UNL     1      15.661  23.798  13.975  1.00  0.00    -0.002 A
HETATM   12  C10 UNL     1      14.384  23.569  14.593  1.00  0.00    -0.001 A
HETATM   13  C24 UNL     1      16.151  25.059  14.120  1.00  0.00     0.075 A
HETATM   14  C9  UNL     1      13.833  24.637  15.236  1.00  0.00     0.075 A
HETATM   15  C11 UNL     1      13.624  22.385  14.619  1.00  0.00     0.034 A
HETATM   16  C8  UNL     1      12.609  24.603  15.886  1.00  0.00     0.026 A
HETATM   17  S1  UNL     1      14.993  25.961  15.039  1.00  0.00     0.208 S
HETATM   18  C7  UNL     1      11.926  23.415  15.870  1.00  0.00     0.022 A
HETATM   19  C6  UNL     1      12.413  22.290  15.243  1.00  0.00     0.018 A
HETATM   20  O1  UNL     1      14.361  27.073  14.227  1.00  0.00    -0.217 OA
HETATM   21  O2  UNL     1      15.498  26.434  16.352  1.00  0.00    -0.217 OA
HETATM   22  C23 UNL     1      17.355  25.427  13.588  1.00  0.00     0.025 A
HETATM   23  C22 UNL     1      18.143  24.550  12.878  1.00  0.00     0.014 A
BRANCH  19  24
HETATM   24  C5  UNL     1      11.658  21.044  15.246  1.00  0.00    -0.065 C
HETATM   25  C4  UNL     1      11.032  20.013  15.270  1.00  0.00    -0.081 C
BRANCH  25  26
HETATM   26  C3  UNL     1      10.284  18.753  15.324  1.00  0.00     0.218 C
BRANCH  26  27
HETATM   27  N1  UNL     1       9.725  18.479  16.608  1.00  0.00    -0.357 N
BRANCH  27  28
HETATM   28  C2  UNL     1       9.360  17.172  17.064  1.00  0.00     0.121 C
HETATM   29  C1  UNL     1       8.638  16.345  16.047  1.00  0.00     0.026 C
ENDBRANCH  27  28
BRANCH  27  30
HETATM   30  C25 UNL     1       9.509  19.569  17.508  1.00  0.00     0.103 A
HETATM   31  C26 UNL     1       8.677  20.576  17.025  1.00  0.00     0.048 A
HETATM   32  C27 UNL     1       8.391  21.677  17.797  1.00  0.00     0.005 A
HETATM   33  C28 UNL     1       8.960  21.731  19.048  1.00  0.00     0.017 A
HETATM   34  C29 UNL     1       9.791  20.700  19.499  1.00  0.00     0.089 A
HETATM   35  N3  UNL     1      10.047  19.640  18.715  1.00  0.00    -0.352 N
ATOM     36  H3  UNL     1      10.654  18.891  19.049  1.00  0.00     0.166 HD
ENDBRANCH  27  30
ENDBRANCH  26  27
ENDBRANCH  25  26
ENDBRANCH  19  24
ENDBRANCH   1   9
TORSDOF 6
ENDMDL