MODEL 2
REMARK VINA RESULT: -10.726124908      2.671      6.072
REMARK  5 active torsions:
REMARK  status: ('A' for Active; 'I' for Inactive)
REMARK    1  A    between atoms: C5_5  and  C6_6
REMARK    2  A    between atoms: C6_6  and  C7_7
REMARK    3  A    between atoms: C8_10  and  C9_11
REMARK    4  A    between atoms: C30_36  and  N3_37
REMARK    5  A    between atoms: N3_37  and  O3_39
ROOT
HETATM    1  C1  UNL     1      19.119  22.167  12.486  1.00  0.00     0.018 C
HETATM    2  C2  UNL     1      17.995  22.451  12.133  1.00  0.00    -0.075 C
HETATM    3  C3  UNL     1      16.654  22.789  11.741  1.00  0.00     0.046 A
HETATM    4  C4  UNL     1      16.029  23.964  12.089  1.00  0.00     0.030 A
HETATM    5  C5  UNL     1      14.734  24.285  11.723  1.00  0.00    -0.051 A
HETATM    6  C28 UNL     1      14.024  23.391  10.970  1.00  0.00     0.010 A
HETATM    7  C29 UNL     1      14.609  22.204  10.600  1.00  0.00     0.034 A
HETATM    8  C30 UNL     1      15.897  21.900  10.973  1.00  0.00     0.079 A
ENDROOT
BRANCH   8   9
HETATM    9  N3  UNL     1      16.495  20.681  10.579  1.00  0.00    -0.245 N
HETATM   10  C31 UNL     1      16.320  19.637  11.295  1.00  0.00     0.156 C
BRANCH   9  11
HETATM   11  O3  UNL     1      17.262  20.632   9.461  1.00  0.00    -0.284 OA
ATOM     12  H3  UNL     1      16.927  20.977   8.641  1.00  0.00     0.245 HD
ENDBRANCH   9  11
ENDBRANCH   8   9
BRANCH   5  13
HETATM   13  C6  UNL     1      14.150  25.583  12.110  1.00  0.00     0.096 C
BRANCH  13  14
HETATM   14  C7  UNL     1      14.054  25.828  13.548  1.00  0.00     0.025 A
HETATM   15  N1  UNL     1      13.791  24.763  14.371  1.00  0.00    -0.361 N
HETATM   16  C8  UNL     1      13.649  24.896  15.701  1.00  0.00     0.029 A
ATOM     17  H1  UNL     1      13.701  23.835  13.958  1.00  0.00     0.165 HD
HETATM   18  C21 UNL     1      13.756  26.111  16.325  1.00  0.00     0.038 A
HETATM   19  C22 UNL     1      14.020  27.212  15.546  1.00  0.00    -0.022 A
HETATM   20  C23 UNL     1      14.141  28.444  16.152  1.00  0.00     0.012 A
HETATM   21  C27 UNL     1      14.165  27.042  14.162  1.00  0.00    -0.003 A
HETATM   22  C24 UNL     1      14.416  29.567  15.402  1.00  0.00     0.001 A
HETATM   23  C25 UNL     1      14.561  29.403  14.041  1.00  0.00     0.001 A
HETATM   24  C26 UNL     1      14.440  28.171  13.433  1.00  0.00     0.014 A
BRANCH  16  25
HETATM   25  C9  UNL     1      13.374  23.683  16.499  1.00  0.00     0.186 C
HETATM   26  C10 UNL     1      11.996  23.167  16.261  1.00  0.00     0.179 C
HETATM   27  O1  UNL     1      10.935  23.816  15.978  1.00  0.00    -0.291 OA
HETATM   28  C11 UNL     1      12.067  21.723  16.415  1.00  0.00     0.042 A
HETATM   29  C12 UNL     1      11.132  20.728  16.624  1.00  0.00     0.031 A
HETATM   30  C19 UNL     1      13.381  21.344  16.319  1.00  0.00     0.094 A
HETATM   31  C13 UNL     1      11.524  19.412  16.727  1.00  0.00    -0.009 A
HETATM   32  C14 UNL     1      10.633  18.387  16.933  1.00  0.00     0.014 A
HETATM   33  C18 UNL     1      12.866  19.091  16.622  1.00  0.00     0.043 A
HETATM   34  C15 UNL     1      11.018  17.072  17.035  1.00  0.00     0.001 A
HETATM   35  C16 UNL     1      12.360  16.779  16.926  1.00  0.00     0.002 A
HETATM   36  C17 UNL     1      13.307  17.775  16.718  1.00  0.00     0.030 A
HETATM   37  N2  UNL     1      13.776  20.058  16.419  1.00  0.00    -0.352 N
ATOM     38  H2  UNL     1      14.766  19.820  16.341  1.00  0.00     0.166 HD
HETATM   39  C20 UNL     1      14.221  22.536  16.097  1.00  0.00     0.194 C
HETATM   40  O2  UNL     1      15.393  22.581  15.666  1.00  0.00    -0.289 OA
ENDBRANCH  16  25
ENDBRANCH  13  14
ENDBRANCH   5  13
TORSDOF 5
ENDMDL