MODEL 4
REMARK VINA RESULT: -7.479400503      2.299      4.831
REMARK  9 active torsions:
REMARK  status: ('A' for Active; 'I' for Inactive)
REMARK    1  A    between atoms: C2_2  and  C3_3
REMARK    2  A    between atoms: C6_7  and  O1_8
REMARK    3  A    between atoms: O1_8  and  C7_9
REMARK    4  A    between atoms: C7_9  and  C8_10
REMARK    5  A    between atoms: C8_10  and  C9_11
REMARK    6  A    between atoms: C9_11  and  O2_12
REMARK    7  A    between atoms: C9_11  and  C10_14
REMARK    8  A    between atoms: C10_14  and  N1_15
REMARK    9  A    between atoms: C19_24  and  O3_25
ROOT
HETATM    1  N1  UNL     1     -34.496  15.435 -52.175  1.00  0.00     0.091 N
HETATM    2  C11 UNL     1     -34.500  14.579 -53.308  1.00  0.00     0.273 C
HETATM    3  C12 UNL     1     -34.139  13.142 -52.972  1.00  0.00     0.044 C
HETATM    4  C13 UNL     1     -32.774  13.128 -52.315  1.00  0.00    -0.009 C
HETATM    5  C14 UNL     1     -31.707  13.419 -53.370  1.00  0.00     0.015 C
HETATM    6  C15 UNL     1     -31.826  12.499 -54.537  1.00  0.00     0.006 C
HETATM    7  C16 UNL     1     -31.972  11.057 -54.159  1.00  0.00     0.039 C
HETATM    8  C17 UNL     1     -32.058  10.826 -52.693  1.00  0.00    -0.048 A
HETATM    9  C18 UNL     1     -31.739   9.574 -52.223  1.00  0.00     0.044 A
HETATM   10  C19 UNL     1     -31.770   9.211 -50.895  1.00  0.00     0.068 A
HETATM   11  C21 UNL     1     -32.148  10.176 -49.992  1.00  0.00     0.037 A
HETATM   12  C22 UNL     1     -32.476  11.455 -50.449  1.00  0.00     0.011 A
HETATM   13  C23 UNL     1     -32.435  11.788 -51.782  1.00  0.00    -0.043 A
HETATM   14  C24 UNL     1     -32.674  14.154 -51.241  1.00  0.00     0.044 C
HETATM   15  C25 UNL     1     -33.115  15.531 -51.716  1.00  0.00     0.273 C
ENDROOT
BRANCH   1  16
HETATM   16  C10 UNL     1     -35.411  15.185 -51.130  1.00  0.00     0.303 C
BRANCH  16  17
HETATM   17  C9  UNL     1     -36.794  15.709 -51.372  1.00  0.00     0.148 C
BRANCH  17  18
HETATM   18  C8  UNL     1     -37.709  15.476 -50.169  1.00  0.00     0.060 C
BRANCH  18  19
HETATM   19  C7  UNL     1     -37.296  14.237 -49.460  1.00  0.00     0.178 C
BRANCH  19  20
HETATM   20  O1  UNL     1     -37.809  13.044 -49.944  1.00  0.00    -0.348 OA
BRANCH  20  21
HETATM   21  C6  UNL     1     -37.189  12.039 -50.623  1.00  0.00     0.103 A
HETATM   22  C5  UNL     1     -36.239  11.198 -50.135  1.00  0.00     0.046 A
HETATM   23  C4  UNL     1     -35.647  10.179 -50.895  1.00  0.00     0.029 A
HETATM   24 BR1  UNL     1     -35.629  11.414 -48.337  1.00  0.00    -0.048 Br
HETATM   25  C3  UNL     1     -36.052  10.033 -52.192  1.00  0.00    -0.056 A
HETATM   26  C27 UNL     1     -37.007  10.856 -52.732  1.00  0.00     0.029 A
HETATM   27  C26 UNL     1     -37.564  11.840 -51.959  1.00  0.00     0.046 A
HETATM   28 BR2  UNL     1     -38.885  12.968 -52.732  1.00  0.00    -0.048 Br
BRANCH  25  29
HETATM   29  C2  UNL     1     -35.455   8.964 -53.064  1.00  0.00     0.034 C
HETATM   30  C1  UNL     1     -35.009   7.816 -52.182  1.00  0.00     0.010 C
ENDBRANCH  25  29
ENDBRANCH  20  21
ENDBRANCH  19  20
ENDBRANCH  18  19
ENDBRANCH  17  18
BRANCH  17  31
HETATM   31  O2  UNL     1     -36.771  17.020 -51.794  1.00  0.00    -0.394 OA
ATOM     32  H2  UNL     1     -36.579  17.115 -52.719  1.00  0.00     0.210 HD
ENDBRANCH  17  31
ENDBRANCH  16  17
ENDBRANCH   1  16
BRANCH  10  33
HETATM   33  O3  UNL     1     -31.451   7.953 -50.417  1.00  0.00    -0.356 OA
HETATM   34  C20 UNL     1     -30.542   7.835 -49.352  1.00  0.00     0.210 C
ENDBRANCH  10  33
TORSDOF 9
ENDMDL