MODEL 1
REMARK VINA RESULT: -7.948695905      0.000      0.000
REMARK  8 active torsions:
REMARK  status: ('A' for Active; 'I' for Inactive)
REMARK    1  A    between atoms: O1_2  and  C2_3
REMARK    2  A    between atoms: C6_8  and  S1_9
REMARK    3  A    between atoms: S1_9  and  C7_10
REMARK    4  A    between atoms: C7_10  and  C8_11
REMARK    5  A    between atoms: C8_11  and  C9_12
REMARK    6  A    between atoms: C9_12  and  N1_13
REMARK    7  A    between atoms: C12_16  and  C13_17
REMARK    8  A    between atoms: C13_17  and  N2_18
ROOT
HETATM    1  C7  UNL     1     -35.817  12.053 -49.187  1.00  0.00     0.085 C
ENDROOT
BRANCH   1   2
HETATM    2  S1  UNL     1     -34.281  11.822 -48.279  1.00  0.00    -0.127 SA
BRANCH   2   3
HETATM    3  C6  UNL     1     -33.204  10.690 -49.140  1.00  0.00     0.028 A
HETATM    4  C5  UNL     1     -32.888  10.768 -50.475  1.00  0.00     0.012 A
HETATM    5  C4  UNL     1     -33.261  11.648 -51.476  1.00  0.00     0.037 A
HETATM    6  C22 UNL     1     -32.026   9.731 -50.819  1.00  0.00     0.064 A
HETATM    7  C3  UNL     1     -32.778  11.479 -52.754  1.00  0.00     0.046 A
HETATM    8  C2  UNL     1     -31.929  10.459 -53.094  1.00  0.00     0.105 A
HETATM    9 BR1  UNL     1     -33.306  12.700 -54.099  1.00  0.00    -0.048 Br
HETATM   10  C23 UNL     1     -31.547   9.572 -52.113  1.00  0.00     0.073 A
HETATM   11 BR2  UNL     1     -30.370   8.117 -52.474  1.00  0.00    -0.046 Br
HETATM   12  N3  UNL     1     -31.833   9.037 -49.671  1.00  0.00    -0.363 N
HETATM   13  C21 UNL     1     -32.523   9.590 -48.664  1.00  0.00     0.107 A
ATOM     14  H3  UNL     1     -31.244   8.209 -49.585  1.00  0.00     0.165 HD
BRANCH   8  15
HETATM   15  O1  UNL     1     -31.458  10.311 -54.387  1.00  0.00    -0.353 OA
HETATM   16  C1  UNL     1     -30.330  11.010 -54.891  1.00  0.00     0.210 C
ENDBRANCH   8  15
ENDBRANCH   2   3
ENDBRANCH   1   2
BRANCH   1  17
HETATM   17  C8  UNL     1     -36.591  13.279 -48.745  1.00  0.00     0.055 C
BRANCH  17  18
HETATM   18  C9  UNL     1     -37.863  13.318 -49.559  1.00  0.00     0.059 C
BRANCH  18  19
HETATM   19  N1  UNL     1     -37.965  14.411 -50.432  1.00  0.00    -0.393 N
HETATM   20  C10 UNL     1     -38.130  14.162 -51.807  1.00  0.00     0.122 C
HETATM   21  C11 UNL     1     -36.726  13.975 -52.423  1.00  0.00     0.029 C
HETATM   22  C12 UNL     1     -35.811  15.010 -51.903  1.00  0.00     0.027 C
HETATM   23  C19 UNL     1     -36.598  16.179 -51.265  1.00  0.00     0.029 C
HETATM   24  C20 UNL     1     -37.358  15.637 -50.077  1.00  0.00     0.122 C
BRANCH  22  25
HETATM   25  C13 UNL     1     -34.701  15.514 -52.734  1.00  0.00     0.062 C
BRANCH  25  26
HETATM   26  N2  UNL     1     -33.540  16.027 -52.198  1.00  0.00    -0.393 N
HETATM   27  C14 UNL     1     -32.905  15.616 -51.034  1.00  0.00     0.122 C
HETATM   28  C15 UNL     1     -31.525  15.049 -51.422  1.00  0.00     0.020 C
HETATM   29  C16 UNL     1     -30.665  16.238 -51.762  1.00  0.00     0.003 C
HETATM   30  C17 UNL     1     -31.466  17.319 -52.402  1.00  0.00     0.020 C
HETATM   31  C18 UNL     1     -32.723  16.831 -53.085  1.00  0.00     0.122 C
ENDBRANCH  25  26
ENDBRANCH  22  25
ENDBRANCH  18  19
ENDBRANCH  17  18
ENDBRANCH   1  17
TORSDOF 8
ENDMDL