MODEL 2
REMARK VINA RESULT: -8.686456152      2.914      7.397
REMARK  7 active torsions:
REMARK  status: ('A' for Active; 'I' for Inactive)
REMARK       I    between atoms: C1_2  and  N1_3
REMARK       I    between atoms: C1_2  and  N3_14
REMARK    1  A    between atoms: N1_3  and  C2_5
REMARK    2  A    between atoms: N3_14  and  C7_15
REMARK    3  A    between atoms: N3_14  and  C18_28
REMARK    4  A    between atoms: C7_15  and  C8_16
REMARK    5  A    between atoms: C8_16  and  N4_17
REMARK    6  A    between atoms: C11_20  and  N5_21
REMARK    7  A    between atoms: C18_28  and  C19_29
ROOT
HETATM    1  O1  UNL     1     -33.060  11.203 -50.552  1.00  0.00    -0.246 OA
HETATM    2  C1  UNL     1     -33.862  11.753 -51.385  1.00  0.00     0.327 C
HETATM    3  N1  UNL     1     -33.570  11.635 -52.725  1.00  0.00    -0.305 N
ATOM      4  H1  UNL     1     -34.244  12.095 -53.338  1.00  0.00     0.171 HD
HETATM    5  N3  UNL     1     -34.984  12.445 -50.786  1.00  0.00    -0.297 N
ENDROOT
BRANCH   5   6
HETATM    6  C7  UNL     1     -34.835  12.467 -49.316  1.00  0.00     0.164 C
BRANCH   6   7
HETATM    7  C8  UNL     1     -35.964  11.966 -48.532  1.00  0.00     0.292 C
BRANCH   7   8
HETATM    8  N4  UNL     1     -35.621  10.649 -47.993  1.00  0.00     0.090 N
HETATM    9  C9  UNL     1     -36.215   9.614 -48.828  1.00  0.00     0.274 C
HETATM   10  C10 UNL     1     -35.089   8.764 -49.438  1.00  0.00     0.066 C
HETATM   11  C11 UNL     1     -34.492   8.029 -48.252  1.00  0.00     0.226 C
HETATM   12  C16 UNL     1     -33.992   9.018 -47.275  1.00  0.00     0.066 C
HETATM   13  C17 UNL     1     -34.247  10.458 -47.701  1.00  0.00     0.274 C
BRANCH  11  14
HETATM   14  N5  UNL     1     -33.615   6.989 -48.634  1.00  0.00     0.093 N
HETATM   15  C12 UNL     1     -33.024   7.035 -49.914  1.00  0.00     0.273 C
HETATM   16  C13 UNL     1     -31.986   5.906 -49.826  1.00  0.00     0.032 C
HETATM   17  C14 UNL     1     -31.447   6.107 -48.410  1.00  0.00     0.032 C
HETATM   18  C15 UNL     1     -32.639   6.628 -47.655  1.00  0.00     0.273 C
ENDBRANCH  11  14
ENDBRANCH   7   8
ENDBRANCH   6   7
ENDBRANCH   5   6
BRANCH   5  19
HETATM   19  C18 UNL     1     -36.077  13.047 -51.418  1.00  0.00     0.056 C
HETATM   20  C25 UNL     1     -37.305  12.517 -51.952  1.00  0.00    -0.019 C
HETATM   21  C26 UNL     1     -38.268  11.848 -50.944  1.00  0.00     0.042 C
HETATM   22  C34 UNL     1     -37.552  11.782 -53.163  1.00  0.00    -0.021 A
HETATM   23  C27 UNL     1     -39.678  12.256 -51.317  1.00  0.00     0.009 C
HETATM   24  C28 UNL     1     -39.818  12.682 -52.756  1.00  0.00     0.040 C
HETATM   25  C29 UNL     1     -38.871  11.873 -53.624  1.00  0.00    -0.047 A
HETATM   26  C30 UNL     1     -39.334  11.254 -54.754  1.00  0.00     0.008 A
HETATM   27  C31 UNL     1     -38.439  10.501 -55.469  1.00  0.00     0.001 A
HETATM   28  C32 UNL     1     -37.133  10.379 -55.057  1.00  0.00     0.001 A
HETATM   29  C33 UNL     1     -36.707  11.023 -53.904  1.00  0.00     0.012 A
BRANCH  19  30
HETATM   30  C19 UNL     1     -35.778  14.423 -51.940  1.00  0.00    -0.009 A
HETATM   31  C20 UNL     1     -34.839  14.651 -52.947  1.00  0.00     0.014 A
HETATM   32  C21 UNL     1     -34.546  15.886 -53.424  1.00  0.00     0.001 A
HETATM   33  C22 UNL     1     -35.184  16.981 -52.915  1.00  0.00     0.000 A
HETATM   34  C23 UNL     1     -36.129  16.813 -51.910  1.00  0.00     0.001 A
HETATM   35  C24 UNL     1     -36.399  15.517 -51.447  1.00  0.00     0.014 A
ENDBRANCH  19  30
ENDBRANCH   5  19
BRANCH   3  36
HETATM   36  C2  UNL     1     -32.515  10.998 -53.406  1.00  0.00     0.081 A
HETATM   37  C3  UNL     1     -32.228   9.670 -53.378  1.00  0.00     0.050 A
HETATM   38  C4  UNL     1     -31.149   9.185 -54.108  1.00  0.00     0.093 A
HETATM   39  N2  UNL     1     -30.393  10.013 -54.836  1.00  0.00    -0.340 N
HETATM   40  C5  UNL     1     -30.610  11.326 -54.912  1.00  0.00     0.229 A
ATOM     41  H2  UNL     1     -29.610   9.621 -55.359  1.00  0.00     0.167 HD
HETATM   42  F1  UNL     1     -29.827  12.154 -55.658  1.00  0.00    -0.183 F
HETATM   43  C6  UNL     1     -31.677  11.814 -54.192  1.00  0.00     0.199 A
HETATM   44  F2  UNL     1     -31.889  13.161 -54.283  1.00  0.00    -0.199 F
ENDBRANCH   3  36
TORSDOF 7
ENDMDL