MODEL 2
REMARK VINA RESULT: -8.369301977      3.851      6.537
REMARK  8 active torsions:
REMARK  status: ('A' for Active; 'I' for Inactive)
REMARK    1  A    between atoms: C2_2  and  C3_3
REMARK    2  A    between atoms: C3_3  and  C4_4
REMARK    3  A    between atoms: C4_4  and  N1_5
REMARK    4  A    between atoms: N2_8  and  C7_9
REMARK    5  A    between atoms: C7_9  and  C8_10
REMARK    6  A    between atoms: C8_10  and  C9_11
REMARK    7  A    between atoms: N3_12  and  C10_14
REMARK    8  A    between atoms: C19_26  and  C20_27
ROOT
HETATM    1  C10 UNL     1     -34.872  12.474 -52.097  1.00  0.00     0.058 A
HETATM    2  C11 UNL     1     -34.127  13.647 -52.265  1.00  0.00     0.018 A
HETATM    3  C12 UNL     1     -34.557  14.698 -53.060  1.00  0.00     0.017 A
HETATM    4  C13 UNL     1     -33.821  15.859 -53.209  1.00  0.00     0.020 A
HETATM    5  C14 UNL     1     -32.634  15.973 -52.549  1.00  0.00     0.013 A
HETATM    6 BR1  UNL     1     -31.539  17.520 -52.676  1.00  0.00    -0.051 Br
HETATM    7  C15 UNL     1     -32.191  14.940 -51.755  1.00  0.00     0.049 A
HETATM    8  C16 UNL     1     -32.928  13.760 -51.598  1.00  0.00     0.046 A
HETATM    9  N4  UNL     1     -32.455  12.787 -50.797  1.00  0.00    -0.355 N
ATOM     10  H4  UNL     1     -31.561  12.913 -50.323  1.00  0.00     0.166 HD
HETATM   11  C17 UNL     1     -33.154  11.650 -50.617  1.00  0.00     0.047 A
HETATM   12  C18 UNL     1     -32.627  10.668 -49.763  1.00  0.00     0.038 A
HETATM   13  C19 UNL     1     -33.286   9.487 -49.521  1.00  0.00    -0.051 A
HETATM   14  C23 UNL     1     -34.490   9.322 -50.160  1.00  0.00     0.027 A
HETATM   15  C24 UNL     1     -35.014  10.289 -51.004  1.00  0.00     0.026 A
HETATM   16 BR2  UNL     1     -36.694   9.923 -51.779  1.00  0.00    -0.050 Br
HETATM   17  C25 UNL     1     -34.355  11.471 -51.249  1.00  0.00     0.036 A
ENDROOT
BRANCH   1  18
HETATM   18  N3  UNL     1     -35.932  12.293 -52.698  1.00  0.00    -0.368 N
HETATM   19  C9  UNL     1     -37.015  12.721 -53.398  1.00  0.00     0.063 C
ATOM     20  H3  UNL     1     -36.070  11.284 -52.640  1.00  0.00     0.165 HD
BRANCH  19  21
HETATM   21  C8  UNL     1     -38.275  13.109 -52.619  1.00  0.00     0.074 C
BRANCH  21  22
HETATM   22  C7  UNL     1     -37.947  14.404 -51.923  1.00  0.00     0.277 C
BRANCH  22  23
HETATM   23  N2  UNL     1     -38.492  14.463 -50.593  1.00  0.00     0.092 N
HETATM   24  C6  UNL     1     -37.464  14.708 -49.623  1.00  0.00     0.302 C
HETATM   25  C5  UNL     1     -36.622  13.501 -49.372  1.00  0.00     0.302 C
HETATM   26  N1  UNL     1     -37.404  12.338 -49.074  1.00  0.00     0.091 N
HETATM   27  C27 UNL     1     -38.799  12.706 -48.883  1.00  0.00     0.302 C
HETATM   28  C26 UNL     1     -39.266  13.313 -50.212  1.00  0.00     0.302 C
BRANCH  26  29
HETATM   29  C4  UNL     1     -36.904  11.582 -47.944  1.00  0.00     0.272 C
BRANCH  29  30
HETATM   30  C3  UNL     1     -35.488  11.977 -47.588  1.00  0.00     0.030 C
BRANCH  30  31
HETATM   31  C2  UNL     1     -35.407  12.340 -46.109  1.00  0.00    -0.003 C
HETATM   32  C1  UNL     1     -36.702  12.946 -45.638  1.00  0.00     0.005 C
ENDBRANCH  30  31
ENDBRANCH  29  30
ENDBRANCH  26  29
ENDBRANCH  22  23
ENDBRANCH  21  22
ENDBRANCH  19  21
ENDBRANCH   1  18
BRANCH  13  33
HETATM   33  C20 UNL     1     -32.715   8.440 -48.622  1.00  0.00     0.010 C
HETATM   34  C21 UNL     1     -31.216   8.734 -48.430  1.00  0.00     0.015 C
HETATM   35  C22 UNL     1     -33.323   8.491 -47.247  1.00  0.00     0.015 C
ENDBRANCH  13  33
TORSDOF 8
ENDMDL