MODEL 2
REMARK VINA RESULT: -7.904379280      1.777      2.614
REMARK  8 active torsions:
REMARK  status: ('A' for Active; 'I' for Inactive)
REMARK    1  A    between atoms: C1_2  and  C2_3
REMARK       I    between atoms: C1_2  and  N3_23
REMARK    2  A    between atoms: C2_3  and  C3_4
REMARK    3  A    between atoms: C3_4  and  S1_5
REMARK    4  A    between atoms: S1_5  and  C4_6
REMARK    5  A    between atoms: C4_6  and  C5_7
REMARK    6  A    between atoms: C5_7  and  C6_8
REMARK    7  A    between atoms: C6_8  and  S2_9
REMARK    8  A    between atoms: S2_9  and  C7_10
ROOT
HETATM    1  C4  UNL     1     -37.065  12.852 -47.386  1.00  0.00     0.074 C
ENDROOT
BRANCH   1   2
HETATM    2  S1  UNL     1     -38.025  13.346 -48.831  1.00  0.00    -0.169 SA
BRANCH   2   3
HETATM    3  C3  UNL     1     -37.295  14.788 -49.623  1.00  0.00     0.083 C
BRANCH   3   4
HETATM    4  C2  UNL     1     -37.059  14.432 -51.098  1.00  0.00     0.113 C
BRANCH   4   5
HETATM    5  C1  UNL     1     -36.375  15.561 -51.776  1.00  0.00     0.220 C
HETATM    6  O1  UNL     1     -36.719  16.756 -51.614  1.00  0.00    -0.273 OA
HETATM    7  N3  UNL     1     -35.290  15.285 -52.640  1.00  0.00    -0.348 N
HETATM    8  C14 UNL     1     -34.843  13.950 -52.875  1.00  0.00     0.130 C
HETATM    9  C22 UNL     1     -34.573  16.361 -53.334  1.00  0.00     0.164 C
HETATM   10  C15 UNL     1     -33.356  13.820 -52.920  1.00  0.00     0.059 C
HETATM   11  C16 UNL     1     -32.610  15.068 -52.622  1.00  0.00    -0.049 A
HETATM   12  C17 UNL     1     -31.302  15.000 -52.134  1.00  0.00     0.008 A
HETATM   13  C21 UNL     1     -33.181  16.301 -52.822  1.00  0.00    -0.034 A
HETATM   14  C18 UNL     1     -30.600  16.142 -51.860  1.00  0.00     0.001 A
HETATM   15  C19 UNL     1     -31.163  17.392 -52.057  1.00  0.00     0.001 A
HETATM   16  C20 UNL     1     -32.458  17.430 -52.540  1.00  0.00     0.009 A
ENDBRANCH   4   5
ENDBRANCH   3   4
ENDBRANCH   2   3
ENDBRANCH   1   2
BRANCH   1  17
HETATM   17  C5  UNL     1     -37.384  11.384 -47.125  1.00  0.00     0.021 C
BRANCH  17  18
HETATM   18  C6  UNL     1     -36.034  10.705 -46.959  1.00  0.00     0.083 C
BRANCH  18  19
HETATM   19  S2  UNL     1     -34.679  11.852 -47.325  1.00  0.00    -0.094 SA
BRANCH  19  20
HETATM   20  C7  UNL     1     -33.683  11.163 -48.665  1.00  0.00     0.145 A
HETATM   21  N1  UNL     1     -33.524  11.622 -49.915  1.00  0.00    -0.335 N
HETATM   22  C8  UNL     1     -32.697  10.829 -50.622  1.00  0.00     0.063 A
ATOM     23  H1  UNL     1     -33.970  12.461 -50.283  1.00  0.00     0.168 HD
HETATM   24  C9  UNL     1     -32.187  10.803 -51.898  1.00  0.00     0.051 A
HETATM   25  C13 UNL     1     -32.304   9.797 -49.764  1.00  0.00     0.078 A
HETATM   26  C10 UNL     1     -31.326   9.822 -52.349  1.00  0.00     0.014 A
HETATM   27 BR1  UNL     1     -30.663   9.869 -54.146  1.00  0.00    -0.051 Br
HETATM   28  C11 UNL     1     -30.949   8.813 -51.490  1.00  0.00     0.040 A
HETATM   29  C12 UNL     1     -31.444   8.814 -50.208  1.00  0.00     0.041 A
HETATM   30 BR2  UNL     1     -30.938   7.438 -49.017  1.00  0.00    -0.049 Br
HETATM   31  N2  UNL     1     -32.927  10.044 -48.593  1.00  0.00    -0.334 N
ATOM     32  H2  UNL     1     -32.839   9.462 -47.760  1.00  0.00     0.168 HD
ENDBRANCH  19  20
ENDBRANCH  18  19
ENDBRANCH  17  18
ENDBRANCH   1  17
TORSDOF 8
ENDMDL