MODEL 4
REMARK VINA RESULT: -7.533690677      5.353      8.998
REMARK  8 active torsions:
REMARK  status: ('A' for Active; 'I' for Inactive)
REMARK    1  A    between atoms: N1_4  and  C4_5
REMARK    2  A    between atoms: C7_9  and  C8_10
REMARK    3  A    between atoms: C10_12  and  C11_13
REMARK    4  A    between atoms: C11_13  and  C12_14
REMARK       I    between atoms: N2_22  and  C17_23
REMARK    5  A    between atoms: C17_23  and  C18_25
REMARK    6  A    between atoms: N3_28  and  C21_29
REMARK    7  A    between atoms: C21_29  and  C22_30
REMARK    8  A    between atoms: C22_30  and  C23_31
ROOT
HETATM    1  C1  UNL     1     -34.158   7.067 -51.590  1.00  0.00     0.034 C
HETATM    2  C2  UNL     1     -34.026   8.424 -50.941  1.00  0.00     0.101 C
HETATM    3  C3  UNL     1     -33.240   8.308 -49.679  1.00  0.00     0.148 C
HETATM    4  N1  UNL     1     -33.971   8.216 -48.460  1.00  0.00    -0.376 N
HETATM    5  C15 UNL     1     -35.378   8.502 -48.388  1.00  0.00     0.143 C
HETATM    6  C16 UNL     1     -36.120   8.398 -49.687  1.00  0.00     0.146 C
HETATM    7  N2  UNL     1     -35.314   9.016 -50.771  1.00  0.00    -0.344 N
HETATM    8  C17 UNL     1     -35.851  10.095 -51.500  1.00  0.00     0.224 C
HETATM    9  O3  UNL     1     -37.020  10.512 -51.192  1.00  0.00    -0.273 OA
ENDROOT
BRANCH   8  10
HETATM   10  C18 UNL     1     -35.139  10.769 -52.599  1.00  0.00     0.084 C
HETATM   11  C19 UNL     1     -34.013  11.651 -52.072  1.00  0.00     0.034 C
HETATM   12  C20 UNL     1     -33.613  12.711 -53.082  1.00  0.00     0.128 C
HETATM   13  N3  UNL     1     -34.705  13.633 -53.199  1.00  0.00    -0.374 N
HETATM   14  C29 UNL     1     -35.985  13.066 -53.065  1.00  0.00     0.064 C
HETATM   15  C30 UNL     1     -36.073  11.602 -53.454  1.00  0.00     0.059 C
BRANCH  13  16
HETATM   16  C21 UNL     1     -34.522  14.792 -53.950  1.00  0.00     0.063 C
BRANCH  16  17
HETATM   17  C22 UNL     1     -34.317  16.083 -53.231  1.00  0.00     0.049 C
BRANCH  17  18
HETATM   18  C23 UNL     1     -32.895  16.110 -52.710  1.00  0.00    -0.010 C
HETATM   19  C24 UNL     1     -32.167  17.385 -52.980  1.00  0.00     0.005 C
HETATM   20  C25 UNL     1     -30.908  17.401 -52.136  1.00  0.00     0.000 C
HETATM   21  C26 UNL     1     -30.501  15.968 -51.772  1.00  0.00     0.000 C
HETATM   22  C27 UNL     1     -31.510  15.342 -50.829  1.00  0.00     0.000 C
HETATM   23  C28 UNL     1     -32.901  15.840 -51.216  1.00  0.00     0.005 C
ENDBRANCH  17  18
ENDBRANCH  16  17
ENDBRANCH  13  16
ENDBRANCH   8  10
BRANCH   4  24
HETATM   24  C4  UNL     1     -33.287   7.832 -47.257  1.00  0.00     0.053 A
HETATM   25  C5  UNL     1     -33.992   7.227 -46.222  1.00  0.00     0.055 A
HETATM   26  C6  UNL     1     -33.380   6.854 -45.055  1.00  0.00     0.043 A
HETATM   27 CL1  UNL     1     -34.302   6.106 -43.773  1.00  0.00    -0.084 Cl
HETATM   28  C7  UNL     1     -32.017   7.061 -44.845  1.00  0.00    -0.030 A
HETATM   29  C13 UNL     1     -31.348   7.657 -45.879  1.00  0.00     0.035 A
HETATM   30  C14 UNL     1     -31.953   8.044 -47.073  1.00  0.00     0.061 A
HETATM   31 CL2  UNL     1     -30.982   8.789 -48.342  1.00  0.00    -0.082 Cl
BRANCH  28  32
HETATM   32  C8  UNL     1     -31.340   6.676 -43.613  1.00  0.00     0.025 A
HETATM   33  C9  UNL     1     -31.530   7.574 -42.417  1.00  0.00     0.015 A
HETATM   34  C10 UNL     1     -30.142   7.346 -43.069  1.00  0.00     0.004 A
BRANCH  34  35
HETATM   35  C11 UNL     1     -29.209   6.591 -42.151  1.00  0.00     0.118 C
BRANCH  35  36
HETATM   36  C12 UNL     1     -28.252   7.461 -41.430  1.00  0.00     0.172 C
HETATM   37  O1  UNL     1     -27.232   6.966 -40.888  1.00  0.00    -0.648 OA
HETATM   38  O2  UNL     1     -28.441   8.843 -41.325  1.00  0.00    -0.648 OA
ENDBRANCH  35  36
ENDBRANCH  34  35
ENDBRANCH  28  32
ENDBRANCH   4  24
TORSDOF 8
ENDMDL