MODEL 3
REMARK VINA RESULT: -7.405525637      3.720      7.242
REMARK  9 active torsions:
REMARK  status: ('A' for Active; 'I' for Inactive)
REMARK    1  A    between atoms: C2_2  and  C3_3
REMARK    2  A    between atoms: C3_3  and  C4_4
REMARK    3  A    between atoms: C9_9  and  O1_10
REMARK    4  A    between atoms: C12_16  and  C13_17
REMARK    5  A    between atoms: C13_17  and  C14_18
REMARK    6  A    between atoms: C14_18  and  C15_19
REMARK    7  A    between atoms: C15_19  and  N1_20
REMARK    8  A    between atoms: N2_29  and  C23_30
REMARK    9  A    between atoms: C23_30  and  C24_31
ROOT
HETATM    1  C4  UNL     1     -32.071  13.970 -51.966  1.00  0.00     0.003 A
HETATM    2  C5  UNL     1     -32.147  12.640 -51.488  1.00  0.00     0.015 A
HETATM    3  C6  UNL     1     -32.851  11.378 -51.778  1.00  0.00     0.013 C
HETATM    4  C7  UNL     1     -32.878  10.338 -50.678  1.00  0.00     0.058 C
HETATM    5  C8  UNL     1     -33.880  10.545 -49.645  1.00  0.00     0.011 A
HETATM    6  C9  UNL     1     -34.006   9.577 -48.668  1.00  0.00     0.093 A
HETATM    7  C10 UNL     1     -34.930   9.687 -47.647  1.00  0.00     0.067 A
HETATM    8 BR1  UNL     1     -35.094   8.336 -46.298  1.00  0.00    -0.046 Br
HETATM    9  C11 UNL     1     -35.778  10.770 -47.550  1.00  0.00     0.063 A
HETATM   10 CL1  UNL     1     -36.947  10.888 -46.246  1.00  0.00    -0.082 Cl
HETATM   11  C12 UNL     1     -35.663  11.744 -48.521  1.00  0.00    -0.001 A
HETATM   12  C18 UNL     1     -34.735  11.620 -49.533  1.00  0.00     0.086 A
HETATM   13  O2  UNL     1     -34.572  12.577 -50.547  1.00  0.00    -0.343 OA
HETATM   14  C19 UNL     1     -34.084  12.241 -51.815  1.00  0.00     0.149 C
HETATM   15  C20 UNL     1     -33.212  13.271 -52.410  1.00  0.00     0.000 A
HETATM   16  C21 UNL     1     -33.170  12.992 -53.836  1.00  0.00     0.057 C
HETATM   17  C22 UNL     1     -31.882  12.541 -54.437  1.00  0.00     0.064 C
HETATM   18  N2  UNL     1     -31.532  11.306 -53.865  1.00  0.00    -0.373 N
HETATM   19  C29 UNL     1     -32.514  10.686 -53.050  1.00  0.00     0.139 C
ENDROOT
BRANCH  11  20
HETATM   20  C13 UNL     1     -36.543  12.913 -48.463  1.00  0.00     0.045 C
BRANCH  20  21
HETATM   21  C14 UNL     1     -37.823  12.794 -49.205  1.00  0.00     0.035 C
BRANCH  21  22
HETATM   22  C15 UNL     1     -38.295  14.053 -49.854  1.00  0.00     0.271 C
BRANCH  22  23
HETATM   23  N1  UNL     1     -37.095  14.745 -50.352  1.00  0.00     0.080 N
HETATM   24  C16 UNL     1     -37.116  14.557 -51.810  1.00  0.00     0.309 C
HETATM   25  C17 UNL     1     -37.234  16.185 -50.136  1.00  0.00     0.309 C
ENDBRANCH  22  23
ENDBRANCH  21  22
ENDBRANCH  20  21
ENDBRANCH  11  20
BRANCH   6  26
HETATM   26  O1  UNL     1     -33.201   8.455 -48.679  1.00  0.00    -0.359 OA
ATOM     27  H1  UNL     1     -33.495   7.651 -49.090  1.00  0.00     0.217 HD
ENDBRANCH   6  26
BRANCH   1  28
HETATM   28  C3  UNL     1     -32.322  15.260 -51.200  1.00  0.00     0.005 C
BRANCH  28  29
HETATM   29  C2  UNL     1     -31.480  16.391 -51.717  1.00  0.00    -0.004 C
HETATM   30  C1  UNL     1     -32.063  17.042 -52.933  1.00  0.00     0.005 C
ENDBRANCH  28  29
ENDBRANCH   1  28
BRANCH  18  31
HETATM   31  C23 UNL     1     -30.562  10.517 -54.489  1.00  0.00     0.067 C
BRANCH  31  32
HETATM   32  C24 UNL     1     -30.670   9.031 -54.288  1.00  0.00     0.024 C
HETATM   33  C25 UNL     1     -29.818   8.492 -53.185  1.00  0.00     0.010 C
HETATM   34  C26 UNL     1     -29.794   6.993 -53.504  1.00  0.00     0.001 C
HETATM   35  C27 UNL     1     -29.505   7.023 -54.990  1.00  0.00     0.001 C
HETATM   36  C28 UNL     1     -30.094   8.313 -55.512  1.00  0.00     0.010 C
ENDBRANCH  31  32
ENDBRANCH  18  31
TORSDOF 9
ENDMDL