MODEL 2
REMARK VINA RESULT: -8.435481490      4.413      6.553
REMARK  9 active torsions:
REMARK  status: ('A' for Active; 'I' for Inactive)
REMARK    1  A    between atoms: C2_2  and  C4_4
REMARK    2  A    between atoms: C4_4  and  C5_5
REMARK    3  A    between atoms: C5_5  and  C6_6
REMARK       I    between atoms: C6_6  and  N1_8
REMARK    4  A    between atoms: C9_11  and  C10_12
REMARK    5  A    between atoms: C10_12  and  N2_13
REMARK    6  A    between atoms: C13_16  and  N3_17
REMARK       I    between atoms: N3_17  and  C14_19
REMARK    7  A    between atoms: C14_19  and  C15_21
REMARK    8  A    between atoms: C15_21  and  C17_23
REMARK    9  A    between atoms: C18_24  and  C19_25
ROOT
HETATM    1  N2  UNL     1     -37.700  11.523 -52.679  1.00  0.00    -0.393 N
HETATM    2  C11 UNL     1     -37.420  10.179 -53.135  1.00  0.00     0.123 C
HETATM    3  C12 UNL     1     -36.132   9.730 -52.412  1.00  0.00     0.045 C
HETATM    4  C13 UNL     1     -35.053  10.759 -52.594  1.00  0.00     0.087 C
HETATM    5  C26 UNL     1     -35.467  11.816 -53.589  1.00  0.00     0.045 C
HETATM    6  C27 UNL     1     -36.745  12.477 -53.031  1.00  0.00     0.123 C
ENDROOT
BRANCH   1   7
HETATM    7  C10 UNL     1     -38.596  11.650 -51.646  1.00  0.00     0.062 C
BRANCH   7   8
HETATM    8  C9  UNL     1     -38.054  12.267 -50.364  1.00  0.00     0.027 C
HETATM    9  C8  UNL     1     -38.032  13.744 -50.590  1.00  0.00     0.030 C
HETATM   10  C7  UNL     1     -36.892  14.495 -49.951  1.00  0.00     0.126 C
HETATM   11  N1  UNL     1     -35.686  13.789 -50.166  1.00  0.00    -0.351 N
HETATM   12  C6  UNL     1     -34.537  14.077 -50.908  1.00  0.00     0.228 C
HETATM   13  C29 UNL     1     -35.724  12.523 -49.417  1.00  0.00     0.126 C
HETATM   14  O1  UNL     1     -33.633  13.183 -50.909  1.00  0.00    -0.273 OA
HETATM   15  C28 UNL     1     -36.798  11.616 -49.973  1.00  0.00     0.030 C
BRANCH  12  16
HETATM   16  C5  UNL     1     -34.165  15.243 -51.704  1.00  0.00     0.041 C
HETATM   17  C30 UNL     1     -35.281  16.198 -52.002  1.00  0.00     0.019 C
HETATM   18  C31 UNL     1     -34.855  16.887 -53.266  1.00  0.00     0.001 C
HETATM   19  C32 UNL     1     -34.295  15.771 -54.089  1.00  0.00     0.001 C
HETATM   20  C33 UNL     1     -33.821  14.768 -53.103  1.00  0.00     0.019 C
BRANCH  16  21
HETATM   21  C4  UNL     1     -33.031  16.063 -51.202  1.00  0.00     0.023 C
BRANCH  21  22
HETATM   22  C2  UNL     1     -31.723  15.984 -51.887  1.00  0.00    -0.021 C
HETATM   23  C1  UNL     1     -31.371  17.454 -52.222  1.00  0.00     0.009 C
HETATM   24  C3  UNL     1     -30.569  15.483 -51.084  1.00  0.00     0.009 C
ENDBRANCH  21  22
ENDBRANCH  16  21
ENDBRANCH  12  16
ENDBRANCH   7   8
ENDBRANCH   1   7
BRANCH   4  25
HETATM   25  N3  UNL     1     -33.720  10.303 -52.734  1.00  0.00    -0.352 N
HETATM   26  C14 UNL     1     -32.794   9.900 -51.747  1.00  0.00     0.248 C
HETATM   27  O2  UNL     1     -33.095   9.884 -50.499  1.00  0.00    -0.268 OA
ATOM     28  H3  UNL     1     -33.376  10.259 -53.693  1.00  0.00     0.163 HD
BRANCH  26  29
HETATM   29  C15 UNL     1     -31.429   9.482 -52.063  1.00  0.00     0.019 C
HETATM   30  C16 UNL     1     -30.746   8.670 -51.002  1.00  0.00     0.055 C
BRANCH  29  31
HETATM   31  C17 UNL     1     -31.014   9.263 -53.444  1.00  0.00     0.024 A
HETATM   32  C18 UNL     1     -30.700  10.138 -54.454  1.00  0.00     0.129 A
HETATM   33  O3  UNL     1     -30.231   9.438 -55.496  1.00  0.00    -0.308 OA
HETATM   34  C20 UNL     1     -30.223   8.188 -55.232  1.00  0.00     0.087 A
HETATM   35  C21 UNL     1     -29.803   7.140 -56.064  1.00  0.00     0.038 A
HETATM   36  C25 UNL     1     -30.699   7.985 -53.966  1.00  0.00     0.011 A
HETATM   37  C22 UNL     1     -29.877   5.871 -55.570  1.00  0.00     0.003 A
HETATM   38  C23 UNL     1     -30.346   5.621 -54.305  1.00  0.00     0.001 A
HETATM   39  C24 UNL     1     -30.757   6.694 -53.506  1.00  0.00     0.015 A
BRANCH  32  40
HETATM   40  C19 UNL     1     -30.811  11.595 -54.534  1.00  0.00     0.411 C
HETATM   41  F1  UNL     1     -30.104  11.985 -55.698  1.00  0.00    -0.207 F
HETATM   42  F2  UNL     1     -32.136  11.964 -54.853  1.00  0.00    -0.207 F
ENDBRANCH  32  40
ENDBRANCH  29  31
ENDBRANCH  26  29
ENDBRANCH   4  25
TORSDOF 9
ENDMDL