MODEL 5
REMARK VINA RESULT: -8.973594874      2.560      7.189
REMARK  8 active torsions:
REMARK  status: ('A' for Active; 'I' for Inactive)
REMARK    1  A    between atoms: C7_7  and  C8_8
REMARK    2  A    between atoms: C7_7  and  C30_37
REMARK       I    between atoms: C8_8  and  N1_10
REMARK    3  A    between atoms: C11_13  and  N2_15
REMARK    4  A    between atoms: C15_18  and  C16_19
REMARK    5  A    between atoms: C16_19  and  N3_20
REMARK    6  A    between atoms: N3_20  and  C17_22
REMARK    7  A    between atoms: C17_22  and  C18_23
REMARK    8  A    between atoms: C17_22  and  C24_31
ROOT
HETATM    1  C8  UNL     1     -34.272   8.037 -49.043  1.00  0.00     0.233 C
HETATM    2  O1  UNL     1     -35.276   7.332 -49.459  1.00  0.00    -0.272 OA
HETATM    3  N1  UNL     1     -33.386   8.429 -50.081  1.00  0.00    -0.351 N
HETATM    4  C9  UNL     1     -32.213   9.208 -49.909  1.00  0.00     0.128 C
HETATM    5  C10 UNL     1     -32.025  10.236 -51.012  1.00  0.00     0.050 C
HETATM    6  C11 UNL     1     -31.997   9.553 -52.366  1.00  0.00     0.031 C
HETATM    7  C12 UNL     1     -30.882   8.504 -52.391  1.00  0.00     0.039 C
HETATM    8  C28 UNL     1     -33.317   8.795 -52.551  1.00  0.00     0.050 C
HETATM    9  C29 UNL     1     -33.703   7.949 -51.421  1.00  0.00     0.128 C
ENDROOT
BRANCH   6  10
HETATM   10  N2  UNL     1     -31.857  10.461 -53.391  1.00  0.00    -0.384 N
HETATM   11  C13 UNL     1     -30.631  10.583 -54.070  1.00  0.00     0.060 C
HETATM   12  C14 UNL     1     -30.882  11.673 -55.099  1.00  0.00     0.056 C
HETATM   13  C15 UNL     1     -32.020  12.468 -54.488  1.00  0.00     0.046 C
HETATM   14  C27 UNL     1     -32.819  11.393 -53.740  1.00  0.00     0.133 C
BRANCH  13  15
HETATM   15  C16 UNL     1     -31.550  13.481 -53.507  1.00  0.00     0.062 C
BRANCH  15  16
HETATM   16  N3  UNL     1     -32.446  13.948 -52.557  1.00  0.00    -0.393 N
ATOM     17  H3  UNL     1     -32.709  13.309 -51.808  1.00  0.00     0.159 HD
BRANCH  16  18
HETATM   18  C17 UNL     1     -33.018  15.218 -52.542  1.00  0.00     0.118 C
BRANCH  18  19
HETATM   19  C18 UNL     1     -34.388  15.073 -51.924  1.00  0.00    -0.029 A
HETATM   20  C19 UNL     1     -34.744  13.926 -51.259  1.00  0.00     0.051 A
HETATM   21  C20 UNL     1     -36.025  13.808 -50.699  1.00  0.00     0.119 A
HETATM   22  F1  UNL     1     -36.378  12.681 -50.045  1.00  0.00    -0.206 F
HETATM   23  C21 UNL     1     -36.936  14.836 -50.810  1.00  0.00     0.084 A
HETATM   24  C22 UNL     1     -36.570  15.988 -51.483  1.00  0.00     0.119 A
HETATM   25  F2  UNL     1     -37.454  17.007 -51.598  1.00  0.00    -0.206 F
HETATM   26  C23 UNL     1     -35.282  16.088 -52.037  1.00  0.00     0.051 A
ENDBRANCH  18  19
BRANCH  18  27
HETATM   27  C24 UNL     1     -32.324  16.305 -51.779  1.00  0.00     0.013 A
HETATM   28  C25 UNL     1     -31.629  17.346 -52.643  1.00  0.00     0.007 A
HETATM   29  C26 UNL     1     -30.813  16.428 -51.821  1.00  0.00     0.007 A
ENDBRANCH  18  27
ENDBRANCH  16  18
ENDBRANCH  15  16
ENDBRANCH  13  15
ENDBRANCH   6  10
BRANCH   1  30
HETATM   30  C7  UNL     1     -34.198   8.317 -47.602  1.00  0.00     0.072 C
HETATM   31  C2  UNL     1     -34.620   7.143 -46.809  1.00  0.00     0.004 C
HETATM   32  C1  UNL     1     -34.163   7.186 -45.358  1.00  0.00     0.011 C
HETATM   33  C3  UNL     1     -33.892   5.935 -47.403  1.00  0.00     0.006 C
HETATM   34  C4  UNL     1     -32.416   6.095 -47.284  1.00  0.00     0.000 C
HETATM   35  C5  UNL     1     -31.902   7.445 -46.959  1.00  0.00     0.002 C
HETATM   36  C6  UNL     1     -32.706   8.625 -47.319  1.00  0.00     0.025 C
BRANCH  30  37
HETATM   37  C30 UNL     1     -34.909   9.580 -47.325  1.00  0.00    -0.025 A
HETATM   38  C31 UNL     1     -34.198  10.782 -47.438  1.00  0.00     0.011 A
HETATM   39  C32 UNL     1     -34.786  11.990 -47.180  1.00  0.00     0.018 A
HETATM   40  C33 UNL     1     -36.107  12.075 -46.796  1.00  0.00     0.087 A
HETATM   41  N4  UNL     1     -36.775  10.916 -46.692  1.00  0.00    -0.375 N
HETATM   42  C34 UNL     1     -36.217   9.710 -46.942  1.00  0.00     0.096 A
ATOM     43  H4  UNL     1     -37.755  10.947 -46.410  1.00  0.00     0.164 HD
ENDBRANCH  30  37
ENDBRANCH   1  30
TORSDOF 8
ENDMDL