MODEL 2
REMARK VINA RESULT: -8.624035589      2.956      5.395
REMARK  9 active torsions:
REMARK  status: ('A' for Active; 'I' for Inactive)
REMARK    1  A    between atoms: C3_3  and  C5_5
REMARK    2  A    between atoms: C5_5  and  C6_6
REMARK    3  A    between atoms: C6_6  and  C7_7
REMARK    4  A    between atoms: C7_7  and  N1_8
REMARK    5  A    between atoms: N2_11  and  C10_12
REMARK    6  A    between atoms: C10_12  and  C11_13
REMARK    7  A    between atoms: C11_13  and  C12_14
REMARK    8  A    between atoms: C12_14  and  N3_15
REMARK    9  A    between atoms: N3_15  and  C13_17
ROOT
HETATM    1  C13 UNL     1     -34.440  13.178 -51.092  1.00  0.00     0.068 C
HETATM    2  C14 UNL     1     -33.785  14.272 -51.690  1.00  0.00     0.001 C
HETATM    3  C15 UNL     1     -34.323  15.425 -52.230  1.00  0.00     0.089 C
HETATM    4  N4  UNL     1     -35.632  15.837 -52.175  1.00  0.00    -0.329 N
ATOM      5  H4  UNL     1     -35.806  16.832 -52.321  1.00  0.00     0.168 HD
HETATM    6  C16 UNL     1     -36.704  15.067 -51.948  1.00  0.00     0.202 C
HETATM    7  F1  UNL     1     -37.866  15.705 -51.785  1.00  0.00    -0.185 F
HETATM    8  C17 UNL     1     -36.754  13.679 -51.858  1.00  0.00     0.061 A
HETATM    9  C18 UNL     1     -35.728  12.815 -51.474  1.00  0.00     0.076 A
HETATM   10  N5  UNL     1     -36.172  11.554 -51.529  1.00  0.00    -0.352 N
ATOM     11  H5  UNL     1     -35.636  10.716 -51.303  1.00  0.00     0.166 HD
HETATM   12  C19 UNL     1     -37.463  11.590 -51.937  1.00  0.00     0.051 A
HETATM   13  C20 UNL     1     -38.380  10.566 -52.153  1.00  0.00    -0.013 A
HETATM   14  C21 UNL     1     -37.980   9.176 -51.929  1.00  0.00     0.052 C
HETATM   15  C22 UNL     1     -39.657  10.859 -52.574  1.00  0.00     0.042 A
HETATM   16 CL1  UNL     1     -40.835   9.599 -52.856  1.00  0.00    -0.084 Cl
HETATM   17  C23 UNL     1     -39.995  12.177 -52.772  1.00  0.00     0.025 A
HETATM   18  C24 UNL     1     -39.095  13.227 -52.562  1.00  0.00     0.016 A
HETATM   19  C25 UNL     1     -37.834  12.910 -52.144  1.00  0.00     0.008 A
HETATM   20  C26 UNL     1     -33.807  16.551 -52.992  1.00  0.00     0.176 C
HETATM   21  O1  UNL     1     -34.736  17.226 -53.553  1.00  0.00    -0.291 OA
HETATM   22  C27 UNL     1     -32.443  17.072 -53.247  1.00  0.00     0.085 C
HETATM   23  C28 UNL     1     -31.672  17.051 -51.944  1.00  0.00     0.008 C
HETATM   24  C29 UNL     1     -30.923  15.757 -51.743  1.00  0.00     0.001 C
HETATM   25  C30 UNL     1     -31.628  14.821 -50.794  1.00  0.00     0.005 C
HETATM   26  C31 UNL     1     -32.426  13.766 -51.530  1.00  0.00     0.043 C
ENDROOT
BRANCH   1  27
HETATM   27  N3  UNL     1     -33.843  12.530 -50.209  1.00  0.00    -0.367 N
ATOM     28  H3  UNL     1     -32.899  12.286 -50.510  1.00  0.00     0.165 HD
BRANCH  27  29
HETATM   29  C12 UNL     1     -34.098  12.047 -48.930  1.00  0.00     0.066 C
BRANCH  29  30
HETATM   30  C11 UNL     1     -34.423  10.562 -48.812  1.00  0.00     0.089 C
BRANCH  30  31
HETATM   31  C10 UNL     1     -33.297   9.905 -48.058  1.00  0.00     0.073 C
BRANCH  31  32
HETATM   32  N2  UNL     1     -32.662   8.823 -48.688  1.00  0.00    -0.351 N
HETATM   33  C9  UNL     1     -31.287   9.021 -48.890  1.00  0.00     0.087 C
HETATM   34  C8  UNL     1     -30.641   8.022 -49.817  1.00  0.00     0.162 C
HETATM   35  N1  UNL     1     -31.496   7.821 -50.935  1.00  0.00    -0.403 N
HETATM   36  C33 UNL     1     -32.816   7.391 -50.679  1.00  0.00     0.162 C
HETATM   37  C32 UNL     1     -33.363   7.821 -49.341  1.00  0.00     0.087 C
BRANCH  35  38
HETATM   38  C7  UNL     1     -30.875   7.266 -52.106  1.00  0.00     0.118 C
BRANCH  38  39
HETATM   39  C6  UNL     1     -30.031   8.209 -52.866  1.00  0.00     0.023 C
BRANCH  39  40
HETATM   40  C5  UNL     1     -30.718   8.720 -54.085  1.00  0.00     0.035 C
BRANCH  40  41
HETATM   41  C3  UNL     1     -31.141  10.112 -54.103  1.00  0.00    -0.088 C
HETATM   42  C2  UNL     1     -30.573  11.041 -54.839  1.00  0.00    -0.029 C
HETATM   43  C1  UNL     1     -31.066  12.451 -54.856  1.00  0.00     0.036 C
HETATM   44  C4  UNL     1     -32.335  10.519 -53.246  1.00  0.00     0.043 C
ENDBRANCH  40  41
ENDBRANCH  39  40
ENDBRANCH  38  39
ENDBRANCH  35  38
ENDBRANCH  31  32
ENDBRANCH  30  31
ENDBRANCH  29  30
ENDBRANCH  27  29
ENDBRANCH   1  27
TORSDOF 9
ENDMDL