MODEL 1
REMARK VINA RESULT: -6.512019178      0.000      0.000
REMARK  11 active torsions:
REMARK  status: ('A' for Active; 'I' for Inactive)
REMARK    1  A    between atoms: C10_13  and  C11_14
REMARK    2  A    between atoms: C11_14  and  C12_15
REMARK    3  A    between atoms: C12_15  and  C13_16
REMARK    4  A    between atoms: C13_16  and  N2_17
REMARK    5  A    between atoms: C15_24  and  C16_25
REMARK    6  A    between atoms: C16_25  and  S1_26
REMARK    7  A    between atoms: S1_26  and  C17_27
REMARK    8  A    between atoms: C17_27  and  C18_28
REMARK    9  A    between atoms: C18_28  and  C19_29
REMARK   10  A    between atoms: C19_29  and  N6_30
REMARK   11  A    between atoms: C21_35  and  C22_36
ROOT
HETATM    1  C1  UNL     1      21.917  51.988  44.901  1.00  0.00     0.051 C
HETATM    2  C2  UNL     1      21.454  50.607  44.615  1.00  0.00    -0.021 A
HETATM    3  C3  UNL     1      20.206  50.152  44.961  1.00  0.00     0.010 A
HETATM    4  C4  UNL     1      19.817  48.835  44.670  1.00  0.00     0.011 A
HETATM    5  C5  UNL     1      20.674  47.979  44.037  1.00  0.00    -0.021 A
HETATM    6  C6  UNL     1      21.927  48.448  43.689  1.00  0.00     0.083 A
HETATM    7  C7  UNL     1      22.318  49.734  43.972  1.00  0.00     0.149 A
HETATM    8  F1  UNL     1      23.575  50.090  43.650  1.00  0.00    -0.203 F
HETATM    9  N1  UNL     1      23.042  47.888  42.987  1.00  0.00    -0.317 N
HETATM   10  C8  UNL     1      23.788  48.841  42.273  1.00  0.00     0.159 C
HETATM   11  C9  UNL     1      23.466  46.491  42.915  1.00  0.00     0.246 C
HETATM   12  O1  UNL     1      24.747  46.541  42.954  1.00  0.00    -0.271 OA
HETATM   13  C10 UNL     1      22.924  45.146  42.820  1.00  0.00     0.170 C
HETATM   14  N5  UNL     1      21.700  45.030  43.543  1.00  0.00    -0.404 N
ATOM     15  H5  UNL     1      21.620  44.472  44.393  1.00  0.00     0.154 HD
HETATM   16  C15 UNL     1      20.606  45.741  42.998  1.00  0.00     0.095 C
HETATM   17  C21 UNL     1      19.945  46.688  43.964  1.00  0.00     0.047 C
ENDROOT
BRANCH  16  18
HETATM   18  C16 UNL     1      19.616  44.938  42.237  1.00  0.00     0.099 C
BRANCH  18  19
HETATM   19  S1  UNL     1      17.976  45.711  42.090  1.00  0.00    -0.167 SA
BRANCH  19  20
HETATM   20  C17 UNL     1      16.773  44.373  41.864  1.00  0.00     0.075 C
BRANCH  20  21
HETATM   21  C18 UNL     1      15.507  44.956  41.281  1.00  0.00     0.030 C
BRANCH  21  22
HETATM   22  C19 UNL     1      15.798  46.318  40.689  1.00  0.00     0.122 C
BRANCH  22  23
HETATM   23  N6  UNL     1      14.877  46.516  39.596  1.00  0.00    -0.367 N
HETATM   24  C20 UNL     1      14.006  47.460  39.566  1.00  0.00     0.196 C
HETATM   25  N7  UNL     1      13.871  48.403  40.621  1.00  0.00    -0.067 NA
HETATM   26  N8  UNL     1      13.140  47.585  38.458  1.00  0.00    -0.067 NA
ATOM     27  H6  UNL     1      14.920  45.874  38.805  1.00  0.00     0.161 HD
ENDBRANCH  22  23
ENDBRANCH  21  22
ENDBRANCH  20  21
ENDBRANCH  19  20
ENDBRANCH  18  19
ENDBRANCH  16  18
BRANCH  17  28
HETATM   28  C22 UNL     1      19.765  46.156  45.349  1.00  0.00    -0.012 C
HETATM   29  C23 UNL     1      19.363  44.701  45.410  1.00  0.00     0.010 C
HETATM   30  C24 UNL     1      20.961  46.318  46.247  1.00  0.00     0.010 C
ENDBRANCH  17  28
BRANCH  13  31
HETATM   31  C11 UNL     1      23.866  44.020  43.028  1.00  0.00     0.036 C
BRANCH  31  32
HETATM   32  C12 UNL     1      23.868  43.432  44.401  1.00  0.00     0.022 C
BRANCH  32  33
HETATM   33  C13 UNL     1      25.307  43.445  44.979  1.00  0.00     0.122 C
BRANCH  33  34
HETATM   34  N2  UNL     1      25.931  44.711  44.672  1.00  0.00    -0.367 N
HETATM   35  C14 UNL     1      27.206  44.878  44.737  1.00  0.00     0.196 C
HETATM   36  N3  UNL     1      27.746  46.151  44.421  1.00  0.00    -0.067 NA
HETATM   37  N4  UNL     1      28.106  43.845  45.110  1.00  0.00    -0.067 NA
ATOM     38  H2  UNL     1      25.344  45.498  44.396  1.00  0.00     0.161 HD
ENDBRANCH  33  34
ENDBRANCH  32  33
ENDBRANCH  31  32
ENDBRANCH  13  31
TORSDOF 11
ENDMDL