MODEL 1
REMARK VINA RESULT: -11.034170739      0.000      0.000
REMARK  12 active torsions:
REMARK  status: ('A' for Active; 'I' for Inactive)
REMARK    1  A    between atoms: C2_5  and  N2_6
REMARK    2  A    between atoms: N2_6  and  C3_8
REMARK    3  A    between atoms: C3_8  and  C4_9
REMARK    4  A    between atoms: C4_9  and  N3_10
REMARK    5  A    between atoms: C6_15  and  N5_16
REMARK    6  A    between atoms: N5_16  and  C7_18
REMARK    7  A    between atoms: C7_18  and  C8_19
REMARK    8  A    between atoms: C8_19  and  C9_20
REMARK    9  A    between atoms: C9_20  and  C10_21
REMARK   10  A    between atoms: N7_30  and  C17_32
REMARK   11  A    between atoms: C17_32  and  C18_33
REMARK   12  A    between atoms: C18_33  and  C19_34
ROOT
HETATM    1  N3  UNL     1      20.833  47.947  45.111  1.00  0.00    -0.224 N
ATOM      2  H3  UNL     1      21.440  47.919  45.929  1.00  0.00     0.177 HD
HETATM    3  C5  UNL     1      20.241  46.853  44.737  1.00  0.00     0.707 A
HETATM    4  N4  UNL     1      20.479  45.732  45.480  1.00  0.00    -0.022 N
ATOM      5  H4  UNL     1      21.102  45.786  46.286  1.00  0.00     0.203 HD
HETATM    6  C6  UNL     1      19.909  44.564  45.168  1.00  0.00     0.707 A
HETATM    7  N6  UNL     1      19.080  44.450  44.112  1.00  0.00    -0.022 N
ATOM      8  H6  UNL     1      18.646  43.557  43.877  1.00  0.00     0.203 HD
HETATM    9  C16 UNL     1      18.843  45.549  43.379  1.00  0.00     0.707 A
HETATM   10  N7  UNL     1      18.073  45.574  42.352  1.00  0.00    -0.225 N
ATOM     11  H7  UNL     1      17.975  46.471  41.877  1.00  0.00     0.177 HD
HETATM   12  N8  UNL     1      19.424  46.745  43.694  1.00  0.00    -0.022 N
ATOM     13  H8  UNL     1      19.229  47.566  43.121  1.00  0.00     0.203 HD
ENDROOT
BRANCH   1  14
HETATM   14  C4  UNL     1      20.671  49.182  44.427  1.00  0.00     0.158 C
BRANCH  14  15
HETATM   15  C3  UNL     1      22.069  49.672  44.047  1.00  0.00     0.158 C
BRANCH  15  16
HETATM   16  N2  UNL     1      22.598  50.552  45.059  1.00  0.00    -0.224 N
ATOM     17  H2  UNL     1      22.687  51.541  44.824  1.00  0.00     0.177 HD
BRANCH  16  18
HETATM   18  C2  UNL     1      22.966  50.184  46.238  1.00  0.00     0.680 A
HETATM   19  N1  UNL     1      23.487  48.993  46.546  1.00  0.00    -0.154 N
HETATM   20  C1  UNL     1      23.866  48.635  47.793  1.00  0.00     0.299 A
ATOM     21  H1  UNL     1      23.606  48.312  45.795  1.00  0.00     0.187 HD
HETATM   22  O1  UNL     1      24.350  47.491  48.002  1.00  0.00    -0.264 OA
HETATM   23  C26 UNL     1      23.721  49.529  48.831  1.00  0.00     0.200 A
HETATM   24  C25 UNL     1      23.184  50.758  48.521  1.00  0.00     0.154 A
HETATM   25  F1  UNL     1      24.085  49.225  50.107  1.00  0.00    -0.199 F
HETATM   26  N9  UNL     1      22.822  51.069  47.271  1.00  0.00    -0.199 N
ATOM     27  H9  UNL     1      22.429  51.991  47.084  1.00  0.00     0.183 HD
ENDBRANCH  16  18
ENDBRANCH  15  16
ENDBRANCH  14  15
ENDBRANCH   1  14
BRANCH   6  28
HETATM   28  N5  UNL     1      20.139  43.487  45.881  1.00  0.00    -0.225 N
ATOM     29  H5  UNL     1      19.345  42.951  46.230  1.00  0.00     0.177 HD
BRANCH  28  30
HETATM   30  C7  UNL     1      21.460  43.034  46.187  1.00  0.00     0.138 C
BRANCH  30  31
HETATM   31  C8  UNL     1      22.297  42.989  44.961  1.00  0.00     0.025 C
BRANCH  31  32
HETATM   32  C9  UNL     1      23.575  43.735  45.065  1.00  0.00     0.040 C
BRANCH  32  33
HETATM   33  C10 UNL     1      23.604  44.866  44.110  1.00  0.00    -0.058 A
HETATM   34  C11 UNL     1      22.786  44.756  42.986  1.00  0.00     0.007 A
HETATM   35  C12 UNL     1      22.698  45.728  42.016  1.00  0.00     0.001 A
HETATM   36  C13 UNL     1      23.458  46.876  42.159  1.00  0.00     0.000 A
HETATM   37  C14 UNL     1      24.265  46.981  43.268  1.00  0.00     0.001 A
HETATM   38  C15 UNL     1      24.346  46.001  44.236  1.00  0.00     0.007 A
ENDBRANCH  32  33
ENDBRANCH  31  32
ENDBRANCH  30  31
ENDBRANCH  28  30
ENDBRANCH   6  28
BRANCH  10  39
HETATM   39  C17 UNL     1      17.339  44.476  41.805  1.00  0.00     0.142 C
BRANCH  39  40
HETATM   40  C18 UNL     1      16.906  44.816  40.405  1.00  0.00     0.058 C
BRANCH  40  41
HETATM   41  C19 UNL     1      15.794  45.793  40.352  1.00  0.00    -0.057 A
HETATM   42  C20 UNL     1      14.545  45.386  40.758  1.00  0.00     0.007 A
HETATM   43  C21 UNL     1      13.489  46.280  40.716  1.00  0.00     0.001 A
HETATM   44  C22 UNL     1      13.673  47.579  40.270  1.00  0.00     0.000 A
HETATM   45  C23 UNL     1      14.930  47.986  39.863  1.00  0.00     0.001 A
HETATM   46  C24 UNL     1      15.976  47.100  39.904  1.00  0.00     0.007 A
ENDBRANCH  40  41
ENDBRANCH  39  40
ENDBRANCH  10  39
TORSDOF 12
ENDMDL