MODEL 5
REMARK VINA RESULT: -7.119337761      3.003      4.480
REMARK  11 active torsions:
REMARK  status: ('A' for Active; 'I' for Inactive)
REMARK    1  A    between atoms: C2_2  and  C3_3
REMARK    2  A    between atoms: C3_3  and  C4_4
REMARK    3  A    between atoms: C5_7  and  O1_8
REMARK    4  A    between atoms: C7_11  and  C8_12
REMARK    5  A    between atoms: C10_16  and  C11_17
REMARK    6  A    between atoms: C13_20  and  C14_21
REMARK    7  A    between atoms: C14_21  and  C15_22
REMARK    8  A    between atoms: C15_22  and  N3_23
REMARK    9  A    between atoms: C18_30  and  C19_31
REMARK   10  A    between atoms: C19_31  and  O4_33
REMARK   11  A    between atoms: O4_33  and  C20_34
ROOT
HETATM    1  C8  UNL     1      23.527  47.255  45.627  1.00  0.00     0.084 A
HETATM    2  N2  UNL     1      23.984  47.208  46.891  1.00  0.00    -0.362 N
ATOM      3  H2  UNL     1      24.376  46.336  47.245  1.00  0.00     0.165 HD
HETATM    4  C9  UNL     1      23.939  48.273  47.694  1.00  0.00     0.097 A
HETATM    5  C10 UNL     1      23.418  49.530  47.305  1.00  0.00    -0.019 A
HETATM    6  C12 UNL     1      22.946  49.618  46.027  1.00  0.00     0.021 A
HETATM    7  C13 UNL     1      22.512  50.728  45.484  1.00  0.00    -0.009 C
HETATM    8  C17 UNL     1      23.020  48.454  45.226  1.00  0.00     0.208 A
HETATM    9  O2  UNL     1      22.589  48.507  44.046  1.00  0.00    -0.285 OA
ENDROOT
BRANCH   1  10
HETATM   10  C7  UNL     1      23.587  46.177  44.872  1.00  0.00     0.050 C
HETATM   11  C6  UNL     1      22.711  45.041  44.907  1.00  0.00     0.035 A
HETATM   12  C5  UNL     1      22.836  43.893  45.647  1.00  0.00     0.151 A
HETATM   13  C18 UNL     1      21.550  44.873  44.183  1.00  0.00     0.076 A
HETATM   14  N1  UNL     1      21.803  43.054  45.395  1.00  0.00    -0.339 N
HETATM   15  C4  UNL     1      20.988  43.655  44.479  1.00  0.00     0.028 A
ATOM     16  H1  UNL     1      21.660  42.135  45.815  1.00  0.00     0.168 HD
BRANCH  12  17
HETATM   17  O1  UNL     1      23.852  43.560  46.553  1.00  0.00    -0.345 OA
ATOM     18  H1  UNL     1      24.633  43.094  46.279  1.00  0.00     0.219 HD
ENDBRANCH  12  17
BRANCH  15  19
HETATM   19  C3  UNL     1      19.745  43.056  43.945  1.00  0.00     0.058 C
BRANCH  19  20
HETATM   20  C2  UNL     1      18.486  43.688  44.420  1.00  0.00     0.002 C
HETATM   21  C1  UNL     1      17.649  44.004  43.179  1.00  0.00     0.005 C
ENDBRANCH  19  20
ENDBRANCH  15  19
BRANCH  13  22
HETATM   22  C19 UNL     1      21.019  45.844  43.259  1.00  0.00     0.296 C
HETATM   23  O3  UNL     1      20.081  46.639  43.505  1.00  0.00    -0.259 OA
BRANCH  22  24
HETATM   24  O4  UNL     1      21.573  45.931  41.975  1.00  0.00    -0.313 OA
BRANCH  24  25
HETATM   25  C20 UNL     1      22.930  45.776  41.697  1.00  0.00     0.124 C
HETATM   26  C21 UNL     1      23.255  45.151  40.384  1.00  0.00     0.040 C
HETATM   27  C22 UNL     1      23.551  47.171  41.781  1.00  0.00     0.040 C
ENDBRANCH  24  25
ENDBRANCH  22  24
ENDBRANCH  13  22
ENDBRANCH   1  10
BRANCH   5  28
HETATM   28  C11 UNL     1      23.339  50.588  48.345  1.00  0.00     0.126 C
HETATM   29 BR1  UNL     1      23.473  49.788  50.107  1.00  0.00    -0.091 Br
ENDBRANCH   5  28
BRANCH   7  30
HETATM   30  C14 UNL     1      22.382  52.088  45.934  1.00  0.00     0.048 C
BRANCH  30  31
HETATM   31  C15 UNL     1      23.662  52.864  45.524  1.00  0.00     0.126 C
BRANCH  31  32
HETATM   32  N3  UNL     1      23.357  54.238  45.278  1.00  0.00    -0.367 N
HETATM   33  C16 UNL     1      24.143  55.236  45.337  1.00  0.00     0.196 C
HETATM   34  N4  UNL     1      25.514  55.113  45.678  1.00  0.00    -0.067 NA
HETATM   35  N5  UNL     1      23.638  56.535  45.054  1.00  0.00    -0.067 NA
ATOM     36  H3  UNL     1      22.390  54.444  45.023  1.00  0.00     0.161 HD
ENDBRANCH  31  32
ENDBRANCH  30  31
ENDBRANCH   7  30
TORSDOF 11
ENDMDL