MODEL 2
REMARK VINA RESULT: -9.153617112      1.515      5.928
REMARK  13 active torsions:
REMARK  status: ('A' for Active; 'I' for Inactive)
REMARK    1  A    between atoms: C2_2  and  C3_4
REMARK    2  A    between atoms: C3_4  and  C4_5
REMARK    3  A    between atoms: C4_5  and  C5_6
REMARK    4  A    between atoms: N3_12  and  C8_13
REMARK    5  A    between atoms: C8_13  and  C9_14
REMARK    6  A    between atoms: C9_14  and  N4_15
REMARK    7  A    between atoms: N4_15  and  C10_17
REMARK    8  A    between atoms: C11_20  and  N6_21
REMARK    9  A    between atoms: N6_21  and  C12_23
REMARK   10  A    between atoms: C12_23  and  C13_24
REMARK   11  A    between atoms: C19_32  and  N8_33
REMARK   12  A    between atoms: N8_33  and  C20_35
REMARK   13  A    between atoms: C20_35  and  C21_36
ROOT
HETATM    1  C10 UNL     1      20.441  44.546  44.397  1.00  0.00     0.707 A
HETATM    2  N5  UNL     1      19.699  44.294  43.309  1.00  0.00    -0.022 N
ATOM      3  H5  UNL     1      19.680  43.356  42.910  1.00  0.00     0.203 HD
HETATM    4  C11 UNL     1      18.969  45.294  42.737  1.00  0.00     0.707 A
HETATM    5  N7  UNL     1      19.002  46.523  43.274  1.00  0.00    -0.022 N
ATOM      6  H7  UNL     1      18.459  47.277  42.854  1.00  0.00     0.203 HD
HETATM    7  C19 UNL     1      19.747  46.763  44.359  1.00  0.00     0.707 A
HETATM    8  N9  UNL     1      20.472  45.799  44.940  1.00  0.00    -0.022 N
ATOM      9  H9  UNL     1      21.035  45.995  45.767  1.00  0.00     0.203 HD
ENDROOT
BRANCH   1  10
HETATM   10  N4  UNL     1      21.123  43.601  44.948  1.00  0.00    -0.224 N
ATOM     11  H4  UNL     1      20.661  42.716  45.161  1.00  0.00     0.177 HD
BRANCH  10  12
HETATM   12  C9  UNL     1      22.519  43.755  45.273  1.00  0.00     0.158 C
BRANCH  12  13
HETATM   13  C8  UNL     1      23.390  43.607  44.037  1.00  0.00     0.148 C
BRANCH  13  14
HETATM   14  N3  UNL     1      23.776  44.934  43.578  1.00  0.00    -0.326 N
HETATM   15  C5  UNL     1      24.511  45.909  44.342  1.00  0.00     0.107 C
HETATM   16  C6  UNL     1      25.119  46.793  43.307  1.00  0.00     0.149 C
HETATM   17  N2  UNL     1      24.202  46.745  42.198  1.00  0.00    -0.341 N
HETATM   18  C7  UNL     1      23.509  45.511  42.308  1.00  0.00     0.318 C
ATOM     19  H2  UNL     1      24.076  47.455  41.478  1.00  0.00     0.164 HD
HETATM   20  O1  UNL     1      22.768  44.978  41.443  1.00  0.00    -0.247 OA
BRANCH  15  21
HETATM   21  C4  UNL     1      23.541  46.616  45.268  1.00  0.00     0.032 C
BRANCH  21  22
HETATM   22  C3  UNL     1      24.237  47.566  46.175  1.00  0.00     0.055 C
BRANCH  22  23
HETATM   23  C2  UNL     1      23.286  48.148  47.140  1.00  0.00     0.015 C
HETATM   24  C1  UNL     1      23.682  49.062  47.980  1.00  0.00     0.035 C
HETATM   25  N1  UNL     1      21.955  47.702  47.130  1.00  0.00    -0.108 NA
ENDBRANCH  22  23
ENDBRANCH  21  22
ENDBRANCH  15  21
ENDBRANCH  13  14
ENDBRANCH  12  13
ENDBRANCH  10  12
ENDBRANCH   1  10
BRANCH   4  26
HETATM   26  N6  UNL     1      18.272  44.992  41.689  1.00  0.00    -0.221 N
ATOM     27  H6  UNL     1      18.683  45.050  40.757  1.00  0.00     0.178 HD
BRANCH  26  28
HETATM   28  C12 UNL     1      16.919  44.575  41.862  1.00  0.00     0.176 C
BRANCH  28  29
HETATM   29  C13 UNL     1      15.940  45.492  41.220  1.00  0.00    -0.040 A
HETATM   30  C14 UNL     1      14.583  45.364  41.293  1.00  0.00     0.009 A
HETATM   31  C15 UNL     1      13.741  46.276  40.664  1.00  0.00     0.001 A
HETATM   32  C16 UNL     1      14.279  47.328  39.958  1.00  0.00     0.000 A
HETATM   33  C17 UNL     1      15.660  47.479  39.873  1.00  0.00     0.001 A
HETATM   34  C18 UNL     1      16.453  46.557  40.507  1.00  0.00     0.009 A
ENDBRANCH  28  29
ENDBRANCH  26  28
ENDBRANCH   4  26
BRANCH   7  35
HETATM   35  N8  UNL     1      19.766  47.936  44.857  1.00  0.00    -0.221 N
ATOM     36  H8  UNL     1      19.791  47.968  45.877  1.00  0.00     0.178 HD
BRANCH  35  37
HETATM   37  C20 UNL     1      19.757  49.197  44.224  1.00  0.00     0.179 C
BRANCH  37  38
HETATM   38  C21 UNL     1      21.041  49.925  44.470  1.00  0.00    -0.001 A
HETATM   39  C22 UNL     1      21.135  51.021  45.301  1.00  0.00     0.012 A
HETATM   40  C23 UNL     1      22.320  51.689  45.518  1.00  0.00     0.001 A
HETATM   41  C24 UNL     1      23.461  51.247  44.881  1.00  0.00     0.003 A
HETATM   42  C25 UNL     1      23.398  50.143  44.037  1.00  0.00     0.043 A
HETATM   43  C26 UNL     1      22.210  49.501  43.841  1.00  0.00     0.124 A
HETATM   44  F1  UNL     1      22.153  48.428  43.027  1.00  0.00    -0.205 F
ENDBRANCH  37  38
ENDBRANCH  35  37
ENDBRANCH   7  35
TORSDOF 13
ENDMDL