MODEL 2
REMARK VINA RESULT: -6.054532392      0.898      1.955
REMARK  12 active torsions:
REMARK  status: ('A' for Active; 'I' for Inactive)
REMARK    1  A    between atoms: C2_2  and  C3_3
REMARK    2  A    between atoms: C3_3  and  C4_4
REMARK    3  A    between atoms: C4_4  and  C5_5
REMARK    4  A    between atoms: C4_4  and  C7_7
REMARK    5  A    between atoms: C11_14  and  C12_15
REMARK    6  A    between atoms: C12_15  and  C14_17
REMARK    7  A    between atoms: C14_17  and  C15_18
REMARK    8  A    between atoms: C16_19  and  C17_20
REMARK    9  A    between atoms: C19_26  and  C20_27
REMARK   10  A    between atoms: C20_27  and  C21_28
REMARK   11  A    between atoms: C21_28  and  C22_29
REMARK   12  A    between atoms: C22_29  and  N3_30
ROOT
HETATM    1  C7  UNL     1      23.250  46.201  44.889  1.00  0.00     0.082 C
HETATM    2  C8  UNL     1      22.753  44.818  45.037  1.00  0.00     0.024 C
HETATM    3  C9  UNL     1      21.841  44.362  43.913  1.00  0.00     0.103 C
HETATM    4  C10 UNL     1      20.488  44.019  44.417  1.00  0.00     0.219 C
HETATM    5  O1  UNL     1      20.344  42.874  44.917  1.00  0.00    -0.274 OA
HETATM    6  N1  UNL     1      19.366  44.882  44.373  1.00  0.00    -0.340 N
ATOM      7  H1  UNL     1      18.709  44.867  45.153  1.00  0.00     0.164 HD
HETATM    8  C11 UNL     1      19.105  45.804  43.248  1.00  0.00     0.191 C
HETATM    9  N2  UNL     1      18.796  47.137  43.704  1.00  0.00    -0.338 N
ATOM     10  H2  UNL     1      17.942  47.553  43.331  1.00  0.00     0.164 HD
HETATM   11  C18 UNL     1      19.535  47.936  44.605  1.00  0.00     0.242 C
HETATM   12  O2  UNL     1      18.918  48.345  45.664  1.00  0.00    -0.271 OA
HETATM   13  C19 UNL     1      20.936  48.370  44.493  1.00  0.00     0.176 C
HETATM   14  N6  UNL     1      21.672  47.660  43.477  1.00  0.00    -0.347 N
ATOM     15  H6  UNL     1      21.296  47.687  42.529  1.00  0.00     0.163 HD
HETATM   16  C24 UNL     1      22.872  46.925  43.673  1.00  0.00     0.222 C
HETATM   17  O3  UNL     1      23.648  46.938  42.653  1.00  0.00    -0.273 OA
ENDROOT
BRANCH  13  18
HETATM   18  C20 UNL     1      20.998  49.832  44.103  1.00  0.00     0.036 C
BRANCH  18  19
HETATM   19  C21 UNL     1      22.349  50.452  44.166  1.00  0.00     0.022 C
BRANCH  19  20
HETATM   20  C22 UNL     1      22.484  51.219  45.496  1.00  0.00     0.122 C
BRANCH  20  21
HETATM   21  N3  UNL     1      22.352  52.642  45.291  1.00  0.00    -0.367 N
HETATM   22  C23 UNL     1      23.332  53.464  45.548  1.00  0.00     0.196 C
HETATM   23  N4  UNL     1      24.565  52.988  46.040  1.00  0.00    -0.067 NA
HETATM   24  N5  UNL     1      23.157  54.854  45.330  1.00  0.00    -0.067 NA
ATOM     25  H3  UNL     1      21.471  53.014  44.937  1.00  0.00     0.161 HD
ENDBRANCH  20  21
ENDBRANCH  19  20
ENDBRANCH  18  19
ENDBRANCH  13  18
BRANCH   8  26
HETATM   26  C12 UNL     1      17.853  45.217  42.596  1.00  0.00     0.035 C
HETATM   27  C13 UNL     1      17.622  43.796  43.095  1.00  0.00     0.015 C
BRANCH  26  28
HETATM   28  C14 UNL     1      17.883  45.231  41.108  1.00  0.00     0.102 C
BRANCH  28  29
HETATM   29  C15 UNL     1      16.765  46.104  40.678  1.00  0.00    -0.105 C
HETATM   30  C16 UNL     1      15.870  46.804  40.306  1.00  0.00    -0.092 C
BRANCH  30  31
HETATM   31  C17 UNL     1      14.784  47.686  39.828  1.00  0.00     0.208 C
HETATM   32 CL1  UNL     1      13.237  46.936  40.274  1.00  0.00    -0.117 Cl
ENDBRANCH  30  31
ENDBRANCH  28  29
ENDBRANCH  26  28
ENDBRANCH   8  26
BRANCH   1  33
HETATM   33  C4  UNL     1      24.732  46.385  45.197  1.00  0.00    -0.002 C
BRANCH  33  34
HETATM   34  C3  UNL     1      25.091  47.602  45.909  1.00  0.00     0.005 C
BRANCH  34  35
HETATM   35  C2  UNL     1      24.026  48.307  46.659  1.00  0.00    -0.004 C
HETATM   36  C1  UNL     1      24.026  48.357  48.135  1.00  0.00     0.005 C
ENDBRANCH  34  35
ENDBRANCH  33  34
BRANCH  33  37
HETATM   37  C5  UNL     1      25.591  46.028  44.032  1.00  0.00     0.001 C
HETATM   38  C6  UNL     1      27.076  45.992  44.345  1.00  0.00     0.005 C
ENDBRANCH  33  37
ENDBRANCH   1  33
TORSDOF 12
ENDMDL