MODEL 5
REMARK VINA RESULT: -4.275602423      1.638      2.333
REMARK  13 active torsions:
REMARK  status: ('A' for Active; 'I' for Inactive)
REMARK    1  A    between atoms: C2_2  and  C4_4
REMARK    2  A    between atoms: C4_4  and  C5_5
REMARK    3  A    between atoms: C6_8  and  O1_9
REMARK    4  A    between atoms: C7_11  and  C8_12
REMARK    5  A    between atoms: C8_12  and  C9_13
REMARK    6  A    between atoms: C9_13  and  C10_14
REMARK    7  A    between atoms: C10_14  and  N2_15
REMARK    8  A    between atoms: C12_22  and  O2_23
REMARK    9  A    between atoms: C13_25  and  C14_26
REMARK   10  A    between atoms: C13_25  and  C20_32
REMARK   11  A    between atoms: C23_35  and  C24_36
REMARK   12  A    between atoms: C24_36  and  C25_37
REMARK   13  A    between atoms: C26_41  and  O3_42
ROOT
HETATM    1  C5  UNL     1      23.404  47.525  42.468  1.00  0.00     0.062 C
HETATM    2  N1  UNL     1      24.182  47.452  43.666  1.00  0.00    -0.339 N
ATOM      3  H1  UNL     1      25.062  47.958  43.572  1.00  0.00     0.167 HD
HETATM    4  C6  UNL     1      24.057  46.876  44.918  1.00  0.00     0.139 C
HETATM    5  C7  UNL     1      23.184  47.152  46.076  1.00  0.00     0.158 C
HETATM    6  N5  UNL     1      21.772  47.144  45.883  1.00  0.00    -0.361 N
ATOM      7  H5  UNL     1      21.387  48.087  45.845  1.00  0.00     0.162 HD
HETATM    8  C12 UNL     1      20.777  46.166  45.733  1.00  0.00     0.131 C
HETATM    9  C13 UNL     1      20.612  45.153  44.646  1.00  0.00     0.093 C
HETATM   10  C23 UNL     1      20.581  45.902  43.393  1.00  0.00     0.013 C
HETATM   11  N6  UNL     1      21.477  45.736  42.298  1.00  0.00    -0.341 N
ATOM     12  H6  UNL     1      21.164  45.062  41.598  1.00  0.00     0.167 HD
HETATM   13  C26 UNL     1      22.716  46.336  42.009  1.00  0.00     0.163 C
ENDROOT
BRANCH   9  14
HETATM   14  C14 UNL     1      21.687  44.197  44.954  1.00  0.00    -0.035 A
HETATM   15  C15 UNL     1      21.506  43.334  46.052  1.00  0.00     0.009 A
HETATM   16  C16 UNL     1      22.410  42.359  46.400  1.00  0.00     0.001 A
HETATM   17  C17 UNL     1      23.563  42.179  45.674  1.00  0.00     0.000 A
HETATM   18  C18 UNL     1      23.748  43.014  44.604  1.00  0.00     0.001 A
HETATM   19  C19 UNL     1      22.830  43.990  44.262  1.00  0.00     0.009 A
ENDBRANCH   9  14
BRANCH   9  20
HETATM   20  C20 UNL     1      19.389  44.275  44.818  1.00  0.00     0.004 C
HETATM   21  C21 UNL     1      19.171  43.126  43.917  1.00  0.00     0.011 C
HETATM   22  C22 UNL     1      18.085  45.040  44.729  1.00  0.00     0.011 C
ENDBRANCH   9  20
BRANCH   8  23
HETATM   23  O2  UNL     1      19.909  46.205  46.711  1.00  0.00    -0.348 OA
ATOM     24  H2  UNL     1      19.021  46.079  46.398  1.00  0.00     0.219 HD
ENDBRANCH   8  23
BRANCH  10  25
HETATM   25  C24 UNL     1      19.261  46.331  42.827  1.00  0.00     0.085 C
BRANCH  25  26
HETATM   26  C25 UNL     1      18.639  45.501  41.772  1.00  0.00     0.227 C
HETATM   27  F1  UNL     1      17.375  46.018  41.400  1.00  0.00    -0.255 F
ENDBRANCH  25  26
ENDBRANCH  10  25
BRANCH   5  28
HETATM   28  C8  UNL     1      23.570  48.516  46.735  1.00  0.00     0.035 C
BRANCH  28  29
HETATM   29  C9  UNL     1      23.273  48.623  48.163  1.00  0.00     0.022 C
BRANCH  29  30
HETATM   30  C10 UNL     1      23.126  50.045  48.665  1.00  0.00     0.122 C
BRANCH  30  31
HETATM   31  N2  UNL     1      23.888  50.982  47.889  1.00  0.00    -0.367 N
HETATM   32  C11 UNL     1      23.376  51.744  46.995  1.00  0.00     0.196 C
HETATM   33  N3  UNL     1      24.217  52.633  46.286  1.00  0.00    -0.067 NA
HETATM   34  N4  UNL     1      21.993  51.727  46.691  1.00  0.00    -0.067 NA
ATOM     35  H2  UNL     1      24.892  51.045  48.059  1.00  0.00     0.161 HD
ENDBRANCH  30  31
ENDBRANCH  29  30
ENDBRANCH  28  29
ENDBRANCH   5  28
BRANCH  13  36
HETATM   36  O3  UNL     1      23.407  45.653  41.116  1.00  0.00    -0.345 OA
ATOM     37  H3  UNL     1      22.856  45.176  40.506  1.00  0.00     0.219 HD
ENDBRANCH  13  36
BRANCH   4  38
HETATM   38  O1  UNL     1      24.891  45.878  45.122  1.00  0.00    -0.348 OA
ATOM     39  H1  UNL     1      24.480  45.023  45.063  1.00  0.00     0.219 HD
ENDBRANCH   4  38
BRANCH   1  40
HETATM   40  C4  UNL     1      22.651  48.828  42.496  1.00  0.00     0.065 C
BRANCH  40  41
HETATM   41  C2  UNL     1      22.322  49.347  43.850  1.00  0.00    -0.017 C
HETATM   42  C1  UNL     1      20.800  49.522  44.019  1.00  0.00     0.010 C
HETATM   43  C3  UNL     1      22.881  50.776  43.913  1.00  0.00     0.010 C
ENDBRANCH  40  41
ENDBRANCH   1  40
TORSDOF 13
ENDMDL