MODEL 2
REMARK VINA RESULT: -9.088868158      0.715      1.083
REMARK  13 active torsions:
REMARK  status: ('A' for Active; 'I' for Inactive)
REMARK    1  A    between atoms: N1_2  and  C3_4
REMARK    2  A    between atoms: C3_4  and  C4_5
REMARK    3  A    between atoms: C4_5  and  C5_6
REMARK    4  A    between atoms: C5_6  and  N2_7
REMARK    5  A    between atoms: N2_7  and  C6_8
REMARK    6  A    between atoms: C8_12  and  C9_13
REMARK    7  A    between atoms: C9_13  and  C10_14
REMARK    8  A    between atoms: C10_14  and  N4_15
REMARK    9  A    between atoms: N4_15  and  C11_17
REMARK   10  A    between atoms: C12_20  and  N6_21
REMARK   11  A    between atoms: N6_21  and  C13_23
REMARK   12  A    between atoms: C13_23  and  C14_24
REMARK   13  A    between atoms: C14_24  and  C15_25
ROOT
HETATM    1  C11 UNL     1      22.931  45.194  43.611  1.00  0.00     0.129 A
HETATM    2  N5  UNL     1      22.997  44.764  42.341  1.00  0.00    -0.176 N
ATOM      3  H5  UNL     1      22.827  43.777  42.146  1.00  0.00     0.186 HD
HETATM    4  C12 UNL     1      23.282  45.603  41.301  1.00  0.00     0.680 A
HETATM    5  N7  UNL     1      23.506  46.898  41.543  1.00  0.00    -0.191 N
ATOM      6  H7  UNL     1      23.718  47.517  40.760  1.00  0.00     0.184 HD
HETATM    7  C16 UNL     1      23.462  47.406  42.767  1.00  0.00     0.063 A
HETATM    8  C17 UNL     1      23.703  48.763  42.977  1.00  0.00     0.032 A
HETATM    9  C18 UNL     1      23.656  49.291  44.249  1.00  0.00     0.021 A
HETATM   10  C19 UNL     1      23.364  48.438  45.313  1.00  0.00     0.012 A
HETATM   11 BR1  UNL     1      23.303  49.187  47.062  1.00  0.00    -0.051 Br
HETATM   12  C20 UNL     1      23.129  47.102  45.083  1.00  0.00     0.036 A
HETATM   13  C21 UNL     1      23.171  46.546  43.810  1.00  0.00     0.037 A
ENDROOT
BRANCH   1  14
HETATM   14  N4  UNL     1      22.667  44.458  44.628  1.00  0.00    -0.375 N
ATOM     15  H4  UNL     1      23.389  44.372  45.343  1.00  0.00     0.161 HD
BRANCH  14  16
HETATM   16  C10 UNL     1      21.436  43.745  44.842  1.00  0.00     0.127 C
BRANCH  16  17
HETATM   17  C9  UNL     1      20.278  44.665  45.196  1.00  0.00     0.078 C
BRANCH  17  18
HETATM   18  C8  UNL     1      19.150  44.456  44.253  1.00  0.00     0.030 A
HETATM   19  C7  UNL     1      17.956  43.825  44.468  1.00  0.00     0.117 A
HETATM   20  N3  UNL     1      17.230  43.846  43.374  1.00  0.00    -0.325 N
HETATM   21  C6  UNL     1      17.933  44.504  42.388  1.00  0.00     0.253 A
ATOM     22  H3  UNL     1      16.299  43.443  43.272  1.00  0.00     0.169 HD
HETATM   23  N8  UNL     1      19.118  44.860  42.987  1.00  0.00    -0.319 N
ATOM     24  H8  UNL     1      19.871  45.367  42.523  1.00  0.00     0.170 HD
BRANCH  21  25
HETATM   25  N2  UNL     1      17.603  44.728  41.246  1.00  0.00    -0.416 NA
BRANCH  25  26
HETATM   26  C5  UNL     1      17.208  44.553  39.979  1.00  0.00     0.223 C
BRANCH  26  27
HETATM   27  C4  UNL     1      15.938  45.351  39.593  1.00  0.00     0.064 C
BRANCH  27  28
HETATM   28  C3  UNL     1      15.923  46.654  40.318  1.00  0.00     0.274 C
BRANCH  28  29
HETATM   29  N1  UNL     1      14.675  46.870  41.046  1.00  0.00     0.080 N
HETATM   30  C1  UNL     1      13.886  45.642  41.085  1.00  0.00     0.309 C
HETATM   31  C2  UNL     1      13.902  47.896  40.316  1.00  0.00     0.309 C
ENDBRANCH  28  29
ENDBRANCH  27  28
ENDBRANCH  26  27
ENDBRANCH  25  26
ENDBRANCH  21  25
ENDBRANCH  17  18
ENDBRANCH  16  17
ENDBRANCH  14  16
ENDBRANCH   1  14
BRANCH   4  32
HETATM   32  N6  UNL     1      23.311  45.064  40.152  1.00  0.00    -0.225 N
ATOM     33  H6  UNL     1      23.136  44.059  40.130  1.00  0.00     0.177 HD
BRANCH  32  34
HETATM   34  C13 UNL     1      23.555  45.675  38.891  1.00  0.00     0.148 C
BRANCH  34  35
HETATM   35  C14 UNL     1      23.490  44.774  37.700  1.00  0.00     0.133 C
BRANCH  35  36
HETATM   36  C15 UNL     1      22.984  45.420  36.470  1.00  0.00     0.174 C
HETATM   37  O1  UNL     1      23.809  45.652  35.559  1.00  0.00    -0.648 OA
HETATM   38  O2  UNL     1      21.667  45.785  36.257  1.00  0.00    -0.648 OA
ENDBRANCH  35  36
ENDBRANCH  34  35
ENDBRANCH  32  34
ENDBRANCH   4  32
TORSDOF 13
ENDMDL