MODEL 3
REMARK VINA RESULT: -7.255940449      1.629      2.008
REMARK  12 active torsions:
REMARK  status: ('A' for Active; 'I' for Inactive)
REMARK    1  A    between atoms: C2_2  and  C3_3
REMARK    2  A    between atoms: C3_3  and  C4_4
REMARK    3  A    between atoms: C4_4  and  C5_5
REMARK    4  A    between atoms: C5_5  and  C6_6
REMARK    5  A    between atoms: C6_6  and  C7_7
REMARK    6  A    between atoms: C7_7  and  C8_8
REMARK    7  A    between atoms: C18_27  and  C19_28
REMARK    8  A    between atoms: C19_28  and  C20_29
REMARK    9  A    between atoms: C20_29  and  C21_30
REMARK   10  A    between atoms: C21_30  and  N4_31
REMARK   11  A    between atoms: C22_33  and  O4_35
REMARK   12  A    between atoms: C23_39  and  O5_40
ROOT
HETATM    1  C7  UNL     1      19.316  45.813  43.560  1.00  0.00     0.037 C
HETATM    2  C9  UNL     1      18.517  44.886  44.511  1.00  0.00     0.020 C
HETATM    3  C10 UNL     1      19.310  43.711  44.963  1.00  0.00     0.021 C
HETATM    4  C11 UNL     1      20.358  43.989  46.002  1.00  0.00     0.122 C
HETATM    5  N1  UNL     1      21.125  42.782  46.234  1.00  0.00    -0.360 N
ATOM      6  H1  UNL     1      20.597  41.970  46.552  1.00  0.00     0.162 HD
HETATM    7  C12 UNL     1      22.499  42.598  46.073  1.00  0.00     0.235 C
HETATM    8  O1  UNL     1      23.149  42.182  47.102  1.00  0.00    -0.272 OA
HETATM    9  C13 UNL     1      23.319  42.814  44.878  1.00  0.00     0.225 C
HETATM   10  N2  UNL     1      24.469  43.615  45.222  1.00  0.00    -0.351 N
ATOM     11  H2  UNL     1      25.169  43.189  45.829  1.00  0.00     0.163 HD
HETATM   12  C14 UNL     1      24.710  44.948  44.789  1.00  0.00     0.235 C
HETATM   13  O2  UNL     1      25.838  45.191  44.303  1.00  0.00    -0.272 OA
HETATM   14  C15 UNL     1      23.718  46.031  44.883  1.00  0.00     0.228 C
HETATM   15  N3  UNL     1      24.075  47.277  44.270  1.00  0.00    -0.346 N
HETATM   16  C16 UNL     1      25.464  47.713  44.493  1.00  0.00     0.153 C
HETATM   17  C17 UNL     1      23.265  48.112  43.495  1.00  0.00     0.242 C
HETATM   18  O3  UNL     1      23.860  48.719  42.532  1.00  0.00    -0.271 OA
HETATM   19  C18 UNL     1      21.827  48.409  43.606  1.00  0.00     0.175 C
HETATM   20  N6  UNL     1      21.071  47.553  44.463  1.00  0.00    -0.360 N
ATOM     21  H6  UNL     1      21.528  47.393  45.360  1.00  0.00     0.162 HD
HETATM   22  C23 UNL     1      19.865  46.895  44.357  1.00  0.00     0.122 C
ENDROOT
BRANCH  19  23
HETATM   23  C19 UNL     1      21.699  49.863  44.154  1.00  0.00     0.036 C
BRANCH  23  24
HETATM   24  C20 UNL     1      22.857  50.234  45.018  1.00  0.00     0.022 C
BRANCH  24  25
HETATM   25  C21 UNL     1      22.789  51.759  45.174  1.00  0.00     0.123 C
BRANCH  25  26
HETATM   26  N4  UNL     1      21.471  52.066  45.680  1.00  0.00    -0.359 N
HETATM   27  C22 UNL     1      21.104  53.252  46.010  1.00  0.00     0.225 C
HETATM   28  N5  UNL     1      19.807  53.536  46.505  1.00  0.00    -0.057 NA
ATOM     29  H4  UNL     1      20.800  51.305  45.781  1.00  0.00     0.162 HD
BRANCH  27  30
HETATM   30  O4  UNL     1      22.018  54.287  45.873  1.00  0.00    -0.335 OA
ATOM     31  H4  UNL     1      21.784  55.144  46.209  1.00  0.00     0.220 HD
ENDBRANCH  27  30
ENDBRANCH  25  26
ENDBRANCH  24  25
ENDBRANCH  23  24
ENDBRANCH  19  23
BRANCH  22  32
HETATM   32  O5  UNL     1      18.956  47.362  45.208  1.00  0.00    -0.349 OA
ATOM     33  H5  UNL     1      19.076  48.295  45.350  1.00  0.00     0.219 HD
ENDBRANCH  22  32
BRANCH   1  34
HETATM   34  C6  UNL     1      18.275  46.320  42.600  1.00  0.00     0.019 C
BRANCH  34  35
HETATM   35  C5  UNL     1      17.632  45.320  41.714  1.00  0.00     0.001 C
BRANCH  35  36
HETATM   36  C4  UNL     1      16.607  46.043  40.823  1.00  0.00     0.000 C
BRANCH  36  37
HETATM   37  C3  UNL     1      15.205  45.824  41.280  1.00  0.00    -0.000 C
BRANCH  37  38
HETATM   38  C2  UNL     1      14.223  46.682  40.523  1.00  0.00    -0.005 C
HETATM   39  C1  UNL     1      14.911  47.851  39.841  1.00  0.00     0.005 C
ENDBRANCH  37  38
ENDBRANCH  36  37
ENDBRANCH  35  36
ENDBRANCH  34  35
ENDBRANCH   1  34
BRANCH   1  40
HETATM   40  C8  UNL     1      20.240  44.969  42.745  1.00  0.00     0.132 C
HETATM   41 CL1  UNL     1      21.693  45.754  42.145  1.00  0.00    -0.129 Cl
ENDBRANCH   1  40
TORSDOF 12
ENDMDL