MODEL 1
REMARK VINA RESULT: -7.654999994      0.000      0.000
REMARK  12 active torsions:
REMARK  status: ('A' for Active; 'I' for Inactive)
REMARK    1  A    between atoms: N1_1  and  C1_5
REMARK    2  A    between atoms: C1_5  and  C2_6
REMARK    3  A    between atoms: C2_6  and  C3_7
REMARK    4  A    between atoms: C3_7  and  C4_8
REMARK    5  A    between atoms: C4_8  and  C5_9
REMARK    6  A    between atoms: C5_9  and  C6_10
REMARK    7  A    between atoms: C10_15  and  C11_16
REMARK    8  A    between atoms: C11_16  and  C12_17
REMARK    9  A    between atoms: C14_22  and  C15_23
REMARK   10  A    between atoms: C15_23  and  N3_24
REMARK   11  A    between atoms: N3_24  and  S1_26
REMARK   12  A    between atoms: S1_26  and  N4_27
ROOT
HETATM    1  C12 UNL     1      18.944  45.128  43.971  1.00  0.00     0.111 C
HETATM    2  C13 UNL     1      19.141  45.082  45.462  1.00  0.00     0.258 C
HETATM    3  N2  UNL     1      20.477  44.664  45.865  1.00  0.00    -0.062 N
ATOM      4  H21 UNL     1      20.657  43.687  45.633  1.00  0.00     0.278 HD
ATOM      5  H22 UNL     1      20.565  44.597  46.879  1.00  0.00     0.278 HD
HETATM    6  C14 UNL     1      21.488  45.561  45.285  1.00  0.00     0.254 C
HETATM    7  C16 UNL     1      21.391  45.312  43.823  1.00  0.00     0.048 C
HETATM    8  C17 UNL     1      22.399  45.618  43.043  1.00  0.00    -0.012 A
HETATM    9  C18 UNL     1      22.529  45.465  41.599  1.00  0.00     0.013 A
HETATM   10  C19 UNL     1      23.711  45.897  41.249  1.00  0.00     0.001 A
HETATM   11  C20 UNL     1      24.443  46.362  42.421  1.00  0.00     0.001 A
HETATM   12  C21 UNL     1      23.652  46.192  43.492  1.00  0.00     0.013 A
HETATM   13  N5  UNL     1      20.185  44.732  43.358  1.00  0.00    -0.384 N
ATOM     14  H5  UNL     1      20.196  44.047  42.602  1.00  0.00     0.160 HD
ENDROOT
BRANCH   1  15
HETATM   15  C11 UNL     1      17.893  44.166  43.488  1.00  0.00     0.065 C
BRANCH  15  16
HETATM   16  C10 UNL     1      17.276  44.485  42.188  1.00  0.00    -0.054 A
HETATM   17  C9  UNL     1      16.808  43.540  41.309  1.00  0.00     0.026 A
HETATM   18  C8  UNL     1      16.211  43.887  40.088  1.00  0.00     0.012 A
HETATM   19  C7  UNL     1      16.075  45.199  39.733  1.00  0.00     0.026 A
HETATM   20 BR1  UNL     1      15.600  42.463  38.952  1.00  0.00    -0.051 Br
HETATM   21  C6  UNL     1      16.529  46.172  40.581  1.00  0.00    -0.056 A
HETATM   22  C22 UNL     1      17.119  45.820  41.790  1.00  0.00     0.014 A
BRANCH  21  23
HETATM   23  C5  UNL     1      16.441  47.627  40.296  1.00  0.00     0.038 C
BRANCH  23  24
HETATM   24  C4  UNL     1      15.197  48.063  39.628  1.00  0.00     0.005 C
BRANCH  24  25
HETATM   25  C3  UNL     1      13.950  48.008  40.425  1.00  0.00     0.002 C
BRANCH  25  26
HETATM   26  C2  UNL     1      12.733  47.576  39.700  1.00  0.00     0.027 C
BRANCH  26  27
HETATM   27  C1  UNL     1      12.897  47.791  38.208  1.00  0.00     0.229 C
BRANCH  27  28
HETATM   28  N1  UNL     1      11.588  47.711  37.592  1.00  0.00    -0.079 N
ATOM     29  H13 UNL     1      11.633  47.685  36.574  1.00  0.00     0.274 HD
ATOM     30  H12 UNL     1      11.141  46.805  37.733  1.00  0.00     0.274 HD
ATOM     31  H11 UNL     1      11.024  48.486  37.942  1.00  0.00     0.274 HD
ENDBRANCH  27  28
ENDBRANCH  26  27
ENDBRANCH  25  26
ENDBRANCH  24  25
ENDBRANCH  23  24
ENDBRANCH  21  23
ENDBRANCH  15  16
ENDBRANCH   1  15
BRANCH   6  32
HETATM   32  C15 UNL     1      21.158  47.010  45.524  1.00  0.00     0.173 C
BRANCH  32  33
HETATM   33  N3  UNL     1      22.190  47.668  46.301  1.00  0.00    -0.301 N
ATOM     34  H3  UNL     1      22.538  47.321  47.195  1.00  0.00     0.173 HD
BRANCH  33  35
HETATM   35  S1  UNL     1      22.756  49.091  45.544  1.00  0.00     0.312 S
HETATM   36  O1  UNL     1      24.235  48.948  45.315  1.00  0.00    -0.183 OA
HETATM   37  O2  UNL     1      22.529  50.303  46.407  1.00  0.00    -0.183 OA
BRANCH  35  38
HETATM   38  N4  UNL     1      21.917  49.384  44.051  1.00  0.00    -0.312 N
ATOM     39  H42 UNL     1      21.116  48.835  43.737  1.00  0.00     0.170 HD
ATOM     40  H41 UNL     1      22.330  50.168  43.544  1.00  0.00     0.170 HD
ENDBRANCH  35  38
ENDBRANCH  33  35
ENDBRANCH  32  33
ENDBRANCH   6  32
TORSDOF 12
ENDMDL