MODEL 3
REMARK VINA RESULT: -7.380824765      1.436      1.782
REMARK  15 active torsions:
REMARK  status: ('A' for Active; 'I' for Inactive)
REMARK    1  A    between atoms: N1_2  and  C3_4
REMARK    2  A    between atoms: C3_4  and  N2_6
REMARK    3  A    between atoms: N2_6  and  C4_8
REMARK    4  A    between atoms: C5_11  and  N4_12
REMARK    5  A    between atoms: C8_21  and  C9_22
REMARK    6  A    between atoms: C9_22  and  C10_23
REMARK    7  A    between atoms: C10_23  and  N7_24
REMARK    8  A    between atoms: C10_23  and  C11_28
REMARK       I    between atoms: C11_28  and  N8_30
REMARK    9  A    between atoms: N8_30  and  C13_32
REMARK   10  A    between atoms: C13_32  and  C14_33
REMARK   11  A    between atoms: C14_33  and  C15_34
REMARK   12  A    between atoms: C15_34  and  C16_35
REMARK   13  A    between atoms: C16_35  and  C17_36
REMARK   14  A    between atoms: C17_36  and  C18_37
REMARK   15  A    between atoms: C18_37  and  C19_38
ROOT
HETATM    1  C4  UNL     1      23.812  46.616  44.583  1.00  0.00     0.137 A
HETATM    2  N3  UNL     1      25.095  46.946  44.429  1.00  0.00    -0.176 N
ATOM      3  H3  UNL     1      25.354  47.927  44.321  1.00  0.00     0.186 HD
HETATM    4  C5  UNL     1      26.049  46.000  44.415  1.00  0.00     0.679 A
HETATM    5  N5  UNL     1      25.750  44.697  44.555  1.00  0.00    -0.176 N
ATOM      6  H5  UNL     1      26.488  43.993  44.541  1.00  0.00     0.186 HD
HETATM    7  C6  UNL     1      24.463  44.335  44.713  1.00  0.00     0.135 A
HETATM    8  N6  UNL     1      23.883  43.116  44.861  1.00  0.00    -0.351 N
ATOM      9  H6  UNL     1      24.370  42.220  44.885  1.00  0.00     0.166 HD
HETATM   10  C7  UNL     1      22.568  43.293  44.969  1.00  0.00     0.098 A
HETATM   11  C8  UNL     1      22.249  44.659  44.895  1.00  0.00    -0.022 A
HETATM   12  C20 UNL     1      23.441  45.292  44.733  1.00  0.00     0.061 A
ENDROOT
BRANCH  11  13
HETATM   13  C9  UNL     1      20.920  45.201  45.014  1.00  0.00     0.083 C
BRANCH  13  14
HETATM   14  C10 UNL     1      19.809  44.439  44.309  1.00  0.00     0.279 C
BRANCH  14  15
HETATM   15  N7  UNL     1      18.860  44.102  45.341  1.00  0.00    -0.066 N
ATOM     16  H73 UNL     1      18.638  43.108  45.387  1.00  0.00     0.275 HD
ATOM     17  H72 UNL     1      19.235  44.184  46.287  1.00  0.00     0.275 HD
ATOM     18  H71 UNL     1      18.050  44.697  45.168  1.00  0.00     0.275 HD
ENDBRANCH  14  15
BRANCH  14  19
HETATM   19  C11 UNL     1      19.152  45.244  43.282  1.00  0.00     0.250 C
HETATM   20  O1  UNL     1      19.680  46.379  43.035  1.00  0.00    -0.271 OA
HETATM   21  N8  UNL     1      18.008  44.901  42.542  1.00  0.00    -0.355 N
HETATM   22  C12 UNL     1      17.243  43.674  42.681  1.00  0.00     0.152 C
BRANCH  21  23
HETATM   23  C13 UNL     1      17.519  45.821  41.493  1.00  0.00     0.125 C
BRANCH  23  24
HETATM   24  C14 UNL     1      16.978  45.086  40.276  1.00  0.00     0.020 C
BRANCH  24  25
HETATM   25  C15 UNL     1      15.733  45.633  39.720  1.00  0.00     0.002 C
BRANCH  25  26
HETATM   26  C16 UNL     1      15.341  47.035  39.941  1.00  0.00     0.000 C
BRANCH  26  27
HETATM   27  C17 UNL     1      14.118  47.430  40.652  1.00  0.00     0.001 C
BRANCH  27  28
HETATM   28  C18 UNL     1      12.891  47.496  39.837  1.00  0.00     0.011 C
BRANCH  28  29
HETATM   29  C19 UNL     1      13.252  47.771  38.343  1.00  0.00     0.085 C
HETATM   30 BR1  UNL     1      11.632  48.109  37.345  1.00  0.00    -0.097 Br
ENDBRANCH  28  29
ENDBRANCH  27  28
ENDBRANCH  26  27
ENDBRANCH  25  26
ENDBRANCH  24  25
ENDBRANCH  23  24
ENDBRANCH  21  23
ENDBRANCH  14  19
ENDBRANCH  13  14
ENDBRANCH  11  13
BRANCH   1  31
HETATM   31  N2  UNL     1      22.867  47.501  44.575  1.00  0.00    -0.318 N
ATOM     32  H2  UNL     1      22.126  47.422  43.879  1.00  0.00     0.170 HD
BRANCH  31  33
HETATM   33  C3  UNL     1      22.826  48.576  45.498  1.00  0.00     0.174 C
HETATM   34  S1  UNL     1      23.281  48.276  47.030  1.00  0.00    -0.041 SA
BRANCH  33  35
HETATM   35  N1  UNL     1      22.415  49.886  45.158  1.00  0.00    -0.367 N
HETATM   36  C1  UNL     1      21.376  50.131  44.190  1.00  0.00     0.151 C
HETATM   37  C2  UNL     1      23.036  51.061  45.780  1.00  0.00     0.151 C
ENDBRANCH  33  35
ENDBRANCH  31  33
ENDBRANCH   1  31
BRANCH   4  38
HETATM   38  N4  UNL     1      27.280  46.401  44.261  1.00  0.00    -0.234 N
ATOM     39  H42 UNL     1      27.637  46.679  43.348  1.00  0.00     0.174 HD
ATOM     40  H41 UNL     1      27.869  46.422  45.094  1.00  0.00     0.174 HD
ENDBRANCH   4  38
TORSDOF 15
ENDMDL