MODEL 1
REMARK VINA RESULT: -9.226598452      0.000      0.000
REMARK  14 active torsions:
REMARK  status: ('A' for Active; 'I' for Inactive)
REMARK    1  A    between atoms: C2_2  and  N1_4
REMARK    2  A    between atoms: N1_4  and  C4_6
REMARK    3  A    between atoms: N3_10  and  C6_12
REMARK    4  A    between atoms: C6_12  and  C7_13
REMARK    5  A    between atoms: C7_13  and  C8_14
REMARK    6  A    between atoms: C14_22  and  N5_23
REMARK       I    between atoms: N5_23  and  C15_25
REMARK       I    between atoms: C15_25  and  N7_32
REMARK    7  A    between atoms: N6_26  and  C16_28
REMARK    8  A    between atoms: C16_28  and  C17_29
REMARK    9  A    between atoms: C17_29  and  C18_30
REMARK   10  A    between atoms: N7_32  and  C19_34
REMARK   11  A    between atoms: C19_34  and  C20_35
REMARK   12  A    between atoms: C20_35  and  C21_36
REMARK   13  A    between atoms: C21_36  and  N8_37
REMARK   14  A    between atoms: N8_37  and  C22_39
ROOT
HETATM    1  C4  UNL     1      20.685  44.329  45.491  1.00  0.00     0.707 A
HETATM    2  N2  UNL     1      19.695  44.467  44.577  1.00  0.00    -0.022 N
ATOM      3  H2  UNL     1      19.160  43.641  44.309  1.00  0.00     0.203 HD
HETATM    4  C5  UNL     1      19.388  45.647  44.008  1.00  0.00     0.707 A
HETATM    5  N3  UNL     1      18.455  45.818  43.137  1.00  0.00    -0.225 N
ATOM      6  H3  UNL     1      18.299  46.755  42.765  1.00  0.00     0.177 HD
HETATM    7  N4  UNL     1      20.146  46.713  44.413  1.00  0.00    -0.021 N
ATOM      8  H4  UNL     1      19.947  47.627  44.006  1.00  0.00     0.203 HD
HETATM    9  C14 UNL     1      21.132  46.625  45.312  1.00  0.00     0.725 A
HETATM   10  N10 UNL     1      21.395  45.424  45.848  1.00  0.00    -0.021 N
ATOM     11  H10 UNL     1      22.143  45.334  46.535  1.00  0.00     0.203 HD
ENDROOT
BRANCH   9  12
HETATM   12  N5  UNL     1      21.815  47.687  45.649  1.00  0.00    -0.022 N
HETATM   13  C15 UNL     1      22.511  48.478  44.729  1.00  0.00     0.688 C
HETATM   14  N6  UNL     1      23.747  48.287  44.434  1.00  0.00    -0.226 N
HETATM   15  N7  UNL     1      21.835  49.548  44.081  1.00  0.00    -0.226 N
ATOM     16  H6  UNL     1      24.213  48.890  43.756  1.00  0.00     0.177 HD
ATOM     17  H7  UNL     1      21.684  49.566  43.073  1.00  0.00     0.177 HD
ATOM     18  H5  UNL     1      21.842  47.952  46.634  1.00  0.00     0.203 HD
BRANCH  14  19
HETATM   19  C16 UNL     1      24.461  47.226  45.064  1.00  0.00     0.139 C
BRANCH  19  20
HETATM   20  C17 UNL     1      24.799  46.086  44.140  1.00  0.00     0.035 C
BRANCH  20  21
HETATM   21  C18 UNL     1      24.387  46.513  42.743  1.00  0.00     0.116 C
HETATM   22 CL1  UNL     1      22.935  45.630  42.280  1.00  0.00    -0.130 Cl
ENDBRANCH  20  21
ENDBRANCH  19  20
ENDBRANCH  14  19
BRANCH  15  23
HETATM   23  C19 UNL     1      21.369  50.627  44.964  1.00  0.00     0.139 C
BRANCH  23  24
HETATM   24  C20 UNL     1      22.622  51.332  45.442  1.00  0.00     0.040 C
BRANCH  24  25
HETATM   25  C21 UNL     1      22.623  51.513  46.941  1.00  0.00     0.123 C
BRANCH  25  26
HETATM   26  N8  UNL     1      23.348  50.403  47.516  1.00  0.00    -0.376 N
ATOM     27  H8  UNL     1      23.850  49.751  46.914  1.00  0.00     0.161 HD
BRANCH  26  28
HETATM   28  C22 UNL     1      23.358  50.243  48.780  1.00  0.00     0.100 A
HETATM   29  C23 UNL     1      22.919  49.054  49.312  1.00  0.00     0.048 A
HETATM   30  C24 UNL     1      22.936  48.896  50.679  1.00  0.00     0.005 A
HETATM   31  C25 UNL     1      23.379  49.905  51.484  1.00  0.00     0.017 A
HETATM   32  C26 UNL     1      23.809  51.079  50.899  1.00  0.00     0.089 A
HETATM   33  N9  UNL     1      23.797  51.242  49.567  1.00  0.00    -0.353 N
ATOM     34  H9  UNL     1      24.119  52.117  49.153  1.00  0.00     0.166 HD
ENDBRANCH  26  28
ENDBRANCH  25  26
ENDBRANCH  24  25
ENDBRANCH  23  24
ENDBRANCH  15  23
ENDBRANCH   9  12
BRANCH   1  35
HETATM   35  N1  UNL     1      20.918  43.169  45.991  1.00  0.00    -0.221 N
ATOM     36  H1  UNL     1      20.205  42.766  46.598  1.00  0.00     0.178 HD
BRANCH  35  37
HETATM   37  C2  UNL     1      22.094  42.404  45.763  1.00  0.00     0.091 C
HETATM   38  C1  UNL     1      22.808  42.261  47.106  1.00  0.00     0.032 C
HETATM   39  C3  UNL     1      23.061  43.049  44.784  1.00  0.00     0.032 C
ENDBRANCH  35  37
ENDBRANCH   1  35
BRANCH   5  40
HETATM   40  C6  UNL     1      17.623  44.744  42.667  1.00  0.00     0.142 C
BRANCH  40  41
HETATM   41  C7  UNL     1      17.296  45.003  41.204  1.00  0.00     0.058 C
BRANCH  41  42
HETATM   42  C8  UNL     1      16.065  45.783  41.020  1.00  0.00    -0.057 A
HETATM   43  C9  UNL     1      14.833  45.358  41.440  1.00  0.00     0.007 A
HETATM   44  C10 UNL     1      13.692  46.127  41.244  1.00  0.00     0.001 A
HETATM   45  C11 UNL     1      13.768  47.344  40.618  1.00  0.00     0.000 A
HETATM   46  C12 UNL     1      15.010  47.784  40.187  1.00  0.00     0.001 A
HETATM   47  C13 UNL     1      16.132  47.021  40.384  1.00  0.00     0.007 A
ENDBRANCH  41  42
ENDBRANCH  40  41
ENDBRANCH   5  40
TORSDOF 14
ENDMDL