MODEL 3
REMARK VINA RESULT: -7.745267454      2.091      2.728
REMARK  13 active torsions:
REMARK  status: ('A' for Active; 'I' for Inactive)
REMARK    1  A    between atoms: C2_2  and  C4_4
REMARK    2  A    between atoms: C4_4  and  N1_5
REMARK    3  A    between atoms: C4_4  and  C10_18
REMARK       I    between atoms: N1_5  and  C5_7
REMARK    4  A    between atoms: C5_7  and  C6_9
REMARK    5  A    between atoms: C6_9  and  C9_13
REMARK    6  A    between atoms: C7_10  and  C8_11
REMARK       I    between atoms: C10_18  and  N4_20
REMARK    7  A    between atoms: N4_20  and  C11_22
REMARK    8  A    between atoms: C11_22  and  C12_23
REMARK    9  A    between atoms: C11_22  and  C21_38
REMARK       I    between atoms: C12_23  and  N5_25
REMARK   10  A    between atoms: C15_28  and  C16_29
REMARK   11  A    between atoms: C16_29  and  C17_30
REMARK   12  A    between atoms: C17_30  and  C18_31
REMARK   13  A    between atoms: C18_31  and  N6_32
ROOT
HETATM    1  C10 UNL     1      20.997  45.492  43.060  1.00  0.00     0.241 C
HETATM    2  O2  UNL     1      21.210  45.706  41.847  1.00  0.00    -0.271 OA
HETATM    3  N4  UNL     1      22.039  45.578  43.965  1.00  0.00    -0.346 N
ATOM      4  H4  UNL     1      21.804  45.395  44.940  1.00  0.00     0.163 HD
ENDROOT
BRANCH   3   5
HETATM    5  C11 UNL     1      23.424  45.895  43.694  1.00  0.00     0.180 C
BRANCH   5   6
HETATM    6  C12 UNL     1      23.506  47.379  43.778  1.00  0.00     0.243 C
HETATM    7  O3  UNL     1      23.747  48.062  42.705  1.00  0.00    -0.271 OA
HETATM    8  N5  UNL     1      23.351  48.161  44.931  1.00  0.00    -0.350 N
HETATM    9  C13 UNL     1      23.108  47.569  46.215  1.00  0.00     0.126 C
HETATM   10  C20 UNL     1      23.438  49.597  44.865  1.00  0.00     0.126 C
HETATM   11  C14 UNL     1      23.796  48.477  47.254  1.00  0.00     0.024 C
HETATM   12  C15 UNL     1      22.907  49.699  47.337  1.00  0.00    -0.012 C
HETATM   13  C19 UNL     1      22.831  50.336  46.000  1.00  0.00     0.024 C
BRANCH  12  14
HETATM   14  C16 UNL     1      23.303  50.622  48.443  1.00  0.00     0.006 C
BRANCH  14  15
HETATM   15  C17 UNL     1      23.468  49.823  49.715  1.00  0.00     0.027 C
BRANCH  15  16
HETATM   16  C18 UNL     1      23.609  50.818  50.858  1.00  0.00     0.229 C
BRANCH  16  17
HETATM   17  N6  UNL     1      23.527  50.054  52.092  1.00  0.00    -0.079 N
ATOM     18  H63 UNL     1      23.240  49.086  51.947  1.00  0.00     0.274 HD
ATOM     19  H62 UNL     1      24.438  49.858  52.504  1.00  0.00     0.274 HD
ATOM     20  H61 UNL     1      22.905  50.569  52.716  1.00  0.00     0.274 HD
ENDBRANCH  16  17
ENDBRANCH  15  16
ENDBRANCH  14  15
ENDBRANCH  12  14
ENDBRANCH   5   6
BRANCH   5  21
HETATM   21  C21 UNL     1      24.389  45.302  44.642  1.00  0.00     0.009 C
HETATM   22  C22 UNL     1      24.358  43.788  44.696  1.00  0.00     0.012 C
HETATM   23  C23 UNL     1      25.841  45.653  44.368  1.00  0.00     0.012 C
ENDBRANCH   5  21
ENDBRANCH   3   5
BRANCH   1  24
HETATM   24  C4  UNL     1      19.634  45.153  43.497  1.00  0.00     0.180 C
BRANCH  24  25
HETATM   25  C2  UNL     1      19.264  45.754  44.822  1.00  0.00     0.009 C
HETATM   26  C1  UNL     1      19.888  45.008  45.982  1.00  0.00     0.012 C
HETATM   27  C3  UNL     1      19.690  47.202  44.928  1.00  0.00     0.012 C
ENDBRANCH  24  25
BRANCH  24  28
HETATM   28  N1  UNL     1      18.616  45.580  42.525  1.00  0.00    -0.343 N
HETATM   29  C5  UNL     1      17.615  44.686  42.103  1.00  0.00     0.255 C
HETATM   30  O1  UNL     1      17.694  43.513  42.634  1.00  0.00    -0.268 OA
ATOM     31  H1  UNL     1      18.636  46.529  42.153  1.00  0.00     0.163 HD
BRANCH  29  32
HETATM   32  C6  UNL     1      16.557  44.956  41.176  1.00  0.00     0.069 C
HETATM   33  C7  UNL     1      16.371  46.127  40.610  1.00  0.00     0.004 C
BRANCH  33  34
HETATM   34  C8  UNL     1      17.103  47.367  40.739  1.00  0.00     0.113 C
HETATM   35 BR1  UNL     1      16.070  48.856  39.985  1.00  0.00    -0.092 Br
ENDBRANCH  33  34
BRANCH  32  36
HETATM   36  C9  UNL     1      15.598  43.923  40.771  1.00  0.00     0.125 C
HETATM   37  N2  UNL     1      14.611  43.580  41.453  1.00  0.00    -0.387 N
ATOM     38  H22 UNL     1      14.456  44.041  42.349  1.00  0.00     0.157 HD
ATOM     39  H21 UNL     1      13.944  42.862  41.171  1.00  0.00     0.157 HD
HETATM   40  N3  UNL     1      15.818  43.273  39.505  1.00  0.00    -0.082 NA
ENDBRANCH  32  36
ENDBRANCH  29  32
ENDBRANCH  24  28
ENDBRANCH   1  24
TORSDOF 13
ENDMDL