MODEL 3
REMARK VINA RESULT: -6.762672830      1.940      2.837
REMARK  10 active torsions:
REMARK  status: ('A' for Active; 'I' for Inactive)
REMARK    1  A    between atoms: C2_2  and  C3_3
REMARK    2  A    between atoms: C3_3  and  C4_4
REMARK    3  A    between atoms: C4_4  and  C5_5
REMARK    4  A    between atoms: C5_5  and  C6_6
REMARK    5  A    between atoms: C6_6  and  C7_7
REMARK    6  A    between atoms: C8_11  and  C9_12
REMARK    7  A    between atoms: C12_16  and  C13_17
REMARK    8  A    between atoms: C13_17  and  C14_18
REMARK    9  A    between atoms: C14_18  and  C15_19
REMARK   10  A    between atoms: C16_20  and  N2_21
REMARK       I    between atoms: N4_31  and  C22_32
ROOT
HETATM    1  C13 UNL     1      23.071  47.592  42.236  1.00  0.00     0.031 C
ENDROOT
BRANCH   1   2
HETATM    2  C12 UNL     1      23.573  48.348  43.457  1.00  0.00     0.115 C
HETATM    3  C8  UNL     1      24.171  47.504  44.530  1.00  0.00     0.216 C
HETATM    4  N1  UNL     1      24.711  48.445  45.512  1.00  0.00    -0.056 N
HETATM    5  C7  UNL     1      23.689  49.203  46.197  1.00  0.00     0.277 C
ATOM      6  H12 UNL     1      25.396  49.067  45.081  1.00  0.00     0.278 HD
ATOM      7  H11 UNL     1      25.316  47.966  46.179  1.00  0.00     0.278 HD
HETATM    8  C25 UNL     1      22.629  49.666  45.320  1.00  0.00     0.248 C
HETATM    9  N7  UNL     1      22.438  49.066  44.056  1.00  0.00    -0.353 N
HETATM   10  O3  UNL     1      21.868  50.592  45.650  1.00  0.00    -0.271 OA
ATOM     11  H7  UNL     1      21.540  49.127  43.575  1.00  0.00     0.163 HD
BRANCH   3  12
HETATM   12  C9  UNL     1      25.386  46.733  44.036  1.00  0.00     0.055 A
HETATM   13  C10 UNL     1      26.371  46.161  45.020  1.00  0.00     0.047 A
HETATM   14  C11 UNL     1      25.411  45.232  44.374  1.00  0.00     0.176 A
HETATM   15  F1  UNL     1      24.458  44.718  45.211  1.00  0.00    -0.249 F
ENDBRANCH   3  12
BRANCH   5  16
HETATM   16  C6  UNL     1      23.226  48.331  47.362  1.00  0.00     0.043 C
BRANCH  16  17
HETATM   17  C5  UNL     1      23.708  48.800  48.665  1.00  0.00     0.002 C
BRANCH  17  18
HETATM   18  C4  UNL     1      23.291  50.152  49.063  1.00  0.00     0.000 C
BRANCH  18  19
HETATM   19  C3  UNL     1      23.493  50.720  50.386  1.00  0.00    -0.000 C
BRANCH  19  20
HETATM   20  C2  UNL     1      23.691  49.805  51.547  1.00  0.00    -0.005 C
HETATM   21  C1  UNL     1      22.489  48.950  51.824  1.00  0.00     0.005 C
ENDBRANCH  19  20
ENDBRANCH  18  19
ENDBRANCH  17  18
ENDBRANCH  16  17
ENDBRANCH   5  16
ENDBRANCH   1   2
BRANCH   1  22
HETATM   22  C14 UNL     1      21.869  46.787  42.501  1.00  0.00     0.030 C
BRANCH  22  23
HETATM   23  C15 UNL     1      22.001  45.337  42.430  1.00  0.00    -0.009 C
HETATM   24  C16 UNL     1      22.075  44.413  43.538  1.00  0.00     0.093 C
BRANCH  24  25
HETATM   25  N2  UNL     1      21.108  44.225  44.535  1.00  0.00    -0.292 N
HETATM   26  C17 UNL     1      21.212  43.331  45.653  1.00  0.00     0.317 C
HETATM   27  O1  UNL     1      21.904  42.258  45.720  1.00  0.00    -0.262 OA
HETATM   28  C18 UNL     1      20.368  43.895  46.698  1.00  0.00     0.311 C
HETATM   29  O2  UNL     1      20.175  43.418  47.856  1.00  0.00    -0.262 OA
HETATM   30  N3  UNL     1      19.804  45.098  46.146  1.00  0.00    -0.326 N
HETATM   31  C19 UNL     1      19.779  44.827  44.719  1.00  0.00     0.118 C
ATOM     32  H3  UNL     1      19.496  45.938  46.637  1.00  0.00     0.165 HD
HETATM   33  C20 UNL     1      19.556  46.092  44.001  1.00  0.00     0.074 C
HETATM   34  C24 UNL     1      18.708  43.786  44.492  1.00  0.00     0.074 C
HETATM   35  C21 UNL     1      18.964  45.964  42.623  1.00  0.00     0.129 C
HETATM   36  N4  UNL     1      17.997  44.904  42.520  1.00  0.00    -0.356 N
HETATM   37  C22 UNL     1      16.700  45.045  41.983  1.00  0.00     0.183 C
HETATM   38  C23 UNL     1      18.418  43.586  43.020  1.00  0.00     0.129 C
HETATM   39  N5  UNL     1      15.749  44.340  42.494  1.00  0.00    -0.374 N
HETATM   40  N6  UNL     1      16.365  45.916  40.911  1.00  0.00    -0.064 NA
ATOM     41  H52 UNL     1      15.989  43.715  43.263  1.00  0.00     0.158 HD
ATOM     42  H51 UNL     1      14.811  44.442  42.105  1.00  0.00     0.158 HD
ENDBRANCH  24  25
ENDBRANCH  22  23
ENDBRANCH   1  22
TORSDOF 10
ENDMDL