MODEL 5
REMARK VINA RESULT: -8.220081620      1.271      1.787
REMARK  14 active torsions:
REMARK  status: ('A' for Active; 'I' for Inactive)
REMARK    1  A    between atoms: C3_3  and  C4_5
REMARK    2  A    between atoms: C4_5  and  N2_9
REMARK    3  A    between atoms: C5_11  and  N3_12
REMARK    4  A    between atoms: C5_11  and  C15_27
REMARK    5  A    between atoms: N3_12  and  C6_14
REMARK    6  A    between atoms: C6_14  and  C7_15
REMARK       I    between atoms: C7_15  and  N4_17
REMARK    7  A    between atoms: N4_17  and  C8_19
REMARK    8  A    between atoms: C8_19  and  C9_20
REMARK    9  A    between atoms: C15_27  and  N6_29
REMARK       I    between atoms: N6_29  and  C17_31
REMARK   10  A    between atoms: C17_31  and  C18_33
REMARK   11  A    between atoms: C18_33  and  C19_34
REMARK   12  A    between atoms: C19_34  and  C20_35
REMARK   13  A    between atoms: C19_34  and  C24_39
REMARK   14  A    between atoms: C20_35  and  C21_36
ROOT
HETATM    1  N2  UNL     1      22.963  46.709  43.738  1.00  0.00    -0.330 N
ATOM      2  H2  UNL     1      23.551  47.502  43.995  1.00  0.00     0.168 HD
HETATM    3  C5  UNL     1      21.706  46.918  43.745  1.00  0.00     0.102 C
ENDROOT
BRANCH   3   4
HETATM    4  N3  UNL     1      20.802  45.899  43.407  1.00  0.00    -0.369 N
ATOM      5  H3  UNL     1      20.521  45.854  42.428  1.00  0.00     0.161 HD
BRANCH   4   6
HETATM    6  C6  UNL     1      20.230  44.920  44.273  1.00  0.00     0.223 C
BRANCH   6   7
HETATM    7  C7  UNL     1      18.827  44.579  44.037  1.00  0.00     0.235 C
HETATM    8  O1  UNL     1      18.012  44.575  44.976  1.00  0.00    -0.272 OA
HETATM    9  N4  UNL     1      18.323  44.238  42.740  1.00  0.00    -0.358 N
ATOM     10  H4  UNL     1      18.972  44.232  41.953  1.00  0.00     0.162 HD
BRANCH   9  11
HETATM   11  C8  UNL     1      16.936  43.902  42.493  1.00  0.00     0.156 C
BRANCH  11  12
HETATM   12  C9  UNL     1      16.303  45.089  41.834  1.00  0.00     0.207 C
HETATM   13  C10 UNL     1      17.260  46.110  41.333  1.00  0.00     0.037 C
HETATM   14  C11 UNL     1      16.375  46.991  40.480  1.00  0.00     0.030 C
HETATM   15  C12 UNL     1      15.398  45.997  39.907  1.00  0.00     0.237 C
HETATM   16  N5  UNL     1      15.406  44.826  40.770  1.00  0.00    -0.069 N
HETATM   17  C13 UNL     1      14.038  44.688  41.288  1.00  0.00     0.272 C
HETATM   18  C14 UNL     1      15.665  43.663  39.988  1.00  0.00     0.272 C
ENDBRANCH  11  12
ENDBRANCH   9  11
ENDBRANCH   6   7
ENDBRANCH   4   6
ENDBRANCH   3   4
BRANCH   3  19
HETATM   19  C15 UNL     1      21.227  48.290  44.115  1.00  0.00     0.148 C
HETATM   20  C16 UNL     1      19.885  48.240  44.803  1.00  0.00     0.040 C
BRANCH  19  21
HETATM   21  N6  UNL     1      22.145  49.042  44.913  1.00  0.00    -0.350 N
HETATM   22  C17 UNL     1      22.538  48.551  46.200  1.00  0.00     0.219 C
HETATM   23  O2  UNL     1      22.065  47.465  46.585  1.00  0.00    -0.274 OA
ATOM     24  H6  UNL     1      22.519  49.925  44.566  1.00  0.00     0.163 HD
BRANCH  22  25
HETATM   25  C18 UNL     1      23.464  49.327  47.002  1.00  0.00     0.116 C
BRANCH  25  26
HETATM   26  C19 UNL     1      22.845  50.578  47.644  1.00  0.00     0.084 C
BRANCH  26  27
HETATM   27  C20 UNL     1      23.665  50.864  48.848  1.00  0.00     0.018 C
BRANCH  27  28
HETATM   28  C21 UNL     1      23.099  50.548  50.174  1.00  0.00    -0.022 C
HETATM   29  C22 UNL     1      23.014  49.007  50.249  1.00  0.00     0.009 C
HETATM   30  C23 UNL     1      23.862  50.967  51.376  1.00  0.00     0.009 C
ENDBRANCH  27  28
ENDBRANCH  26  27
BRANCH  26  31
HETATM   31  C24 UNL     1      22.793  51.616  46.618  1.00  0.00     0.235 C
HETATM   32  N7  UNL     1      23.944  52.342  46.216  1.00  0.00    -0.062 NA
HETATM   33  O3  UNL     1      21.694  51.909  46.036  1.00  0.00    -0.276 OA
ENDBRANCH  26  31
ENDBRANCH  25  26
ENDBRANCH  22  25
ENDBRANCH  19  21
ENDBRANCH   3  19
BRANCH   1  34
HETATM   34  C4  UNL     1      23.639  45.522  43.419  1.00  0.00     0.121 C
HETATM   35  N1  UNL     1      23.476  44.987  42.233  1.00  0.00    -0.384 N
ATOM     36  H12 UNL     1      23.968  44.123  42.001  1.00  0.00     0.157 HD
ATOM     37  H11 UNL     1      22.856  45.463  41.578  1.00  0.00     0.157 HD
BRANCH  34  38
HETATM   38  C3  UNL     1      24.515  44.849  44.345  1.00  0.00     0.073 C
HETATM   39  C2  UNL     1      24.235  43.837  45.120  1.00  0.00    -0.003 C
HETATM   40  C1  UNL     1      22.911  43.211  45.170  1.00  0.00     0.038 C
HETATM   41 CL1  UNL     1      26.191  45.451  44.449  1.00  0.00    -0.081 Cl
ENDBRANCH  34  38
ENDBRANCH   1  34
TORSDOF 14
ENDMDL