MODEL 4
REMARK VINA RESULT: -9.321401178      3.402      8.433
REMARK  11 active torsions:
REMARK  status: ('A' for Active; 'I' for Inactive)
REMARK    1  A    between atoms: C2_2  and  C4_4
REMARK    2  A    between atoms: C4_4  and  C5_5
REMARK    3  A    between atoms: C9_12  and  C10_13
REMARK    4  A    between atoms: C10_13  and  C11_14
REMARK    5  A    between atoms: C11_14  and  C12_15
REMARK    6  A    between atoms: C12_15  and  N2_16
REMARK    7  A    between atoms: C15_25  and  C16_26
REMARK    8  A    between atoms: C16_26  and  C17_27
REMARK    9  A    between atoms: C21_31  and  C22_32
REMARK   10  A    between atoms: C22_32  and  C23_33
REMARK   11  A    between atoms: C23_33  and  C24_34
ROOT
HETATM    1  C5  UNL     1      23.341  43.982  44.228  1.00  0.00    -0.010 C
HETATM    2  C6  UNL     1      24.476  44.924  44.168  1.00  0.00     0.062 C
HETATM    3  C7  UNL     1      24.755  45.808  45.310  1.00  0.00     0.108 C
HETATM    4  C8  UNL     1      24.952  47.202  44.815  1.00  0.00     0.218 C
HETATM    5  O1  UNL     1      26.149  47.523  44.493  1.00  0.00    -0.274 OA
HETATM    6  N1  UNL     1      23.935  48.166  44.681  1.00  0.00    -0.348 N
ATOM      7  H1  UNL     1      23.888  48.661  43.791  1.00  0.00     0.163 HD
HETATM    8  C9  UNL     1      22.960  48.524  45.672  1.00  0.00     0.176 C
HETATM    9  C14 UNL     1      21.996  47.474  45.997  1.00  0.00     0.241 C
HETATM   10  O2  UNL     1      21.704  47.325  47.238  1.00  0.00    -0.271 OA
HETATM   11  N5  UNL     1      21.354  46.613  45.115  1.00  0.00    -0.346 N
ATOM     12  H5  UNL     1      20.912  45.793  45.532  1.00  0.00     0.163 HD
HETATM   13  C15 UNL     1      21.233  46.737  43.673  1.00  0.00     0.181 C
HETATM   14  C26 UNL     1      21.732  45.547  42.949  1.00  0.00     0.244 C
HETATM   15  O3  UNL     1      21.743  45.701  41.666  1.00  0.00    -0.271 OA
HETATM   16  N6  UNL     1      22.173  44.324  43.453  1.00  0.00    -0.333 N
ATOM     17  H6  UNL     1      21.565  43.534  43.237  1.00  0.00     0.168 HD
ENDROOT
BRANCH  13  18
HETATM   18  C16 UNL     1      19.766  47.030  43.469  1.00  0.00     0.073 C
BRANCH  18  19
HETATM   19  C17 UNL     1      18.872  45.893  43.394  1.00  0.00    -0.055 A
HETATM   20  C18 UNL     1      18.749  45.000  44.429  1.00  0.00     0.007 A
HETATM   21  C19 UNL     1      17.898  43.915  44.293  1.00  0.00     0.001 A
HETATM   22  C20 UNL     1      17.163  43.688  43.159  1.00  0.00     0.007 A
HETATM   23  C21 UNL     1      17.287  44.595  42.105  1.00  0.00    -0.058 A
HETATM   24  C25 UNL     1      18.136  45.672  42.249  1.00  0.00     0.014 A
BRANCH  23  25
HETATM   25  C22 UNL     1      16.521  44.412  40.847  1.00  0.00     0.039 C
BRANCH  25  26
HETATM   26  C23 UNL     1      15.022  44.461  41.105  1.00  0.00     0.020 C
BRANCH  26  27
HETATM   27  C24 UNL     1      14.586  45.863  41.437  1.00  0.00     0.115 C
HETATM   28 CL1  UNL     1      15.278  47.028  40.272  1.00  0.00    -0.130 Cl
ENDBRANCH  26  27
ENDBRANCH  25  26
ENDBRANCH  23  25
ENDBRANCH  18  19
ENDBRANCH  13  18
BRANCH   8  29
HETATM   29  C10 UNL     1      23.608  49.038  46.947  1.00  0.00     0.036 C
BRANCH  29  30
HETATM   30  C11 UNL     1      23.190  50.449  47.276  1.00  0.00     0.022 C
BRANCH  30  31
HETATM   31  C12 UNL     1      23.463  50.832  48.701  1.00  0.00     0.122 C
BRANCH  31  32
HETATM   32  N2  UNL     1      22.959  49.770  49.544  1.00  0.00    -0.367 N
HETATM   33  C13 UNL     1      23.024  49.825  50.835  1.00  0.00     0.196 C
HETATM   34  N3  UNL     1      23.615  50.981  51.412  1.00  0.00    -0.067 NA
HETATM   35  N4  UNL     1      22.529  48.782  51.663  1.00  0.00    -0.067 NA
ATOM     36  H2  UNL     1      22.539  48.951  49.107  1.00  0.00     0.161 HD
ENDBRANCH  31  32
ENDBRANCH  30  31
ENDBRANCH  29  30
ENDBRANCH   8  29
BRANCH   1  37
HETATM   37  C4  UNL     1      22.982  43.433  45.580  1.00  0.00     0.056 C
BRANCH  37  38
HETATM   38  C2  UNL     1      21.580  42.885  45.646  1.00  0.00    -0.018 C
HETATM   39  C1  UNL     1      21.691  41.404  46.037  1.00  0.00     0.010 C
HETATM   40  C3  UNL     1      20.711  43.543  46.655  1.00  0.00     0.010 C
ENDBRANCH  37  38
ENDBRANCH   1  37
TORSDOF 11
ENDMDL