MODEL 3
REMARK VINA RESULT: -2.682238831      3.603      7.133
REMARK  11 active torsions:
REMARK  status: ('A' for Active; 'I' for Inactive)
REMARK    1  A    between atoms: C2_2  and  C3_3
REMARK    2  A    between atoms: C3_3  and  C5_5
REMARK    3  A    between atoms: C6_8  and  O1_9
REMARK    4  A    between atoms: C7_11  and  C8_12
REMARK    5  A    between atoms: C8_12  and  C9_13
REMARK    6  A    between atoms: C13_20  and  C14_21
REMARK    7  A    between atoms: C14_21  and  C15_22
REMARK    8  A    between atoms: C15_22  and  N3_23
REMARK    9  A    between atoms: C16_25  and  C17_26
REMARK   10  A    between atoms: C17_26  and  C18_27
REMARK   11  A    between atoms: C23_33  and  C24_34
ROOT
HETATM    1  C5  UNL     1      23.177  45.042  43.514  1.00  0.00     0.083 C
HETATM    2  N1  UNL     1      24.619  45.000  43.720  1.00  0.00    -0.337 N
ATOM      3  H1  UNL     1      24.996  44.054  43.785  1.00  0.00     0.167 HD
HETATM    4  C6  UNL     1      25.574  45.983  43.845  1.00  0.00     0.139 C
HETATM    5  C7  UNL     1      25.852  46.998  44.891  1.00  0.00     0.159 C
HETATM    6  N2  UNL     1      25.136  46.788  46.116  1.00  0.00    -0.349 N
ATOM      7  H2  UNL     1      25.235  45.868  46.546  1.00  0.00     0.163 HD
HETATM    8  C12 UNL     1      24.311  47.707  46.792  1.00  0.00     0.222 C
HETATM    9  O2  UNL     1      24.108  47.595  48.045  1.00  0.00    -0.273 OA
HETATM   10  C13 UNL     1      23.623  48.856  46.147  1.00  0.00     0.084 C
HETATM   11  C19 UNL     1      22.151  48.480  46.130  1.00  0.00     0.039 C
HETATM   12  C20 UNL     1      21.825  47.831  44.806  1.00  0.00     0.089 C
HETATM   13  C21 UNL     1      20.588  48.461  44.237  1.00  0.00     0.028 C
HETATM   14  C22 UNL     1      19.441  47.541  44.563  1.00  0.00     0.037 C
HETATM   15  C23 UNL     1      20.122  46.515  45.469  1.00  0.00     0.177 C
HETATM   16  N5  UNL     1      21.471  46.396  44.975  1.00  0.00    -0.329 N
HETATM   17  C25 UNL     1      22.384  45.360  44.686  1.00  0.00     0.267 C
HETATM   18  O4  UNL     1      22.551  44.524  45.662  1.00  0.00    -0.266 OA
ENDROOT
BRANCH  10  19
HETATM   19  C14 UNL     1      23.949  50.054  46.966  1.00  0.00     0.058 C
BRANCH  19  20
HETATM   20  C15 UNL     1      22.714  50.838  47.403  1.00  0.00     0.061 C
BRANCH  20  21
HETATM   21  N3  UNL     1      22.885  51.178  48.732  1.00  0.00    -0.382 N
HETATM   22  C16 UNL     1      23.528  50.467  49.704  1.00  0.00     0.061 C
ATOM     23  H3  UNL     1      22.483  52.069  49.021  1.00  0.00     0.163 HD
BRANCH  22  24
HETATM   24  C17 UNL     1      23.041  49.213  50.284  1.00  0.00     0.059 C
BRANCH  24  25
HETATM   25  C18 UNL     1      22.719  49.239  51.753  1.00  0.00     0.119 C
HETATM   26 CL1  UNL     1      21.487  48.007  52.164  1.00  0.00    -0.130 Cl
ENDBRANCH  24  25
ENDBRANCH  22  24
ENDBRANCH  20  21
ENDBRANCH  19  20
ENDBRANCH  10  19
BRANCH   5  27
HETATM   27  C8  UNL     1      27.305  47.283  45.121  1.00  0.00     0.037 C
BRANCH  27  28
HETATM   28  C9  UNL     1      28.332  46.293  44.917  1.00  0.00    -0.020 C
HETATM   29  C10 UNL     1      28.159  44.866  45.207  1.00  0.00     0.009 C
HETATM   30  C11 UNL     1      29.660  46.733  45.572  1.00  0.00     0.009 C
ENDBRANCH  27  28
ENDBRANCH   5  27
BRANCH   4  31
HETATM   31  O1  UNL     1      26.458  46.124  42.897  1.00  0.00    -0.348 OA
ATOM     32  H1  UNL     1      27.329  46.428  43.125  1.00  0.00     0.219 HD
ENDBRANCH   4  31
BRANCH  15  33
HETATM   33  C24 UNL     1      19.325  45.337  45.661  1.00  0.00     0.254 C
HETATM   34  N4  UNL     1      18.347  44.869  44.769  1.00  0.00    -0.060 NA
HETATM   35  O3  UNL     1      19.482  44.627  46.716  1.00  0.00    -0.275 OA
ENDBRANCH  15  33
BRANCH   1  36
HETATM   36  C3  UNL     1      22.807  45.684  42.205  1.00  0.00     0.037 C
HETATM   37  C4  UNL     1      21.366  45.523  41.880  1.00  0.00     0.016 C
BRANCH  36  38
HETATM   38  C2  UNL     1      23.524  44.815  41.136  1.00  0.00     0.006 C
HETATM   39  C1  UNL     1      23.306  45.474  39.816  1.00  0.00     0.006 C
ENDBRANCH  36  38
ENDBRANCH   1  36
TORSDOF 11
ENDMDL