MODEL 3
REMARK VINA RESULT: -5.489681605      3.875      6.048
REMARK  11 active torsions:
REMARK  status: ('A' for Active; 'I' for Inactive)
REMARK    1  A    between atoms: C2_2  and  C4_4
REMARK    2  A    between atoms: C4_4  and  C5_5
REMARK    3  A    between atoms: N2_10  and  C8_11
REMARK    4  A    between atoms: C8_11  and  C9_12
REMARK    5  A    between atoms: C9_12  and  C10_13
REMARK    6  A    between atoms: C10_13  and  C11_14
REMARK    7  A    between atoms: C11_14  and  N3_15
REMARK    8  A    between atoms: N3_15  and  C12_17
REMARK    9  A    between atoms: C12_17  and  C13_18
REMARK   10  A    between atoms: C16_26  and  C18_28
REMARK   11  A    between atoms: C18_28  and  C19_29
ROOT
HETATM    1  C5  UNL     1      21.800  48.006  45.060  1.00  0.00     0.086 A
HETATM    2  N1  UNL     1      20.732  47.363  45.541  1.00  0.00    -0.338 N
ATOM      3  H1  UNL     1      20.325  47.536  46.460  1.00  0.00     0.167 HD
HETATM    4  C6  UNL     1      20.254  46.448  44.654  1.00  0.00     0.146 A
HETATM    5  C7  UNL     1      21.101  46.549  43.558  1.00  0.00     0.139 A
HETATM    6  N2  UNL     1      22.021  47.487  43.817  1.00  0.00    -0.321 N
HETATM    7  N4  UNL     1      20.824  45.685  42.455  1.00  0.00    -0.351 N
ATOM      8  H4  UNL     1      21.523  45.609  41.716  1.00  0.00     0.163 HD
HETATM    9  C14 UNL     1      19.630  44.924  42.330  1.00  0.00     0.206 C
HETATM   10  C15 UNL     1      18.601  45.601  41.402  1.00  0.00     0.161 C
HETATM   11  N5  UNL     1      17.641  44.575  41.107  1.00  0.00    -0.409 N
ATOM     12  H5  UNL     1      17.810  43.879  40.380  1.00  0.00     0.154 HD
HETATM   13  C16 UNL     1      16.449  44.572  41.872  1.00  0.00     0.031 C
HETATM   14  C17 UNL     1      15.829  45.958  41.921  1.00  0.00     0.038 C
HETATM   15  C20 UNL     1      16.545  44.084  43.277  1.00  0.00     0.050 C
HETATM   16  C21 UNL     1      17.897  43.682  43.750  1.00  0.00     0.131 C
HETATM   17  N7  UNL     1      18.900  44.699  43.552  1.00  0.00    -0.324 N
HETATM   18  C22 UNL     1      19.138  45.518  44.669  1.00  0.00     0.276 C
HETATM   19  O2  UNL     1      18.401  45.462  45.682  1.00  0.00    -0.266 OA
ENDROOT
BRANCH   6  20
HETATM   20  C8  UNL     1      23.074  47.897  42.949  1.00  0.00     0.132 C
BRANCH  20  21
HETATM   21  C9  UNL     1      24.055  46.835  42.571  1.00  0.00     0.025 C
BRANCH  21  22
HETATM   22  C10 UNL     1      25.165  46.858  43.619  1.00  0.00     0.046 C
BRANCH  22  23
HETATM   23  C11 UNL     1      24.799  46.107  44.844  1.00  0.00     0.060 C
BRANCH  23  24
HETATM   24  N3  UNL     1      25.135  44.751  44.825  1.00  0.00    -0.382 N
ATOM     25  H3  UNL     1      26.126  44.512  44.809  1.00  0.00     0.164 HD
BRANCH  24  26
HETATM   26  C12 UNL     1      24.228  43.710  44.828  1.00  0.00     0.071 C
BRANCH  26  27
HETATM   27  C13 UNL     1      22.765  43.947  44.807  1.00  0.00     0.129 C
HETATM   28 BR1  UNL     1      21.773  42.714  45.900  1.00  0.00    -0.091 Br
ENDBRANCH  26  27
ENDBRANCH  24  26
ENDBRANCH  23  24
ENDBRANCH  22  23
ENDBRANCH  21  22
ENDBRANCH  20  21
ENDBRANCH   6  20
BRANCH   1  29
HETATM   29  C4  UNL     1      22.603  49.080  45.697  1.00  0.00     0.080 C
BRANCH  29  30
HETATM   30  C2  UNL     1      22.413  50.410  45.063  1.00  0.00    -0.016 C
HETATM   31  C1  UNL     1      22.830  51.492  46.040  1.00  0.00     0.010 C
HETATM   32  C3  UNL     1      21.005  50.630  44.566  1.00  0.00     0.010 C
ENDBRANCH  29  30
ENDBRANCH   1  29
BRANCH  13  33
HETATM   33  C18 UNL     1      15.460  43.667  41.110  1.00  0.00     0.129 C
BRANCH  33  34
HETATM   34  C19 UNL     1      15.714  43.700  39.660  1.00  0.00     0.233 C
HETATM   35  N6  UNL     1      15.819  42.496  38.944  1.00  0.00    -0.062 NA
HETATM   36  O1  UNL     1      15.839  44.787  39.056  1.00  0.00    -0.277 OA
ENDBRANCH  33  34
ENDBRANCH  13  33
TORSDOF 11
ENDMDL