MODEL 4
REMARK VINA RESULT: -9.982171024      3.463      9.101
REMARK  11 active torsions:
REMARK  status: ('A' for Active; 'I' for Inactive)
REMARK    1  A    between atoms: C2_2  and  C3_3
REMARK    2  A    between atoms: C6_6  and  S1_7
REMARK    3  A    between atoms: S1_7  and  N1_10
REMARK    4  A    between atoms: N1_10  and  C7_12
REMARK    5  A    between atoms: C7_12  and  C8_13
REMARK    6  A    between atoms: C15_20  and  C16_21
REMARK    7  A    between atoms: C16_21  and  N2_22
REMARK    8  A    between atoms: N2_22  and  C17_23
REMARK       I    between atoms: N2_22  and  C21_31
REMARK    9  A    between atoms: C17_23  and  C18_24
REMARK   10  A    between atoms: C18_24  and  C19_25
REMARK   11  A    between atoms: C19_25  and  N3_26
ROOT
HETATM    1  C8  UNL     1      20.875  45.308  44.698  1.00  0.00    -0.000 A
HETATM    2  C9  UNL     1      21.729  44.519  43.980  1.00  0.00     0.013 A
HETATM    3  C10 UNL     1      22.756  45.119  43.323  1.00  0.00     0.013 A
HETATM    4  C11 UNL     1      22.980  46.501  43.353  1.00  0.00    -0.022 A
HETATM    5  C12 UNL     1      24.060  47.034  42.695  1.00  0.00     0.012 A
HETATM    6  C13 UNL     1      24.274  48.379  42.781  1.00  0.00     0.002 A
HETATM    7  C14 UNL     1      23.417  49.162  43.511  1.00  0.00     0.010 A
HETATM    8  C15 UNL     1      22.327  48.665  44.180  1.00  0.00    -0.026 A
HETATM    9  C22 UNL     1      22.081  47.275  44.106  1.00  0.00     0.021 A
HETATM   10  C23 UNL     1      21.041  46.688  44.766  1.00  0.00     0.136 A
HETATM   11  F1  UNL     1      20.164  47.426  45.469  1.00  0.00    -0.205 F
ENDROOT
BRANCH   8  12
HETATM   12  C16 UNL     1      21.406  49.480  44.945  1.00  0.00     0.165 C
BRANCH  12  13
HETATM   13  N2  UNL     1      22.188  50.313  45.907  1.00  0.00    -0.352 N
HETATM   14  C21 UNL     1      22.192  51.722  45.798  1.00  0.00     0.184 C
HETATM   15  N6  UNL     1      23.188  52.468  45.564  1.00  0.00    -0.374 N
HETATM   16  N7  UNL     1      20.904  52.347  45.961  1.00  0.00    -0.064 NA
ATOM     17  H62 UNL     1      24.100  52.026  45.448  1.00  0.00     0.158 HD
ATOM     18  H61 UNL     1      23.190  53.485  45.486  1.00  0.00     0.158 HD
BRANCH  13  19
HETATM   19  C17 UNL     1      22.915  49.663  46.951  1.00  0.00     0.127 C
BRANCH  19  20
HETATM   20  C18 UNL     1      23.207  50.362  48.210  1.00  0.00     0.039 C
BRANCH  20  21
HETATM   21  C19 UNL     1      23.865  49.593  49.305  1.00  0.00     0.123 C
BRANCH  21  22
HETATM   22  N3  UNL     1      22.868  48.847  50.072  1.00  0.00    -0.367 N
HETATM   23  C20 UNL     1      22.631  49.026  51.311  1.00  0.00     0.196 C
HETATM   24  N4  UNL     1      21.672  48.295  52.022  1.00  0.00    -0.067 NA
HETATM   25  N5  UNL     1      23.369  50.016  52.031  1.00  0.00    -0.067 NA
ATOM     26  H3  UNL     1      22.327  48.135  49.583  1.00  0.00     0.161 HD
ENDBRANCH  21  22
ENDBRANCH  20  21
ENDBRANCH  19  20
ENDBRANCH  13  19
ENDBRANCH  12  13
ENDBRANCH   8  12
BRANCH   1  27
HETATM   27  C7  UNL     1      19.703  44.731  45.428  1.00  0.00     0.174 C
BRANCH  27  28
HETATM   28  N1  UNL     1      18.507  45.211  44.731  1.00  0.00    -0.311 N
ATOM     29  H1  UNL     1      18.096  46.140  44.824  1.00  0.00     0.172 HD
BRANCH  28  30
HETATM   30  S1  UNL     1      17.911  43.936  43.727  1.00  0.00     0.259 S
HETATM   31  O1  UNL     1      17.018  43.068  44.574  1.00  0.00    -0.201 OA
HETATM   32  O2  UNL     1      19.008  43.149  43.107  1.00  0.00    -0.201 OA
BRANCH  30  33
HETATM   33  C6  UNL     1      16.915  44.732  42.499  1.00  0.00     0.079 A
HETATM   34  C5  UNL     1      15.659  44.298  42.191  1.00  0.00     0.026 A
HETATM   35  C4  UNL     1      14.945  44.998  41.215  1.00  0.00     0.009 A
HETATM   36  C3  UNL     1      15.472  46.091  40.575  1.00  0.00    -0.058 A
HETATM   37  C25 UNL     1      16.754  46.514  40.907  1.00  0.00     0.009 A
HETATM   38  C24 UNL     1      17.467  45.838  41.862  1.00  0.00     0.026 A
BRANCH  36  39
HETATM   39  C2  UNL     1      14.651  46.783  39.555  1.00  0.00     0.034 C
HETATM   40  C1  UNL     1      13.422  47.433  40.107  1.00  0.00     0.010 C
ENDBRANCH  36  39
ENDBRANCH  30  33
ENDBRANCH  28  30
ENDBRANCH  27  28
ENDBRANCH   1  27
TORSDOF 11
ENDMDL