MODEL 5
REMARK VINA RESULT: -8.334395375      3.954      5.329
REMARK  13 active torsions:
REMARK  status: ('A' for Active; 'I' for Inactive)
REMARK       I    between atoms: C2_2  and  N1_4
REMARK    1  A    between atoms: N1_4  and  C3_6
REMARK    2  A    between atoms: C4_9  and  C5_10
REMARK    3  A    between atoms: C5_10  and  C6_11
REMARK    4  A    between atoms: C6_11  and  N3_12
REMARK    5  A    between atoms: N3_12  and  C8_14
REMARK    6  A    between atoms: C8_14  and  C9_15
REMARK    7  A    between atoms: C9_15  and  N4_16
REMARK    8  A    between atoms: C12_23  and  O2_24
REMARK    9  A    between atoms: O2_24  and  C13_25
REMARK   10  A    between atoms: C13_25  and  C14_26
REMARK       I    between atoms: C14_26  and  N5_28
REMARK   11  A    between atoms: N5_28  and  C15_30
REMARK   12  A    between atoms: C15_30  and  C16_31
REMARK   13  A    between atoms: C16_31  and  C17_32
ROOT
HETATM    1  C3  UNL     1      23.246  50.310  47.443  1.00  0.00     0.143 A
HETATM    2  N2  UNL     1      23.634  51.557  47.216  1.00  0.00    -0.344 N
ATOM      3  H2  UNL     1      24.266  52.017  47.872  1.00  0.00     0.167 HD
HETATM    4  C4  UNL     1      23.205  52.219  46.133  1.00  0.00     0.013 A
HETATM    5  C10 UNL     1      22.341  51.592  45.235  1.00  0.00     0.047 A
HETATM    6  C11 UNL     1      21.924  50.295  45.452  1.00  0.00     0.050 A
HETATM    7 BR1  UNL     1      20.744  49.421  44.237  1.00  0.00    -0.048 Br
HETATM    8  C12 UNL     1      22.380  49.635  46.574  1.00  0.00     0.130 A
ENDROOT
BRANCH   8   9
HETATM    9  O2  UNL     1      21.967  48.336  46.799  1.00  0.00    -0.337 OA
BRANCH   9  10
HETATM   10  C13 UNL     1      22.462  47.255  46.066  1.00  0.00     0.278 C
BRANCH  10  11
HETATM   11  C14 UNL     1      21.336  46.348  45.619  1.00  0.00     0.241 C
HETATM   12  O3  UNL     1      20.390  46.104  46.422  1.00  0.00    -0.271 OA
HETATM   13  N5  UNL     1      21.420  45.826  44.315  1.00  0.00    -0.359 N
ATOM     14  H5  UNL     1      22.226  46.078  43.743  1.00  0.00     0.162 HD
BRANCH  13  15
HETATM   15  C15 UNL     1      20.425  44.955  43.745  1.00  0.00     0.127 C
BRANCH  15  16
HETATM   16  C16 UNL     1      19.443  45.735  42.943  1.00  0.00     0.060 C
BRANCH  16  17
HETATM   17  C17 UNL     1      18.143  45.015  42.799  1.00  0.00    -0.029 A
HETATM   18  C18 UNL     1      17.694  43.884  43.432  1.00  0.00     0.096 A
HETATM   19  N6  UNL     1      16.446  43.611  42.966  1.00  0.00    -0.365 N
HETATM   20  C19 UNL     1      16.078  44.526  42.056  1.00  0.00     0.042 A
ATOM     21  H6  UNL     1      15.872  42.823  43.264  1.00  0.00     0.165 HD
HETATM   22  C20 UNL     1      14.955  44.738  41.281  1.00  0.00     0.030 A
HETATM   23  C24 UNL     1      17.124  45.393  41.952  1.00  0.00    -0.002 A
HETATM   24  C21 UNL     1      14.848  45.791  40.407  1.00  0.00     0.002 A
HETATM   25  C22 UNL     1      15.917  46.670  40.306  1.00  0.00     0.001 A
HETATM   26  C23 UNL     1      17.047  46.466  41.079  1.00  0.00     0.014 A
ENDBRANCH  16  17
ENDBRANCH  15  16
ENDBRANCH  13  15
ENDBRANCH  10  11
ENDBRANCH   9  10
ENDBRANCH   8   9
BRANCH   1  27
HETATM   27  N1  UNL     1      23.643  49.666  48.456  1.00  0.00    -0.311 N
HETATM   28  C2  UNL     1      23.584  50.049  49.807  1.00  0.00     0.219 C
HETATM   29  C1  UNL     1      22.911  49.192  50.804  1.00  0.00     0.117 C
HETATM   30  O1  UNL     1      24.101  51.127  50.188  1.00  0.00    -0.274 OA
ATOM     31  H1  UNL     1      24.059  48.753  48.270  1.00  0.00     0.170 HD
ENDBRANCH   1  27
BRANCH   4  32
HETATM   32  C5  UNL     1      23.605  53.615  45.832  1.00  0.00     0.076 C
BRANCH  32  33
HETATM   33  C6  UNL     1      25.013  53.912  46.271  1.00  0.00     0.122 C
BRANCH  33  34
HETATM   34  N3  UNL     1      25.493  55.186  45.897  1.00  0.00    -0.415 N
HETATM   35  C7  UNL     1      24.595  56.079  45.262  1.00  0.00     0.143 C
BRANCH  34  36
HETATM   36  C8  UNL     1      26.857  55.288  45.513  1.00  0.00     0.143 C
BRANCH  36  37
HETATM   37  C9  UNL     1      27.307  56.732  45.459  1.00  0.00     0.248 C
BRANCH  37  38
HETATM   38  N4  UNL     1      28.537  56.822  46.231  1.00  0.00    -0.078 N
ATOM     39  H43 UNL     1      29.157  56.024  46.092  1.00  0.00     0.274 HD
ATOM     40  H42 UNL     1      29.175  57.542  45.890  1.00  0.00     0.274 HD
ATOM     41  H41 UNL     1      28.267  56.955  47.206  1.00  0.00     0.274 HD
ENDBRANCH  37  38
ENDBRANCH  36  37
ENDBRANCH  34  36
ENDBRANCH  33  34
ENDBRANCH  32  33
ENDBRANCH   4  32
TORSDOF 13
ENDMDL