MODEL 2
REMARK VINA RESULT: -9.172973190      1.170      1.610
REMARK  11 active torsions:
REMARK  status: ('A' for Active; 'I' for Inactive)
REMARK       I    between atoms: N2_7  and  C5_9
REMARK       I    between atoms: C5_9  and  N7_22
REMARK    1  A    between atoms: N3_10  and  C6_12
REMARK    2  A    between atoms: C6_12  and  C7_13
REMARK    3  A    between atoms: C7_13  and  C8_14
REMARK    4  A    between atoms: C8_14  and  N4_15
REMARK       I    between atoms: N4_15  and  C9_17
REMARK    5  A    between atoms: N7_22  and  C10_24
REMARK    6  A    between atoms: C10_24  and  C11_25
REMARK    7  A    between atoms: C11_25  and  C12_26
REMARK    8  A    between atoms: C12_26  and  C13_27
REMARK    9  A    between atoms: C13_27  and  O1_28
REMARK   10  A    between atoms: O1_28  and  C14_29
REMARK   11  A    between atoms: C14_29  and  N8_30
ROOT
HETATM    1  C1  UNL     1      23.240  51.398  47.312  1.00  0.00     0.051 C
HETATM    2  C2  UNL     1      22.873  50.409  46.269  1.00  0.00    -0.029 A
HETATM    3  C3  UNL     1      22.411  50.872  45.051  1.00  0.00     0.097 A
HETATM    4  N1  UNL     1      22.069  50.005  44.081  1.00  0.00    -0.351 N
ATOM      5  H1  UNL     1      21.729  50.360  43.187  1.00  0.00     0.166 HD
HETATM    6  C4  UNL     1      22.168  48.674  44.275  1.00  0.00     0.122 A
HETATM    7  N2  UNL     1      21.827  47.900  43.308  1.00  0.00    -0.177 N
ATOM      8  H2  UNL     1      21.498  48.323  42.440  1.00  0.00     0.185 HD
HETATM    9  C5  UNL     1      21.886  46.485  43.390  1.00  0.00     0.675 C
HETATM   10  N3  UNL     1      22.978  45.823  43.241  1.00  0.00    -0.226 N
ATOM     11  H3  UNL     1      22.950  44.806  43.311  1.00  0.00     0.177 HD
HETATM   12  N7  UNL     1      20.679  45.752  43.642  1.00  0.00    -0.226 N
ATOM     13  H7  UNL     1      20.384  45.025  42.990  1.00  0.00     0.177 HD
HETATM   14  C20 UNL     1      22.622  48.179  45.470  1.00  0.00     0.068 A
HETATM   15  C21 UNL     1      22.976  49.046  46.472  1.00  0.00     0.021 A
HETATM   16 BR1  UNL     1      23.616  48.430  48.157  1.00  0.00    -0.050 Br
ENDROOT
BRANCH  10  17
HETATM   17  C6  UNL     1      24.231  46.461  42.979  1.00  0.00     0.139 C
BRANCH  17  18
HETATM   18  C7  UNL     1      24.957  46.822  44.284  1.00  0.00     0.040 C
BRANCH  18  19
HETATM   19  C8  UNL     1      26.098  45.866  44.400  1.00  0.00     0.123 C
BRANCH  19  20
HETATM   20  N4  UNL     1      27.185  46.291  45.219  1.00  0.00    -0.365 N
HETATM   21  C9  UNL     1      28.532  46.074  44.867  1.00  0.00     0.181 C
HETATM   22  N5  UNL     1      28.922  45.360  43.872  1.00  0.00    -0.374 N
HETATM   23  N6  UNL     1      29.592  46.668  45.647  1.00  0.00    -0.064 NA
ATOM     24  H52 UNL     1      28.173  44.940  43.321  1.00  0.00     0.158 HD
ATOM     25  H51 UNL     1      29.896  45.202  43.618  1.00  0.00     0.158 HD
ATOM     26  H4  UNL     1      26.979  46.773  46.094  1.00  0.00     0.162 HD
ENDBRANCH  19  20
ENDBRANCH  18  19
ENDBRANCH  17  18
ENDBRANCH  10  17
BRANCH  12  27
HETATM   27  C10 UNL     1      19.876  46.034  44.808  1.00  0.00     0.138 C
BRANCH  27  28
HETATM   28  C11 UNL     1      19.633  44.748  45.566  1.00  0.00     0.022 C
BRANCH  28  29
HETATM   29  C12 UNL     1      19.240  43.661  44.566  1.00  0.00     0.028 C
BRANCH  29  30
HETATM   30  C13 UNL     1      17.905  44.058  44.001  1.00  0.00     0.176 C
BRANCH  30  31
HETATM   31  O1  UNL     1      17.838  44.249  42.667  1.00  0.00    -0.346 OA
BRANCH  31  32
HETATM   32  C14 UNL     1      16.743  43.839  41.969  1.00  0.00     0.231 C
BRANCH  32  33
HETATM   33  N8  UNL     1      16.041  44.861  41.253  1.00  0.00    -0.309 N
HETATM   34  C15 UNL     1      14.619  45.036  41.562  1.00  0.00     0.133 C
HETATM   35  C16 UNL     1      14.219  46.485  41.396  1.00  0.00     0.021 C
HETATM   36  C17 UNL     1      14.758  47.125  40.164  1.00  0.00     0.011 C
HETATM   37  C18 UNL     1      16.270  47.113  40.214  1.00  0.00     0.103 C
HETATM   38  C19 UNL     1      16.685  45.674  40.307  1.00  0.00     0.225 C
HETATM   39  O2  UNL     1      17.580  45.218  39.556  1.00  0.00    -0.273 OA
ENDBRANCH  32  33
ENDBRANCH  31  32
ENDBRANCH  30  31
ENDBRANCH  29  30
ENDBRANCH  28  29
ENDBRANCH  27  28
ENDBRANCH  12  27
TORSDOF 11
ENDMDL