MODEL 3
REMARK VINA RESULT: -5.409979212      2.890      7.659
REMARK  14 active torsions:
REMARK  status: ('A' for Active; 'I' for Inactive)
REMARK    1  A    between atoms: C2_2  and  C4_4
REMARK    2  A    between atoms: C5_7  and  O1_8
REMARK    3  A    between atoms: C6_10  and  C7_11
REMARK    4  A    between atoms: C7_11  and  C8_12
REMARK    5  A    between atoms: C8_12  and  C9_13
REMARK    6  A    between atoms: C9_13  and  C10_14
REMARK    7  A    between atoms: C10_14  and  C11_15
REMARK    8  A    between atoms: C11_15  and  C12_16
REMARK    9  A    between atoms: C14_23  and  C15_24
REMARK   10  A    between atoms: C15_24  and  C16_25
REMARK   11  A    between atoms: C16_25  and  C17_26
REMARK   12  A    between atoms: C18_30  and  C19_31
REMARK   13  A    between atoms: C19_31  and  C20_32
REMARK   14  A    between atoms: C26_40  and  O4_41
ROOT
HETATM    1  C4  UNL     1      19.599  44.870  46.012  1.00  0.00     0.065 C
HETATM    2  N1  UNL     1      20.623  45.782  46.355  1.00  0.00    -0.338 N
ATOM      3  H1  UNL     1      20.868  45.703  47.343  1.00  0.00     0.167 HD
HETATM    4  C5  UNL     1      21.387  46.750  45.730  1.00  0.00     0.139 C
HETATM    5  C6  UNL     1      21.077  48.006  45.080  1.00  0.00     0.159 C
HETATM    6  N3  UNL     1      21.414  48.128  43.684  1.00  0.00    -0.344 N
ATOM      7  H3  UNL     1      21.008  48.954  43.245  1.00  0.00     0.163 HD
HETATM    8  C13 UNL     1      22.161  47.371  42.819  1.00  0.00     0.268 C
HETATM    9  O3  UNL     1      23.175  47.935  42.250  1.00  0.00    -0.266 OA
HETATM   10  C14 UNL     1      22.014  45.936  42.386  1.00  0.00     0.094 C
HETATM   11  N4  UNL     1      20.897  45.270  42.904  1.00  0.00    -0.364 N
ATOM     12  H4  UNL     1      20.964  44.383  43.401  1.00  0.00     0.162 HD
HETATM   13  C18 UNL     1      19.641  45.946  42.674  1.00  0.00     0.187 C
HETATM   14  N5  UNL     1      18.721  45.926  43.774  1.00  0.00    -0.348 N
ATOM     15  H5  UNL     1      17.965  46.604  43.693  1.00  0.00     0.163 HD
HETATM   16  C26 UNL     1      18.665  45.156  44.930  1.00  0.00     0.161 C
ENDROOT
BRANCH   5  17
HETATM   17  C7  UNL     1      21.574  49.229  45.842  1.00  0.00     0.033 C
BRANCH  17  18
HETATM   18  C8  UNL     1      22.937  49.688  45.522  1.00  0.00     0.002 C
BRANCH  18  19
HETATM   19  C9  UNL     1      22.845  51.144  45.037  1.00  0.00     0.001 C
BRANCH  19  20
HETATM   20  C10 UNL     1      23.435  52.107  46.006  1.00  0.00     0.009 C
BRANCH  20  21
HETATM   21  C11 UNL     1      23.259  53.557  45.562  1.00  0.00     0.099 C
BRANCH  21  22
HETATM   22  C12 UNL     1      24.490  54.344  45.918  1.00  0.00     0.231 C
HETATM   23  N2  UNL     1      25.584  53.719  46.538  1.00  0.00    -0.062 NA
HETATM   24  O2  UNL     1      24.563  55.578  45.668  1.00  0.00    -0.277 OA
ENDBRANCH  21  22
ENDBRANCH  20  21
ENDBRANCH  19  20
ENDBRANCH  18  19
ENDBRANCH  17  18
ENDBRANCH   5  17
BRANCH   4  25
HETATM   25  O1  UNL     1      22.666  46.475  45.727  1.00  0.00    -0.348 OA
ATOM     26  H1  UNL     1      22.927  45.898  46.434  1.00  0.00     0.219 HD
ENDBRANCH   4  25
BRANCH   1  27
HETATM   27  C2  UNL     1      20.134  43.426  45.947  1.00  0.00     0.032 C
HETATM   28  C1  UNL     1      21.350  43.345  45.057  1.00  0.00     0.016 C
HETATM   29  C3  UNL     1      20.547  42.925  47.310  1.00  0.00     0.016 C
ENDBRANCH   1  27
BRANCH  10  30
HETATM   30  C15 UNL     1      23.349  45.361  42.354  1.00  0.00     0.009 C
BRANCH  30  31
HETATM   31  C16 UNL     1      23.830  44.288  43.216  1.00  0.00     0.040 C
BRANCH  31  32
HETATM   32  C17 UNL     1      24.623  44.626  44.440  1.00  0.00     0.089 C
HETATM   33 BR1  UNL     1      25.631  46.277  44.082  1.00  0.00    -0.096 Br
ENDBRANCH  31  32
ENDBRANCH  30  31
ENDBRANCH  10  30
BRANCH  16  34
HETATM   34  O4  UNL     1      17.512  44.547  45.085  1.00  0.00    -0.345 OA
ATOM     35  H4  UNL     1      17.112  44.307  44.258  1.00  0.00     0.219 HD
ENDBRANCH  16  34
BRANCH  13  36
HETATM   36  C19 UNL     1      18.987  45.179  41.507  1.00  0.00     0.085 C
BRANCH  36  37
HETATM   37  C20 UNL     1      17.563  45.453  41.371  1.00  0.00    -0.055 A
HETATM   38  C21 UNL     1      17.086  46.658  40.923  1.00  0.00     0.007 A
HETATM   39  C22 UNL     1      15.744  46.916  40.786  1.00  0.00     0.001 A
HETATM   40  C23 UNL     1      14.811  45.954  41.100  1.00  0.00     0.000 A
HETATM   41  C24 UNL     1      15.273  44.736  41.554  1.00  0.00     0.001 A
HETATM   42  C25 UNL     1      16.639  44.486  41.689  1.00  0.00     0.007 A
ENDBRANCH  36  37
ENDBRANCH  13  36
TORSDOF 14
ENDMDL