MODEL 5
REMARK VINA RESULT: -7.182118379      2.552      4.591
REMARK  15 active torsions:
REMARK  status: ('A' for Active; 'I' for Inactive)
REMARK    1  A    between atoms: C2_2  and  N1_3
REMARK    2  A    between atoms: C2_2  and  C26_43
REMARK       I    between atoms: N1_3  and  C3_5
REMARK    3  A    between atoms: C3_5  and  C4_7
REMARK    4  A    between atoms: N2_14  and  C10_15
REMARK    5  A    between atoms: C10_15  and  O2_16
REMARK    6  A    between atoms: C10_15  and  C11_18
REMARK    7  A    between atoms: C11_18  and  N3_19
REMARK    8  A    between atoms: C11_18  and  C23_40
REMARK       I    between atoms: N3_19  and  C12_21
REMARK    9  A    between atoms: C12_21  and  C13_23
REMARK   10  A    between atoms: C13_23  and  N4_24
REMARK   11  A    between atoms: C13_23  and  C20_37
REMARK       I    between atoms: N4_24  and  C14_26
REMARK   12  A    between atoms: C14_26  and  C15_28
REMARK   13  A    between atoms: C15_28  and  C16_29
REMARK   14  A    between atoms: C16_29  and  C19_32
REMARK   15  A    between atoms: C19_32  and  N5_33
ROOT
HETATM    1  C11 UNL     1      21.590  48.094  45.629  1.00  0.00     0.163 C
ENDROOT
BRANCH   1   2
HETATM    2  C10 UNL     1      22.806  48.170  46.398  1.00  0.00     0.142 C
BRANCH   2   3
HETATM    3  N2  UNL     1      23.260  49.070  47.376  1.00  0.00    -0.325 N
HETATM    4  C4  UNL     1      22.796  50.439  47.408  1.00  0.00     0.201 C
HETATM    5  C5  UNL     1      22.712  50.807  48.812  1.00  0.00     0.115 C
HETATM    6 CL1  UNL     1      24.469  51.320  48.660  1.00  0.00    -0.122 Cl
HETATM    7  C6  UNL     1      22.853  50.841  50.191  1.00  0.00     0.026 C
HETATM    8  C7  UNL     1      23.918  49.795  50.620  1.00  0.00     0.030 C
HETATM    9  C8  UNL     1      24.531  48.925  49.625  1.00  0.00    -0.009 C
HETATM   10  C9  UNL     1      24.171  48.460  48.341  1.00  0.00     0.090 C
BRANCH   4  11
HETATM   11  C3  UNL     1      23.444  51.439  46.551  1.00  0.00     0.243 C
HETATM   12  N1  UNL     1      23.735  52.795  46.804  1.00  0.00    -0.345 N
ATOM     13  H1  UNL     1      23.493  53.205  47.706  1.00  0.00     0.163 HD
HETATM   14  O1  UNL     1      23.832  51.105  45.357  1.00  0.00    -0.271 OA
BRANCH  12  15
HETATM   15  C2  UNL     1      24.370  53.601  45.800  1.00  0.00     0.181 C
HETATM   16  C1  UNL     1      25.767  54.077  46.236  1.00  0.00     0.043 C
BRANCH  15  17
HETATM   17  C26 UNL     1      23.639  54.802  45.394  1.00  0.00     0.196 C
HETATM   18  O5  UNL     1      22.390  54.809  45.349  1.00  0.00    -0.646 OA
HETATM   19  O6  UNL     1      24.323  55.947  45.054  1.00  0.00    -0.646 OA
ENDBRANCH  15  17
ENDBRANCH  12  15
ENDBRANCH   4  11
ENDBRANCH   2   3
BRANCH   2  20
HETATM   20  O2  UNL     1      23.662  47.201  46.144  1.00  0.00    -0.348 OA
ATOM     21  H2  UNL     1      23.242  46.383  45.904  1.00  0.00     0.219 HD
ENDBRANCH   2  20
ENDBRANCH   1   2
BRANCH   1  22
HETATM   22  N3  UNL     1      21.566  46.794  44.897  1.00  0.00    -0.347 N
HETATM   23  C12 UNL     1      20.389  46.006  44.913  1.00  0.00     0.241 C
HETATM   24  O3  UNL     1      19.399  46.442  45.557  1.00  0.00    -0.271 OA
ATOM     25  H3  UNL     1      22.391  46.475  44.389  1.00  0.00     0.163 HD
BRANCH  23  26
HETATM   26  C13 UNL     1      20.232  44.702  44.224  1.00  0.00     0.180 C
BRANCH  26  27
HETATM   27  N4  UNL     1      18.829  44.403  43.992  1.00  0.00    -0.347 N
HETATM   28  C14 UNL     1      18.164  44.778  42.787  1.00  0.00     0.219 C
HETATM   29  O4  UNL     1      18.856  45.382  41.917  1.00  0.00    -0.274 OA
ATOM     30  H4  UNL     1      18.303  43.909  44.713  1.00  0.00     0.163 HD
BRANCH  28  31
HETATM   31  C15 UNL     1      16.756  44.505  42.517  1.00  0.00     0.113 C
BRANCH  31  32
HETATM   32  C16 UNL     1      16.236  44.983  41.196  1.00  0.00    -0.016 C
HETATM   33  C17 UNL     1      14.701  44.894  41.259  1.00  0.00     0.017 C
HETATM   34  C18 UNL     1      16.632  46.386  40.844  1.00  0.00     0.017 C
BRANCH  32  35
HETATM   35  C19 UNL     1      16.621  44.061  40.052  1.00  0.00     0.238 C
BRANCH  35  36
HETATM   36  N5  UNL     1      15.577  43.087  39.797  1.00  0.00    -0.079 N
ATOM     37  H53 UNL     1      14.799  43.190  40.449  1.00  0.00     0.274 HD
ATOM     38  H52 UNL     1      15.079  43.287  38.930  1.00  0.00     0.274 HD
ATOM     39  H51 UNL     1      15.953  42.139  39.806  1.00  0.00     0.274 HD
ENDBRANCH  35  36
ENDBRANCH  32  35
ENDBRANCH  31  32
ENDBRANCH  28  31
ENDBRANCH  26  27
BRANCH  26  40
HETATM   40  C20 UNL     1      20.882  43.615  45.062  1.00  0.00     0.009 C
HETATM   41  C21 UNL     1      20.369  43.662  46.482  1.00  0.00     0.012 C
HETATM   42  C22 UNL     1      22.385  43.820  45.128  1.00  0.00     0.012 C
ENDBRANCH  26  40
ENDBRANCH  23  26
ENDBRANCH   1  22
BRANCH   1  43
HETATM   43  C23 UNL     1      21.678  49.043  44.380  1.00  0.00     0.008 C
HETATM   44  C24 UNL     1      22.294  48.409  43.200  1.00  0.00     0.012 C
HETATM   45  C25 UNL     1      20.374  49.717  44.101  1.00  0.00     0.012 C
ENDBRANCH   1  43
TORSDOF 15
ENDMDL