MODEL 2
REMARK VINA RESULT: -8.282542423      0.768      1.339
REMARK  15 active torsions:
REMARK  status: ('A' for Active; 'I' for Inactive)
REMARK    1  A    between atoms: C3_5  and  N2_6
REMARK    2  A    between atoms: C4_11  and  C5_12
REMARK    3  A    between atoms: C5_12  and  C6_13
REMARK    4  A    between atoms: C6_13  and  C7_14
REMARK       I    between atoms: C7_14  and  N4_16
REMARK    5  A    between atoms: N4_16  and  C8_18
REMARK    6  A    between atoms: C8_18  and  C10_20
REMARK    7  A    between atoms: C10_20  and  C11_21
REMARK    8  A    between atoms: C11_21  and  C12_22
REMARK    9  A    between atoms: C12_22  and  N5_23
REMARK   10  A    between atoms: C16_27  and  C17_28
REMARK   11  A    between atoms: C17_28  and  O2_29
REMARK   12  A    between atoms: C17_28  and  N6_31
REMARK   13  A    between atoms: C21_35  and  C22_36
REMARK   14  A    between atoms: C22_36  and  C23_37
REMARK   15  A    between atoms: C29_44  and  N7_45
ROOT
HETATM    1  N5  UNL     1      21.347  44.176  45.432  1.00  0.00     0.101 N
HETATM    2  C13 UNL     1      20.861  42.850  45.457  1.00  0.00     0.273 C
HETATM    3  C14 UNL     1      21.876  41.947  46.139  1.00  0.00     0.033 C
HETATM    4  C15 UNL     1      23.053  42.823  46.367  1.00  0.00     0.046 C
HETATM    5  C16 UNL     1      22.684  44.225  45.876  1.00  0.00     0.296 C
ENDROOT
BRANCH   1   6
HETATM    6  C12 UNL     1      20.503  45.192  45.931  1.00  0.00     0.273 C
BRANCH   6   7
HETATM    7  C11 UNL     1      19.434  45.707  45.054  1.00  0.00     0.032 C
BRANCH   7   8
HETATM    8  C10 UNL     1      18.445  44.684  44.620  1.00  0.00     0.026 C
BRANCH   8   9
HETATM    9  C8  UNL     1      18.386  44.703  43.069  1.00  0.00     0.080 C
HETATM   10  C9  UNL     1      19.201  45.855  42.564  1.00  0.00     0.032 C
BRANCH   9  11
HETATM   11  N4  UNL     1      16.995  44.846  42.702  1.00  0.00    -0.357 N
HETATM   12  C7  UNL     1      16.643  44.656  41.347  1.00  0.00     0.218 C
HETATM   13  O1  UNL     1      17.519  44.370  40.465  1.00  0.00    -0.274 OA
ATOM     14  H4  UNL     1      16.289  45.078  43.401  1.00  0.00     0.162 HD
BRANCH  12  15
HETATM   15  C6  UNL     1      15.242  44.778  40.910  1.00  0.00     0.109 C
BRANCH  15  16
HETATM   16  C5  UNL     1      14.566  45.958  41.604  1.00  0.00     0.069 C
BRANCH  16  17
HETATM   17  C4  UNL     1      14.882  47.161  40.810  1.00  0.00     0.049 A
HETATM   18  C2  UNL     1      14.056  47.920  40.019  1.00  0.00     0.045 A
HETATM   19  C1  UNL     1      12.592  47.638  39.816  1.00  0.00     0.071 C
HETATM   20  N1  UNL     1      14.748  48.930  39.468  1.00  0.00    -0.194 N
HETATM   21  C3  UNL     1      16.015  48.819  39.906  1.00  0.00     0.676 A
ATOM     22  H1  UNL     1      14.384  49.644  38.838  1.00  0.00     0.184 HD
HETATM   23  N3  UNL     1      16.107  47.758  40.715  1.00  0.00    -0.194 N
ATOM     24  H3  UNL     1      16.957  47.445  41.185  1.00  0.00     0.184 HD
BRANCH  21  25
HETATM   25  N2  UNL     1      16.998  49.595  39.610  1.00  0.00    -0.234 N
ATOM     26  H22 UNL     1      16.977  50.611  39.699  1.00  0.00     0.174 HD
ATOM     27  H21 UNL     1      17.911  49.310  39.255  1.00  0.00     0.174 HD
ENDBRANCH  21  25
ENDBRANCH  16  17
ENDBRANCH  15  16
ENDBRANCH  12  15
ENDBRANCH   9  11
ENDBRANCH   8   9
ENDBRANCH   7   8
ENDBRANCH   6   7
ENDBRANCH   1   6
BRANCH   5  28
HETATM   28  C17 UNL     1      23.723  44.634  44.937  1.00  0.00     0.149 C
BRANCH  28  29
HETATM   29  O2  UNL     1      24.842  43.961  45.081  1.00  0.00    -0.348 OA
ATOM     30  H2  UNL     1      25.615  44.509  45.037  1.00  0.00     0.219 HD
ENDBRANCH  28  29
BRANCH  28  31
HETATM   31  N6  UNL     1      23.774  45.595  43.919  1.00  0.00    -0.336 N
HETATM   32  C18 UNL     1      23.134  45.343  42.653  1.00  0.00     0.127 C
HETATM   33  C19 UNL     1      23.571  46.394  41.626  1.00  0.00     0.020 C
HETATM   34  C20 UNL     1      23.296  47.761  42.149  1.00  0.00     0.010 C
HETATM   35  C21 UNL     1      23.783  48.030  43.547  1.00  0.00     0.040 C
HETATM   36  C29 UNL     1      24.478  46.856  44.116  1.00  0.00     0.289 C
BRANCH  35  37
HETATM   37  C22 UNL     1      22.589  48.520  44.323  1.00  0.00     0.047 C
BRANCH  37  38
HETATM   38  C23 UNL     1      22.846  49.441  45.409  1.00  0.00    -0.056 A
HETATM   39  C24 UNL     1      22.904  50.790  45.223  1.00  0.00     0.007 A
HETATM   40  C25 UNL     1      23.149  51.634  46.273  1.00  0.00     0.002 A
HETATM   41  C26 UNL     1      23.341  51.119  47.535  1.00  0.00     0.024 A
HETATM   42  C27 UNL     1      23.294  49.753  47.784  1.00  0.00     0.034 A
HETATM   43 CL1  UNL     1      23.542  49.126  49.399  1.00  0.00    -0.084 Cl
HETATM   44  C28 UNL     1      23.043  48.954  46.690  1.00  0.00     0.031 A
ENDBRANCH  37  38
ENDBRANCH  35  37
BRANCH  36  45
HETATM   45  N7  UNL     1      25.806  46.655  43.505  1.00  0.00    -0.058 N
ATOM     46  H73 UNL     1      26.574  46.662  44.176  1.00  0.00     0.276 HD
ATOM     47  H72 UNL     1      25.961  45.708  43.159  1.00  0.00     0.276 HD
ATOM     48  H71 UNL     1      25.879  47.375  42.786  1.00  0.00     0.276 HD
ENDBRANCH  36  45
ENDBRANCH  28  31
ENDBRANCH   5  28
TORSDOF 15
ENDMDL