MODEL 3
REMARK VINA RESULT: -7.661797343      2.875      4.941
REMARK  15 active torsions:
REMARK  status: ('A' for Active; 'I' for Inactive)
REMARK       I    between atoms: C2_2  and  N1_4
REMARK    1  A    between atoms: N1_4  and  C3_6
REMARK    2  A    between atoms: C3_6  and  C4_7
REMARK    3  A    between atoms: C5_8  and  C6_9
REMARK    4  A    between atoms: C6_9  and  C7_10
REMARK    5  A    between atoms: C6_9  and  C15_28
REMARK    6  A    between atoms: C7_10  and  O2_11
REMARK    7  A    between atoms: C7_10  and  N2_13
REMARK    8  A    between atoms: N2_13  and  C8_15
REMARK    9  A    between atoms: C8_15  and  C10_17
REMARK   10  A    between atoms: C10_17  and  C11_18
REMARK   11  A    between atoms: C11_18  and  C13_20
REMARK   12  A    between atoms: C13_20  and  N3_21
REMARK   13  A    between atoms: C13_20  and  C14_25
REMARK   14  A    between atoms: N4_37  and  C23_38
REMARK   15  A    between atoms: C23_38  and  C24_39
ROOT
HETATM    1  C6  UNL     1      21.259  47.380  43.745  1.00  0.00    -0.019 C
ENDROOT
BRANCH   1   2
HETATM    2  C5  UNL     1      22.213  46.494  43.058  1.00  0.00     0.056 C
HETATM    3  C4  UNL     1      23.251  45.806  43.907  1.00  0.00     0.248 C
HETATM    4  N4  UNL     1      24.558  46.277  43.512  1.00  0.00     0.095 N
HETATM    5  C22 UNL     1      24.346  47.389  42.650  1.00  0.00     0.273 C
HETATM    6  C21 UNL     1      23.050  47.083  41.969  1.00  0.00     0.041 C
BRANCH   3   7
HETATM    7  C3  UNL     1      23.277  44.300  43.595  1.00  0.00     0.159 C
BRANCH   7   8
HETATM    8  N1  UNL     1      23.315  43.474  44.755  1.00  0.00    -0.359 N
HETATM    9  C2  UNL     1      22.145  43.083  45.423  1.00  0.00     0.213 C
HETATM   10  C1  UNL     1      22.252  42.214  46.633  1.00  0.00     0.117 C
HETATM   11  O1  UNL     1      21.005  43.429  45.051  1.00  0.00    -0.274 OA
ATOM     12  H1  UNL     1      24.218  43.158  45.109  1.00  0.00     0.162 HD
ENDBRANCH   7   8
ENDBRANCH   3   7
BRANCH   4  13
HETATM   13  C23 UNL     1      25.466  46.478  44.594  1.00  0.00     0.277 C
BRANCH  13  14
HETATM   14  C24 UNL     1      26.848  46.024  44.172  1.00  0.00     0.014 A
HETATM   15  C25 UNL     1      28.051  46.417  44.954  1.00  0.00     0.007 A
HETATM   16  C26 UNL     1      27.596  44.997  44.958  1.00  0.00     0.007 A
ENDBRANCH  13  14
ENDBRANCH   4  13
ENDBRANCH   1   2
BRANCH   1  17
HETATM   17  C7  UNL     1      20.052  46.848  44.362  1.00  0.00     0.139 C
BRANCH  17  18
HETATM   18  O2  UNL     1      19.343  47.596  45.161  1.00  0.00    -0.346 OA
ATOM     19  H2  UNL     1      18.682  47.203  45.719  1.00  0.00     0.219 HD
ENDBRANCH  17  18
BRANCH  17  20
HETATM   20  N2  UNL     1      19.482  45.563  44.222  1.00  0.00    -0.367 N
ATOM     21  H2  UNL     1      20.017  44.754  44.538  1.00  0.00     0.162 HD
BRANCH  20  22
HETATM   22  C8  UNL     1      18.132  45.342  43.631  1.00  0.00     0.080 C
HETATM   23  C9  UNL     1      17.567  44.125  44.340  1.00  0.00     0.032 C
BRANCH  22  24
HETATM   24  C10 UNL     1      18.338  45.013  42.208  1.00  0.00     0.031 C
BRANCH  24  25
HETATM   25  C11 UNL     1      17.331  45.370  41.203  1.00  0.00     0.024 C
HETATM   26  C12 UNL     1      16.447  46.526  41.435  1.00  0.00     0.012 C
BRANCH  25  27
HETATM   27  C13 UNL     1      16.447  44.126  40.984  1.00  0.00     0.287 C
BRANCH  27  28
HETATM   28  N3  UNL     1      15.234  44.213  41.734  1.00  0.00    -0.065 N
ATOM     29  H33 UNL     1      14.500  43.632  41.328  1.00  0.00     0.275 HD
ATOM     30  H32 UNL     1      15.318  43.750  42.638  1.00  0.00     0.275 HD
ATOM     31  H31 UNL     1      14.931  45.182  41.835  1.00  0.00     0.275 HD
ENDBRANCH  27  28
BRANCH  27  32
HETATM   32  C14 UNL     1      16.138  44.018  39.549  1.00  0.00     0.204 C
HETATM   33  O3  UNL     1      16.140  45.016  38.759  1.00  0.00    -0.646 OA
HETATM   34  O4  UNL     1      15.808  42.791  38.945  1.00  0.00    -0.646 OA
ENDBRANCH  27  32
ENDBRANCH  25  27
ENDBRANCH  24  25
ENDBRANCH  22  24
ENDBRANCH  20  22
ENDBRANCH  17  20
ENDBRANCH   1  17
BRANCH   1  35
HETATM   35  C15 UNL     1      21.900  48.539  44.487  1.00  0.00     0.024 C
HETATM   36  C16 UNL     1      21.117  49.810  44.405  1.00  0.00     0.013 C
HETATM   37  C17 UNL     1      22.082  50.949  44.776  1.00  0.00     0.029 C
HETATM   38  C18 UNL     1      22.696  50.704  46.089  1.00  0.00    -0.012 C
HETATM   39  C19 UNL     1      22.730  49.492  46.594  1.00  0.00    -0.015 C
HETATM   40 BR1  UNL     1      23.536  49.190  48.319  1.00  0.00    -0.056 Br
HETATM   41  C20 UNL     1      22.182  48.276  45.935  1.00  0.00     0.055 C
ENDBRANCH   1  35
TORSDOF 15
ENDMDL