MODEL 3
REMARK VINA RESULT: -6.612611571      2.887      5.705
REMARK  14 active torsions:
REMARK  status: ('A' for Active; 'I' for Inactive)
REMARK    1  A    between atoms: C2_2  and  C4_4
REMARK    2  A    between atoms: C4_4  and  C5_5
REMARK    3  A    between atoms: C5_5  and  N1_6
REMARK    4  A    between atoms: C5_5  and  C21_33
REMARK       I    between atoms: N1_6  and  C6_8
REMARK    5  A    between atoms: C6_8  and  C7_10
REMARK    6  A    between atoms: C7_10  and  N2_11
REMARK    7  A    between atoms: C7_10  and  C10_16
REMARK       I    between atoms: N2_11  and  C8_12
REMARK    8  A    between atoms: C8_12  and  C9_14
REMARK       I    between atoms: C10_16  and  N3_18
REMARK    9  A    between atoms: N3_18  and  C11_20
REMARK   10  A    between atoms: C11_20  and  C12_21
REMARK   11  A    between atoms: C11_20  and  C16_25
REMARK   12  A    between atoms: C12_21  and  C13_22
REMARK       I    between atoms: C16_25  and  N4_27
REMARK   13  A    between atoms: N4_27  and  C17_29
REMARK       I    between atoms: C21_33  and  N5_35
REMARK   14  A    between atoms: N5_35  and  C22_37
ROOT
HETATM    1  C7  UNL     1      22.802  47.100  45.770  1.00  0.00     0.245 C
ENDROOT
BRANCH   1   2
HETATM    2  C6  UNL     1      21.353  46.992  45.442  1.00  0.00     0.292 C
HETATM    3  N1  UNL     1      20.875  45.899  44.651  1.00  0.00    -0.319 N
ATOM      4  H1  UNL     1      21.594  45.215  44.413  1.00  0.00     0.169 HD
HETATM    5  O1  UNL     1      20.566  47.859  45.839  1.00  0.00    -0.264 OA
BRANCH   3   6
HETATM    6  C5  UNL     1      19.617  45.594  44.147  1.00  0.00     0.080 C
BRANCH   6   7
HETATM    7  C4  UNL     1      18.914  44.385  44.748  1.00  0.00     0.067 C
BRANCH   7   8
HETATM    8  C2  UNL     1      19.763  43.451  45.502  1.00  0.00    -0.017 C
HETATM    9  C1  UNL     1      19.959  43.851  46.953  1.00  0.00     0.010 C
HETATM   10  C3  UNL     1      21.097  43.076  44.933  1.00  0.00     0.010 C
ENDBRANCH   7   8
ENDBRANCH   6   7
BRANCH   6  11
HETATM   11  C21 UNL     1      19.375  45.632  42.688  1.00  0.00     0.264 C
HETATM   12  O5  UNL     1      20.339  45.766  41.913  1.00  0.00    -0.266 OA
HETATM   13  N5  UNL     1      18.061  45.520  42.222  1.00  0.00    -0.351 N
ATOM     14  H5  UNL     1      17.375  45.417  42.970  1.00  0.00     0.163 HD
BRANCH  13  15
HETATM   15  C22 UNL     1      17.488  45.521  40.931  1.00  0.00     0.084 C
HETATM   16  C23 UNL     1      16.458  44.404  40.809  1.00  0.00     0.025 C
HETATM   17  C24 UNL     1      15.328  44.550  41.803  1.00  0.00     0.002 C
HETATM   18  C25 UNL     1      14.799  45.979  41.803  1.00  0.00     0.000 C
HETATM   19  C26 UNL     1      15.326  46.619  40.542  1.00  0.00     0.002 C
HETATM   20  C27 UNL     1      16.798  46.845  40.678  1.00  0.00     0.025 C
ENDBRANCH  13  15
ENDBRANCH   6  11
ENDBRANCH   3   6
ENDBRANCH   1   2
BRANCH   1  21
HETATM   21  N2  UNL     1      23.727  46.364  45.034  1.00  0.00    -0.358 NA
HETATM   22  C8  UNL     1      24.624  45.662  44.330  1.00  0.00     0.306 C
HETATM   23  O2  UNL     1      25.879  45.693  44.303  1.00  0.00    -0.256 OA
BRANCH  22  24
HETATM   24  C9  UNL     1      24.080  44.601  43.330  1.00  0.00     0.233 C
HETATM   25 CL1  UNL     1      23.495  45.408  41.896  1.00  0.00    -0.119 Cl
ENDBRANCH  22  24
ENDBRANCH   1  21
BRANCH   1  26
HETATM   26  C10 UNL     1      23.313  48.418  46.117  1.00  0.00     0.288 C
HETATM   27  O3  UNL     1      24.290  48.896  45.438  1.00  0.00    -0.265 OA
HETATM   28  N3  UNL     1      22.798  49.216  47.148  1.00  0.00    -0.341 N
ATOM     29  H3  UNL     1      22.011  48.881  47.704  1.00  0.00     0.163 HD
BRANCH  28  30
HETATM   30  C11 UNL     1      23.398  50.559  47.438  1.00  0.00     0.177 C
BRANCH  30  31
HETATM   31  C12 UNL     1      22.351  51.520  46.927  1.00  0.00     0.038 C
BRANCH  31  32
HETATM   32  C13 UNL     1      22.598  52.181  45.630  1.00  0.00    -0.020 C
HETATM   33  C14 UNL     1      22.370  51.270  44.435  1.00  0.00     0.009 C
HETATM   34  C15 UNL     1      23.843  52.965  45.461  1.00  0.00     0.009 C
ENDBRANCH  31  32
ENDBRANCH  30  31
BRANCH  30  35
HETATM   35  C16 UNL     1      23.623  50.560  48.879  1.00  0.00     0.241 C
HETATM   36  O4  UNL     1      24.364  51.425  49.405  1.00  0.00    -0.271 OA
HETATM   37  N4  UNL     1      23.019  49.606  49.722  1.00  0.00    -0.351 N
ATOM     38  H4  UNL     1      22.416  48.904  49.293  1.00  0.00     0.163 HD
BRANCH  37  39
HETATM   39  C17 UNL     1      23.198  49.558  51.146  1.00  0.00     0.022 C
HETATM   40  C18 UNL     1      24.537  48.917  51.447  1.00  0.00     0.037 C
HETATM   41  C19 UNL     1      22.112  48.643  51.732  1.00  0.00     0.037 C
HETATM   42  C20 UNL     1      23.138  50.905  51.820  1.00  0.00     0.037 C
ENDBRANCH  37  39
ENDBRANCH  30  35
ENDBRANCH  28  30
ENDBRANCH   1  26
TORSDOF 14
ENDMDL