MODEL 1
REMARK VINA RESULT: -8.388490603      0.000      0.000
REMARK  13 active torsions:
REMARK  status: ('A' for Active; 'I' for Inactive)
REMARK    1  A    between atoms: C2_2  and  C3_3
REMARK    2  A    between atoms: C2_2  and  C17_28
REMARK    3  A    between atoms: C3_3  and  C4_4
REMARK    4  A    between atoms: C4_4  and  C5_5
REMARK    5  A    between atoms: C5_5  and  C6_6
REMARK    6  A    between atoms: C5_5  and  N2_13
REMARK    7  A    between atoms: C6_6  and  N1_7
REMARK    8  A    between atoms: N2_13  and  C12_16
REMARK    9  A    between atoms: C12_16  and  C13_17
REMARK   10  A    between atoms: C13_17  and  N3_18
REMARK       I    between atoms: N3_18  and  C14_20
REMARK       I    between atoms: C14_20  and  N4_22
REMARK   11  A    between atoms: N4_22  and  C15_24
REMARK   12  A    between atoms: C15_24  and  C16_25
REMARK   13  A    between atoms: C16_25  and  O2_26
ROOT
HETATM    1  C5  UNL     1      23.268  51.906  46.663  1.00  0.00     0.214 C
ENDROOT
BRANCH   1   2
HETATM    2  C4  UNL     1      22.749  50.624  46.111  1.00  0.00     0.035 C
BRANCH   2   3
HETATM    3  C3  UNL     1      22.582  50.596  44.647  1.00  0.00     0.007 C
BRANCH   3   4
HETATM    4  C2  UNL     1      23.131  49.296  44.013  1.00  0.00    -0.014 C
HETATM    5  C1  UNL     1      24.237  49.560  43.082  1.00  0.00     0.010 C
BRANCH   4   6
HETATM    6  C17 UNL     1      21.959  48.526  43.549  1.00  0.00    -0.002 C
HETATM    7  C18 UNL     1      20.724  49.045  44.246  1.00  0.00     0.006 C
HETATM    8  C19 UNL     1      19.796  47.878  44.505  1.00  0.00     0.006 C
HETATM    9  C20 UNL     1      20.469  46.774  43.753  1.00  0.00     0.002 C
HETATM   10  C21 UNL     1      20.136  45.402  44.150  1.00  0.00     0.049 C
HETATM   11  C28 UNL     1      21.944  47.069  43.803  1.00  0.00    -0.036 C
HETATM   12  C22 UNL     1      18.645  45.197  44.353  1.00  0.00     0.112 C
HETATM   13  C25 UNL     1      20.808  44.868  45.358  1.00  0.00     0.188 C
HETATM   14  C23 UNL     1      18.425  43.749  44.575  1.00  0.00     0.224 C
HETATM   15  O3  UNL     1      17.229  43.333  44.376  1.00  0.00    -0.273 OA
HETATM   16  N5  UNL     1      19.437  42.853  44.979  1.00  0.00    -0.295 N
HETATM   17  C24 UNL     1      20.723  43.363  45.297  1.00  0.00     0.264 C
ATOM     18  H5  UNL     1      19.248  41.852  45.042  1.00  0.00     0.171 HD
HETATM   19  O4  UNL     1      21.688  42.626  45.506  1.00  0.00    -0.269 OA
HETATM   20  F1  UNL     1      20.051  45.204  46.491  1.00  0.00    -0.232 F
HETATM   21  C26 UNL     1      22.196  45.327  45.605  1.00  0.00     0.055 C
HETATM   22  C27 UNL     1      22.606  46.634  45.064  1.00  0.00     0.014 C
HETATM   23  C29 UNL     1      22.527  46.354  42.579  1.00  0.00     0.016 C
ENDBRANCH   4   6
ENDBRANCH   3   4
ENDBRANCH   2   3
ENDBRANCH   1   2
BRANCH   1  24
HETATM   24  C6  UNL     1      24.102  52.764  45.787  1.00  0.00     0.305 C
BRANCH  24  25
HETATM   25  N1  UNL     1      24.408  54.066  46.253  1.00  0.00     0.090 N
HETATM   26  C7  UNL     1      24.020  55.030  45.214  1.00  0.00     0.272 C
HETATM   27  C8  UNL     1      24.534  56.414  45.485  1.00  0.00     0.030 C
HETATM   28  C9  UNL     1      26.048  56.464  45.281  1.00  0.00     0.003 C
HETATM   29  C10 UNL     1      26.514  55.014  45.372  1.00  0.00     0.030 C
HETATM   30  C11 UNL     1      25.834  54.278  46.476  1.00  0.00     0.272 C
ENDBRANCH  24  25
ENDBRANCH   1  24
BRANCH   1  31
HETATM   31  N2  UNL     1      23.942  51.758  47.958  1.00  0.00    -0.068 N
ATOM     32  H22 UNL     1      24.902  51.435  47.838  1.00  0.00     0.277 HD
ATOM     33  H21 UNL     1      24.128  52.667  48.382  1.00  0.00     0.277 HD
BRANCH  31  34
HETATM   34  C12 UNL     1      23.214  50.903  48.861  1.00  0.00     0.252 C
BRANCH  34  35
HETATM   35  C13 UNL     1      23.948  50.790  50.157  1.00  0.00     0.152 C
BRANCH  35  36
HETATM   36  N3  UNL     1      23.221  50.128  51.177  1.00  0.00    -0.342 N
HETATM   37  C14 UNL     1      22.406  48.957  51.068  1.00  0.00     0.316 C
HETATM   38  O1  UNL     1      22.332  48.438  49.928  1.00  0.00    -0.247 OA
HETATM   39  N4  UNL     1      21.733  48.425  52.167  1.00  0.00    -0.341 N
ATOM     40  H4  UNL     1      21.853  48.907  53.058  1.00  0.00     0.164 HD
ATOM     41  H3  UNL     1      23.286  50.539  52.108  1.00  0.00     0.164 HD
BRANCH  39  42
HETATM   42  C15 UNL     1      20.888  47.265  52.168  1.00  0.00     0.150 C
BRANCH  42  43
HETATM   43  C16 UNL     1      19.425  47.586  52.259  1.00  0.00     0.183 C
BRANCH  43  44
HETATM   44  O2  UNL     1      18.829  47.059  51.090  1.00  0.00    -0.399 OA
ATOM     45  H2  UNL     1      18.350  47.774  50.688  1.00  0.00     0.209 HD
ENDBRANCH  43  44
ENDBRANCH  42  43
ENDBRANCH  39  42
ENDBRANCH  35  36
ENDBRANCH  34  35
ENDBRANCH  31  34
ENDBRANCH   1  31
TORSDOF 13
ENDMDL