MODEL 5
REMARK VINA RESULT: -10.779953780      1.284      1.879
REMARK  11 active torsions:
REMARK  status: ('A' for Active; 'I' for Inactive)
REMARK    1  A    between atoms: C3_5  and  N2_6
REMARK    2  A    between atoms: C4_8  and  C5_9
REMARK    3  A    between atoms: C5_9  and  C6_10
REMARK    4  A    between atoms: C12_18  and  N4_19
REMARK    5  A    between atoms: C13_21  and  C14_22
REMARK    6  A    between atoms: C19_27  and  C20_28
REMARK    7  A    between atoms: N5_29  and  C21_31
REMARK    8  A    between atoms: C21_31  and  C22_32
REMARK    9  A    between atoms: C22_32  and  N6_33
REMARK   10  A    between atoms: N6_33  and  S1_35
REMARK   11  A    between atoms: S1_35  and  C23_38
ROOT
HETATM    1  C14 UNL     1      23.106  46.667  44.262  1.00  0.00    -0.009 A
HETATM    2  C15 UNL     1      23.796  47.471  43.323  1.00  0.00     0.013 A
HETATM    3  C16 UNL     1      23.876  47.039  42.001  1.00  0.00     0.001 A
HETATM    4  C17 UNL     1      23.288  45.869  41.625  1.00  0.00     0.001 A
HETATM    5  C18 UNL     1      22.600  45.073  42.539  1.00  0.00     0.013 A
HETATM    6  C19 UNL     1      22.521  45.472  43.835  1.00  0.00    -0.009 A
ENDROOT
BRANCH   1   7
HETATM    7  C13 UNL     1      23.147  46.816  45.721  1.00  0.00     0.118 C
HETATM    8  N4  UNL     1      22.724  47.789  46.542  1.00  0.00    -0.200 N
ATOM      9  H4  UNL     1      21.899  47.431  47.022  1.00  0.00     0.183 HD
BRANCH   8  10
HETATM   10  C12 UNL     1      22.912  48.940  46.967  1.00  0.00     0.698 A
HETATM   11  N3  UNL     1      23.117  50.123  46.227  1.00  0.00    -0.022 N
HETATM   12  C3  UNL     1      23.445  51.398  46.768  1.00  0.00     0.698 A
ATOM     13  H3  UNL     1      23.021  50.060  45.213  1.00  0.00     0.203 HD
HETATM   14  N1  UNL     1      23.594  51.515  48.210  1.00  0.00    -0.176 N
HETATM   15  C2  UNL     1      23.402  50.372  49.010  1.00  0.00     0.127 A
ATOM     16  H1  UNL     1      23.833  52.411  48.635  1.00  0.00     0.185 HD
HETATM   17  C1  UNL     1      23.511  50.434  50.355  1.00  0.00     0.064 C
HETATM   18  N7  UNL     1      23.059  49.079  48.425  1.00  0.00    -0.176 N
ATOM     19  H7  UNL     1      22.921  48.269  49.029  1.00  0.00     0.185 HD
BRANCH  12  20
HETATM   20  N2  UNL     1      23.458  52.444  46.169  1.00  0.00    -0.204 N
HETATM   21  C4  UNL     1      23.063  53.362  45.286  1.00  0.00     0.083 C
ATOM     22  H2  UNL     1      24.255  52.911  46.600  1.00  0.00     0.183 HD
BRANCH  21  23
HETATM   23  C5  UNL     1      23.287  54.757  45.835  1.00  0.00     0.083 C
BRANCH  23  24
HETATM   24  C6  UNL     1      24.577  55.417  45.540  1.00  0.00    -0.053 A
HETATM   25  C7  UNL     1      24.748  56.607  44.852  1.00  0.00     0.007 A
HETATM   26  C8  UNL     1      26.004  57.093  44.597  1.00  0.00     0.001 A
HETATM   27  C9  UNL     1      27.152  56.429  45.002  1.00  0.00     0.000 A
HETATM   28  C10 UNL     1      26.995  55.234  45.683  1.00  0.00     0.001 A
HETATM   29  C11 UNL     1      25.738  54.756  45.940  1.00  0.00     0.007 A
ENDBRANCH  23  24
ENDBRANCH  21  23
ENDBRANCH  12  20
ENDBRANCH   8  10
ENDBRANCH   1   7
BRANCH   6  30
HETATM   30  C20 UNL     1      21.649  44.680  44.789  1.00  0.00     0.099 C
HETATM   31  N5  UNL     1      20.409  44.495  44.257  1.00  0.00    -0.376 N
ATOM     32  H5  UNL     1      20.446  43.807  43.506  1.00  0.00     0.164 HD
BRANCH  31  33
HETATM   33  C21 UNL     1      19.120  44.951  44.421  1.00  0.00     0.080 C
BRANCH  33  34
HETATM   34  C22 UNL     1      18.098  44.515  43.365  1.00  0.00     0.176 C
BRANCH  34  35
HETATM   35  N6  UNL     1      18.112  45.388  42.241  1.00  0.00    -0.311 N
ATOM     36  H6  UNL     1      18.732  46.196  42.182  1.00  0.00     0.172 HD
BRANCH  35  37
HETATM   37  S1  UNL     1      17.018  44.985  40.999  1.00  0.00     0.259 S
HETATM   38  O1  UNL     1      17.863  45.007  39.706  1.00  0.00    -0.201 OA
HETATM   39  O2  UNL     1      16.433  43.653  41.115  1.00  0.00    -0.201 OA
BRANCH  37  40
HETATM   40  C23 UNL     1      15.782  46.188  40.773  1.00  0.00     0.079 A
HETATM   41  C24 UNL     1      15.997  47.407  40.221  1.00  0.00     0.028 A
HETATM   42  C25 UNL     1      14.920  48.273  40.047  1.00  0.00     0.044 A
HETATM   43  C26 UNL     1      13.647  47.933  40.417  1.00  0.00     0.116 A
HETATM   44  F1  UNL     1      12.585  48.759  40.249  1.00  0.00    -0.206 F
HETATM   45  C27 UNL     1      13.399  46.691  40.983  1.00  0.00     0.044 A
HETATM   46  C28 UNL     1      14.471  45.846  41.147  1.00  0.00     0.028 A
ENDBRANCH  37  40
ENDBRANCH  35  37
ENDBRANCH  34  35
ENDBRANCH  33  34
ENDBRANCH  31  33
ENDBRANCH   6  30
TORSDOF 11
ENDMDL