MODEL 5
REMARK VINA RESULT: -5.192395122      2.108      2.430
REMARK  13 active torsions:
REMARK  status: ('A' for Active; 'I' for Inactive)
REMARK    1  A    between atoms: C3_3  and  C4_4
REMARK    2  A    between atoms: C4_4  and  C5_5
REMARK    3  A    between atoms: C5_5  and  C6_6
REMARK    4  A    between atoms: C7_7  and  N1_8
REMARK       I    between atoms: N1_8  and  C8_10
REMARK    5  A    between atoms: C8_10  and  C9_12
REMARK       I    between atoms: C9_12  and  N2_14
REMARK    6  A    between atoms: N2_14  and  C10_15
REMARK    7  A    between atoms: N2_14  and  C15_26
REMARK    8  A    between atoms: C10_15  and  C11_16
REMARK    9  A    between atoms: C11_16  and  C12_17
REMARK   10  A    between atoms: C12_17  and  C13_18
REMARK   11  A    between atoms: C13_18  and  N3_19
REMARK       I    between atoms: N3_19  and  C14_21
REMARK   12  A    between atoms: C15_26  and  C16_27
REMARK   13  A    between atoms: C23_36  and  C24_37
ROOT
HETATM    1  C1  UNL     1      22.457  42.623  45.768  1.00  0.00     0.012 C
HETATM    2  C2  UNL     1      21.328  43.029  45.883  1.00  0.00    -0.117 C
HETATM    3  C3  UNL     1      19.946  43.542  46.041  1.00  0.00     0.093 C
ENDROOT
BRANCH   3   4
HETATM    4  C4  UNL     1      19.208  43.470  44.720  1.00  0.00     0.012 C
BRANCH   4   5
HETATM    5  C5  UNL     1      17.921  44.217  44.834  1.00  0.00     0.009 C
BRANCH   5   6
HETATM    6  C6  UNL     1      17.593  45.019  43.587  1.00  0.00     0.031 C
HETATM    7  C7  UNL     1      18.897  45.345  42.949  1.00  0.00     0.091 C
HETATM    8  C17 UNL     1      18.777  46.111  41.615  1.00  0.00     0.031 C
HETATM    9  C18 UNL     1      17.382  45.787  41.215  1.00  0.00     0.002 C
HETATM   10  C19 UNL     1      17.268  44.299  41.345  1.00  0.00     0.013 C
HETATM   11  C26 UNL     1      16.763  46.239  39.992  1.00  0.00    -0.035 C
HETATM   12  C20 UNL     1      16.495  43.548  40.343  1.00  0.00     0.008 C
HETATM   13  C25 UNL     1      16.628  44.208  42.754  1.00  0.00     0.091 C
HETATM   14  C21 UNL     1      15.432  44.229  39.580  1.00  0.00     0.011 C
HETATM   15  C22 UNL     1      15.344  45.677  40.078  1.00  0.00     0.040 C
HETATM   16  C23 UNL     1      14.860  45.496  41.482  1.00  0.00     0.001 C
HETATM   17  N7  UNL     1      15.374  44.918  42.522  1.00  0.00    -0.390 N
ATOM     18  H7  UNL     1      14.780  44.970  43.349  1.00  0.00     0.159 HD
HETATM   19  C27 UNL     1      16.626  47.750  39.963  1.00  0.00     0.016 C
HETATM   20  C28 UNL     1      17.478  45.830  38.742  1.00  0.00     0.016 C
BRANCH   7  21
HETATM   21  N1  UNL     1      19.576  46.274  43.842  1.00  0.00    -0.348 N
HETATM   22  C8  UNL     1      21.004  46.258  44.008  1.00  0.00     0.309 C
HETATM   23  O1  UNL     1      21.629  45.406  43.344  1.00  0.00    -0.262 OA
ATOM     24  H1  UNL     1      19.023  46.955  44.363  1.00  0.00     0.163 HD
BRANCH  22  25
HETATM   25  C9  UNL     1      21.672  47.181  44.897  1.00  0.00     0.311 C
HETATM   26  O2  UNL     1      20.986  47.557  45.921  1.00  0.00    -0.262 OA
HETATM   27  N2  UNL     1      22.976  47.699  44.750  1.00  0.00    -0.336 N
BRANCH  27  28
HETATM   28  C10 UNL     1      23.474  48.629  45.738  1.00  0.00     0.127 C
BRANCH  28  29
HETATM   29  C11 UNL     1      23.643  50.043  45.171  1.00  0.00     0.021 C
BRANCH  29  30
HETATM   30  C12 UNL     1      22.468  50.519  44.388  1.00  0.00     0.021 C
BRANCH  30  31
HETATM   31  C13 UNL     1      21.464  51.310  45.152  1.00  0.00     0.122 C
BRANCH  31  32
HETATM   32  N3  UNL     1      21.886  52.522  45.767  1.00  0.00    -0.365 N
HETATM   33  C14 UNL     1      21.129  53.707  45.877  1.00  0.00     0.181 C
HETATM   34  N4  UNL     1      21.681  54.861  45.714  1.00  0.00    -0.374 N
HETATM   35  N5  UNL     1      19.748  53.658  46.181  1.00  0.00    -0.064 NA
ATOM     36  H42 UNL     1      22.677  54.897  45.496  1.00  0.00     0.158 HD
ATOM     37  H41 UNL     1      21.134  55.718  45.794  1.00  0.00     0.158 HD
ATOM     38  H3  UNL     1      22.824  52.535  46.165  1.00  0.00     0.162 HD
ENDBRANCH  31  32
ENDBRANCH  30  31
ENDBRANCH  29  30
ENDBRANCH  28  29
ENDBRANCH  27  28
BRANCH  27  39
HETATM   39  C15 UNL     1      23.832  47.354  43.640  1.00  0.00     0.225 C
BRANCH  39  40
HETATM   40  C16 UNL     1      24.812  46.343  44.126  1.00  0.00     0.249 C
HETATM   41  N6  UNL     1      26.179  46.448  43.796  1.00  0.00    -0.061 NA
HETATM   42  O3  UNL     1      24.418  45.397  44.830  1.00  0.00    -0.275 OA
ENDBRANCH  39  40
ENDBRANCH  27  39
ENDBRANCH  22  25
ENDBRANCH   7  21
BRANCH  16  43
HETATM   43  C24 UNL     1      13.505  46.060  41.795  1.00  0.00     0.167 C
HETATM   44 CL1  UNL     1      13.134  47.331  40.643  1.00  0.00    -0.124 Cl
ENDBRANCH  16  43
ENDBRANCH   5   6
ENDBRANCH   4   5
ENDBRANCH   3   4
TORSDOF 13
ENDMDL