MODEL 2
REMARK VINA RESULT: -9.981044324      0.046      1.405
REMARK  13 active torsions:
REMARK  status: ('A' for Active; 'I' for Inactive)
REMARK    1  A    between atoms: C7_7  and  C8_8
REMARK    2  A    between atoms: C8_8  and  C9_9
REMARK    3  A    between atoms: C9_9  and  N1_10
REMARK    4  A    between atoms: N1_10  and  S1_12
REMARK    5  A    between atoms: S1_12  and  N2_15
REMARK    6  A    between atoms: N2_15  and  C11_17
REMARK    7  A    between atoms: C11_17  and  C12_19
REMARK       I    between atoms: N3_20  and  C13_22
REMARK    8  A    between atoms: C13_22  and  C14_24
REMARK    9  A    between atoms: C14_24  and  N4_25
REMARK   10  A    between atoms: C14_24  and  C15_29
REMARK   11  A    between atoms: C15_29  and  C16_30
REMARK   12  A    between atoms: C16_30  and  C17_31
REMARK   13  A    between atoms: C17_31  and  N5_32
REMARK       I    between atoms: N5_32  and  C18_34
ROOT
HETATM    1  N2  UNL     1      18.803  44.411  44.514  1.00  0.00    -0.276 N
HETATM    2  C10 UNL     1      17.828  43.607  45.120  1.00  0.00     0.166 C
ENDROOT
BRANCH   1   3
HETATM    3  S1  UNL     1      20.046  44.940  45.474  1.00  0.00     0.318 S
HETATM    4  O1  UNL     1      21.345  44.307  44.965  1.00  0.00    -0.183 OA
HETATM    5  O2  UNL     1      19.822  44.437  46.898  1.00  0.00    -0.183 OA
BRANCH   3   6
HETATM    6  N1  UNL     1      20.273  46.673  45.534  1.00  0.00    -0.302 N
ATOM      7  H1  UNL     1      19.623  47.366  45.164  1.00  0.00     0.173 HD
BRANCH   6   8
HETATM    8  C9  UNL     1      21.505  46.965  46.178  1.00  0.00     0.148 C
BRANCH   8   9
HETATM    9  C8  UNL     1      22.586  47.659  45.407  1.00  0.00     0.004 C
HETATM   10  C19 UNL     1      23.867  46.928  45.260  1.00  0.00     0.016 C
HETATM   11  C20 UNL     1      23.963  46.014  44.062  1.00  0.00     0.001 C
HETATM   12  C21 UNL     1      24.709  46.677  42.915  1.00  0.00     0.000 C
HETATM   13  C22 UNL     1      23.679  47.509  42.180  1.00  0.00     0.000 C
HETATM   14  C23 UNL     1      23.187  48.575  43.153  1.00  0.00     0.001 C
HETATM   15  C24 UNL     1      22.098  48.071  44.037  1.00  0.00     0.016 C
BRANCH   9  16
HETATM   16  C7  UNL     1      22.864  48.882  46.254  1.00  0.00    -0.047 A
HETATM   17  C6  UNL     1      23.120  48.748  47.601  1.00  0.00     0.014 A
HETATM   18  C4  UNL     1      23.410  49.826  48.402  1.00  0.00    -0.061 A
HETATM   19  C3  UNL     1      23.438  51.075  47.819  1.00  0.00     0.013 A
HETATM   20  C5  UNL     1      23.700  49.618  49.863  1.00  0.00     0.048 C
HETATM   21  C2  UNL     1      23.188  51.253  46.479  1.00  0.00    -0.061 A
HETATM   22  C1  UNL     1      23.219  52.600  45.861  1.00  0.00     0.048 C
HETATM   23  C25 UNL     1      22.898  50.123  45.694  1.00  0.00     0.014 A
ENDBRANCH   9  16
ENDBRANCH   8   9
ENDBRANCH   6   8
ENDBRANCH   3   6
ENDBRANCH   1   3
BRANCH   1  24
HETATM   24  C11 UNL     1      18.908  44.400  43.140  1.00  0.00     0.232 C
HETATM   25 CL1  UNL     1      19.657  45.875  42.459  1.00  0.00    -0.096 Cl
BRANCH  24  26
HETATM   26  C12 UNL     1      17.543  44.338  42.490  1.00  0.00     0.105 C
HETATM   27  N3  UNL     1      17.460  44.754  41.310  1.00  0.00    -0.336 N
HETATM   28  C13 UNL     1      16.416  44.854  40.409  1.00  0.00     0.252 C
ATOM     29  H3  UNL     1      18.348  45.088  40.936  1.00  0.00     0.168 HD
HETATM   30  O3  UNL     1      16.725  44.660  39.178  1.00  0.00    -0.271 OA
BRANCH  28  31
HETATM   31  C14 UNL     1      15.005  45.155  40.686  1.00  0.00     0.275 C
BRANCH  31  32
HETATM   32  N4  UNL     1      14.468  44.312  41.759  1.00  0.00    -0.066 N
ATOM     33  H43 UNL     1      14.816  43.356  41.690  1.00  0.00     0.275 HD
ATOM     34  H42 UNL     1      14.867  44.562  42.664  1.00  0.00     0.275 HD
ATOM     35  H41 UNL     1      13.448  44.335  41.785  1.00  0.00     0.275 HD
ENDBRANCH  31  32
BRANCH  31  36
HETATM   36  C15 UNL     1      14.753  46.581  41.125  1.00  0.00     0.044 C
BRANCH  36  37
HETATM   37  C16 UNL     1      15.497  47.598  40.311  1.00  0.00     0.022 C
BRANCH  37  38
HETATM   38  C17 UNL     1      14.530  48.553  39.623  1.00  0.00     0.122 C
BRANCH  38  39
HETATM   39  N5  UNL     1      13.365  47.876  39.103  1.00  0.00    -0.365 N
HETATM   40  C18 UNL     1      12.469  48.412  38.151  1.00  0.00     0.181 C
HETATM   41  N6  UNL     1      12.721  48.473  36.905  1.00  0.00    -0.374 N
HETATM   42  N7  UNL     1      11.206  48.913  38.625  1.00  0.00    -0.064 NA
ATOM     43  H62 UNL     1      13.617  48.119  36.569  1.00  0.00     0.158 HD
ATOM     44  H61 UNL     1      12.075  48.860  36.218  1.00  0.00     0.158 HD
ATOM     45  H5  UNL     1      13.173  46.936  39.451  1.00  0.00     0.162 HD
ENDBRANCH  38  39
ENDBRANCH  37  38
ENDBRANCH  36  37
ENDBRANCH  31  36
ENDBRANCH  28  31
ENDBRANCH  24  26
ENDBRANCH   1  24
TORSDOF 13
ENDMDL