MODEL 3
REMARK VINA RESULT: -9.408069239      3.548      9.154
REMARK  14 active torsions:
REMARK  status: ('A' for Active; 'I' for Inactive)
REMARK    1  A    between atoms: N2_6  and  C5_7
REMARK    2  A    between atoms: C5_7  and  C6_8
REMARK    3  A    between atoms: C6_8  and  C7_9
REMARK    4  A    between atoms: C7_9  and  C8_10
REMARK    5  A    between atoms: C8_10  and  C9_11
REMARK    6  A    between atoms: C9_11  and  C10_12
REMARK    7  A    between atoms: C10_12  and  C11_13
REMARK    8  A    between atoms: C11_13  and  C12_14
REMARK       I    between atoms: C12_14  and  N3_16
REMARK    9  A    between atoms: N3_16  and  C13_17
REMARK   10  A    between atoms: N3_16  and  C21_28
REMARK   11  A    between atoms: C13_17  and  C14_18
REMARK   12  A    between atoms: C14_18  and  C15_19
REMARK   13  A    between atoms: C18_22  and  O2_23
REMARK   14  A    between atoms: C24_34  and  N5_35
ROOT
HETATM    1  C12 UNL     1      20.145  47.345  45.028  1.00  0.00     0.225 C
HETATM    2  O1  UNL     1      19.032  47.721  45.478  1.00  0.00    -0.273 OA
HETATM    3  N3  UNL     1      20.238  46.198  44.162  1.00  0.00    -0.303 N
ENDROOT
BRANCH   3   4
HETATM    4  C13 UNL     1      19.043  45.538  43.732  1.00  0.00     0.138 C
BRANCH   4   5
HETATM    5  C14 UNL     1      18.770  45.507  42.275  1.00  0.00     0.059 C
BRANCH   5   6
HETATM    6  C15 UNL     1      17.360  45.504  41.857  1.00  0.00    -0.055 A
HETATM    7  C16 UNL     1      16.528  44.403  42.049  1.00  0.00     0.010 A
HETATM    8  C17 UNL     1      15.207  44.437  41.627  1.00  0.00     0.038 A
HETATM    9  C18 UNL     1      14.671  45.543  41.012  1.00  0.00     0.083 A
HETATM   10  C19 UNL     1      15.466  46.634  40.812  1.00  0.00     0.044 A
HETATM   11 BR1  UNL     1      14.740  48.180  39.957  1.00  0.00    -0.048 Br
HETATM   12  C20 UNL     1      16.786  46.605  41.231  1.00  0.00     0.029 A
BRANCH   9  13
HETATM   13  O2  UNL     1      13.338  45.583  40.583  1.00  0.00    -0.359 OA
ATOM     14  H2  UNL     1      13.073  46.059  39.805  1.00  0.00     0.217 HD
ENDBRANCH   9  13
ENDBRANCH   5   6
ENDBRANCH   4   5
ENDBRANCH   3   4
BRANCH   3  15
HETATM   15  C21 UNL     1      21.477  45.712  43.723  1.00  0.00     0.131 A
HETATM   16  C22 UNL     1      22.018  45.940  42.483  1.00  0.00     0.124 A
HETATM   17  C23 UNL     1      23.261  45.381  42.203  1.00  0.00     0.263 A
HETATM   18  O3  UNL     1      23.764  45.585  41.072  1.00  0.00    -0.268 OA
HETATM   19  N4  UNL     1      23.898  44.649  43.117  1.00  0.00    -0.156 N
HETATM   20  C24 UNL     1      23.374  44.425  44.328  1.00  0.00     0.680 A
ATOM     21  H4  UNL     1      24.808  44.250  42.888  1.00  0.00     0.187 HD
HETATM   22  N6  UNL     1      22.177  44.954  44.617  1.00  0.00    -0.176 N
ATOM     23  H6  UNL     1      21.774  44.783  45.538  1.00  0.00     0.186 HD
BRANCH  20  24
HETATM   24  N5  UNL     1      24.027  43.711  45.178  1.00  0.00    -0.234 N
ATOM     25  H52 UNL     1      24.622  44.133  45.893  1.00  0.00     0.174 HD
ATOM     26  H51 UNL     1      23.952  42.695  45.143  1.00  0.00     0.174 HD
ENDBRANCH  20  24
ENDBRANCH   3  15
BRANCH   1  27
HETATM   27  C11 UNL     1      21.408  48.043  45.358  1.00  0.00     0.103 C
BRANCH  27  28
HETATM   28  C10 UNL     1      21.767  49.064  44.323  1.00  0.00     0.009 C
BRANCH  28  29
HETATM   29  C9  UNL     1      20.882  50.248  44.298  1.00  0.00     0.001 C
BRANCH  29  30
HETATM   30  C8  UNL     1      21.442  51.462  45.043  1.00  0.00     0.004 C
BRANCH  30  31
HETATM   31  C7  UNL     1      22.865  51.255  45.330  1.00  0.00     0.028 C
BRANCH  31  32
HETATM   32  C6  UNL     1      23.382  51.293  46.702  1.00  0.00    -0.009 C
BRANCH  32  33
HETATM   33  C5  UNL     1      23.514  50.147  47.579  1.00  0.00     0.095 C
BRANCH  33  34
HETATM   34  N2  UNL     1      23.442  50.201  48.981  1.00  0.00    -0.307 N
HETATM   35  C4  UNL     1      24.020  51.164  49.744  1.00  0.00     0.100 A
HETATM   36  C3  UNL     1      23.968  51.224  51.098  1.00  0.00     0.035 A
HETATM   37  C2  UNL     1      23.289  50.257  51.775  1.00  0.00     0.094 A
HETATM   38  N1  UNL     1      22.702  49.283  51.037  1.00  0.00    -0.335 N
HETATM   39  C1  UNL     1      21.978  48.256  51.766  1.00  0.00     0.158 C
HETATM   40  C25 UNL     1      22.780  49.263  49.686  1.00  0.00     0.200 A
HETATM   41  N7  UNL     1      22.106  48.177  49.030  1.00  0.00    -0.062 NA
ENDBRANCH  33  34
ENDBRANCH  32  33
ENDBRANCH  31  32
ENDBRANCH  30  31
ENDBRANCH  29  30
ENDBRANCH  28  29
ENDBRANCH  27  28
ENDBRANCH   1  27
TORSDOF 14
ENDMDL