MODEL 4
REMARK VINA RESULT: -5.186043581      3.409     10.838
REMARK  13 active torsions:
REMARK  status: ('A' for Active; 'I' for Inactive)
REMARK    1  A    between atoms: C2_2  and  C3_3
REMARK    2  A    between atoms: C3_3  and  C4_4
REMARK    3  A    between atoms: C4_4  and  C5_5
REMARK    4  A    between atoms: C5_5  and  C6_6
REMARK    5  A    between atoms: C6_6  and  N1_7
REMARK    6  A    between atoms: C9_10  and  N2_11
REMARK    7  A    between atoms: N2_11  and  C10_13
REMARK    8  A    between atoms: C10_13  and  C11_14
REMARK    9  A    between atoms: C11_14  and  N3_15
REMARK   10  A    between atoms: N3_15  and  C12_17
REMARK       I    between atoms: N5_21  and  C14_23
REMARK       I    between atoms: C14_23  and  N7_27
REMARK   11  A    between atoms: N9_34  and  C18_36
REMARK   12  A    between atoms: C18_36  and  C19_37
REMARK   13  A    between atoms: C19_37  and  N10_38
ROOT
HETATM    1  C12 UNL     1      23.330  50.486  46.912  1.00  0.00     0.129 A
HETATM    2  N4  UNL     1      23.511  50.143  48.208  1.00  0.00    -0.175 N
ATOM      3  H4  UNL     1      23.333  50.845  48.926  1.00  0.00     0.186 HD
HETATM    4  C13 UNL     1      23.914  48.923  48.593  1.00  0.00     0.699 A
HETATM    5  N5  UNL     1      24.106  48.591  49.841  1.00  0.00    -0.023 N
ATOM      6  H5  UNL     1      24.411  47.650  50.091  1.00  0.00     0.203 HD
HETATM    7  C14 UNL     1      23.879  49.565  50.833  1.00  0.00     0.685 C
HETATM    8  N6  UNL     1      24.796  50.456  51.001  1.00  0.00    -0.234 N
ATOM      9  H61 UNL     1      24.633  51.161  51.719  1.00  0.00     0.174 HD
ATOM     10  H62 UNL     1      25.637  50.438  50.424  1.00  0.00     0.174 HD
HETATM   11  N7  UNL     1      22.722  49.589  51.627  1.00  0.00    -0.230 N
ATOM     12  H7  UNL     1      22.617  50.355  52.293  1.00  0.00     0.177 HD
HETATM   13  C15 UNL     1      21.672  48.604  51.566  1.00  0.00     0.165 C
HETATM   14  N8  UNL     1      24.143  48.007  47.613  1.00  0.00    -0.186 N
ATOM     15  H8  UNL     1      24.449  47.071  47.881  1.00  0.00     0.184 HD
HETATM   16  C16 UNL     1      23.982  48.283  46.309  1.00  0.00     0.107 A
HETATM   17  C17 UNL     1      24.229  47.345  45.295  1.00  0.00     0.131 A
HETATM   18  N9  UNL     1      24.611  46.204  45.689  1.00  0.00    -0.373 N
ATOM     19  H9  UNL     1      24.697  46.097  46.700  1.00  0.00     0.161 HD
HETATM   20  N11 UNL     1      24.057  47.690  44.002  1.00  0.00    -0.331 N
ATOM     21  H11 UNL     1      24.243  46.987  43.287  1.00  0.00     0.168 HD
HETATM   22  C25 UNL     1      23.653  48.908  43.603  1.00  0.00     0.105 A
HETATM   23 CL1  UNL     1      23.455  49.280  41.896  1.00  0.00    -0.064 Cl
HETATM   24  C26 UNL     1      23.407  49.843  44.579  1.00  0.00     0.060 A
HETATM   25  C27 UNL     1      23.570  49.534  45.916  1.00  0.00     0.042 A
ENDROOT
BRANCH   1  26
HETATM   26  N3  UNL     1      22.975  51.626  46.494  1.00  0.00    -0.374 N
ATOM     27  H3  UNL     1      23.742  52.245  46.229  1.00  0.00     0.161 HD
BRANCH  26  28
HETATM   28  C11 UNL     1      21.672  52.182  46.336  1.00  0.00     0.141 C
BRANCH  28  29
HETATM   29  C10 UNL     1      21.731  53.709  46.427  1.00  0.00     0.139 C
BRANCH  29  30
HETATM   30  N2  UNL     1      22.424  54.249  45.292  1.00  0.00    -0.388 N
ATOM     31  H2  UNL     1      22.028  54.098  44.364  1.00  0.00     0.159 HD
BRANCH  30  32
HETATM   32  C9  UNL     1      23.634  54.984  45.396  1.00  0.00     0.030 A
HETATM   33  C8  UNL     1      24.756  54.390  45.967  1.00  0.00     0.046 A
HETATM   34  C7  UNL     1      25.935  55.085  46.117  1.00  0.00     0.092 A
HETATM   35  N1  UNL     1      26.025  56.355  45.714  1.00  0.00    -0.366 N
HETATM   36  C29 UNL     1      24.940  56.948  45.155  1.00  0.00     0.092 A
HETATM   37  C28 UNL     1      23.733  56.285  44.984  1.00  0.00     0.046 A
BRANCH  35  38
HETATM   38  C6  UNL     1      27.272  57.098  45.878  1.00  0.00     0.128 C
BRANCH  38  39
HETATM   39  C5  UNL     1      28.490  56.178  45.788  1.00  0.00     0.020 C
BRANCH  39  40
HETATM   40  C4  UNL     1      29.284  56.201  47.070  1.00  0.00     0.002 C
BRANCH  40  41
HETATM   41  C3  UNL     1      30.069  54.905  47.290  1.00  0.00    -0.000 C
BRANCH  41  42
HETATM   42  C2  UNL     1      29.015  53.891  47.758  1.00  0.00    -0.005 C
HETATM   43  C1  UNL     1      29.226  53.638  49.254  1.00  0.00     0.005 C
ENDBRANCH  41  42
ENDBRANCH  40  41
ENDBRANCH  39  40
ENDBRANCH  38  39
ENDBRANCH  35  38
ENDBRANCH  30  32
ENDBRANCH  29  30
ENDBRANCH  28  29
ENDBRANCH  26  28
ENDBRANCH   1  26
BRANCH  18  44
HETATM   44  C18 UNL     1      24.940  45.050  44.924  1.00  0.00     0.151 C
BRANCH  44  45
HETATM   45  C19 UNL     1      23.746  44.613  44.062  1.00  0.00     0.292 C
BRANCH  45  46
HETATM   46  N10 UNL     1      22.566  44.549  44.909  1.00  0.00     0.090 N
HETATM   47  C20 UNL     1      22.304  43.176  45.300  1.00  0.00     0.272 C
HETATM   48  C21 UNL     1      21.222  43.166  46.345  1.00  0.00     0.030 C
HETATM   49  C22 UNL     1      20.014  43.974  45.904  1.00  0.00     0.003 C
HETATM   50  C23 UNL     1      20.149  44.383  44.453  1.00  0.00     0.030 C
HETATM   51  C24 UNL     1      21.418  45.145  44.253  1.00  0.00     0.272 C
ENDBRANCH  45  46
ENDBRANCH  44  45
ENDBRANCH  18  44
TORSDOF 13
ENDMDL