MODEL 4
REMARK VINA RESULT: -2.940468383      3.059      6.813
REMARK  12 active torsions:
REMARK  status: ('A' for Active; 'I' for Inactive)
REMARK    1  A    between atoms: C2_2  and  C4_4
REMARK    2  A    between atoms: C4_4  and  C5_5
REMARK    3  A    between atoms: C7_10  and  C8_11
REMARK    4  A    between atoms: C8_11  and  C9_12
REMARK    5  A    between atoms: C12_17  and  C13_18
REMARK    6  A    between atoms: C13_18  and  C14_19
REMARK    7  A    between atoms: C14_19  and  C15_20
REMARK    8  A    between atoms: C15_20  and  N3_21
REMARK    9  A    between atoms: C18_28  and  O2_29
REMARK   10  A    between atoms: C19_31  and  C20_32
REMARK   11  A    between atoms: C20_32  and  C21_33
REMARK   12  A    between atoms: C24_36  and  O3_37
ROOT
HETATM    1  C5  UNL     1      24.375  45.276  44.448  1.00  0.00     0.177 C
HETATM    2  N1  UNL     1      24.136  46.113  45.561  1.00  0.00    -0.346 N
ATOM      3  H1  UNL     1      23.949  45.583  46.412  1.00  0.00     0.163 HD
HETATM    4  C6  UNL     1      24.094  47.488  45.773  1.00  0.00     0.240 C
HETATM    5  O1  UNL     1      24.333  47.934  46.967  1.00  0.00    -0.271 OA
HETATM    6  C7  UNL     1      23.805  48.590  44.814  1.00  0.00     0.171 C
HETATM    7  N2  UNL     1      22.442  48.557  44.516  1.00  0.00    -0.389 N
ATOM      8  H2  UNL     1      22.166  48.711  43.546  1.00  0.00     0.156 HD
HETATM    9  C12 UNL     1      21.434  48.329  45.443  1.00  0.00     0.181 C
HETATM   10  N6  UNL     1      21.123  47.022  45.927  1.00  0.00    -0.344 N
HETATM   11  C17 UNL     1      20.842  47.041  47.410  1.00  0.00     0.154 C
HETATM   12  C18 UNL     1      21.013  45.763  45.378  1.00  0.00     0.163 C
HETATM   13  C19 UNL     1      20.881  45.179  44.044  1.00  0.00     0.067 C
HETATM   14  N7  UNL     1      22.044  44.341  43.704  1.00  0.00    -0.325 N
ATOM     15  H7  UNL     1      21.894  43.733  42.900  1.00  0.00     0.169 HD
HETATM   16  C27 UNL     1      23.292  44.224  44.265  1.00  0.00     0.244 C
HETATM   17  O4  UNL     1      23.636  43.084  44.708  1.00  0.00    -0.271 OA
ENDROOT
BRANCH  13  18
HETATM   18  C20 UNL     1      20.329  45.972  42.942  1.00  0.00     0.100 C
BRANCH  18  19
HETATM   19  C21 UNL     1      18.922  45.558  42.578  1.00  0.00    -0.051 A
HETATM   20  C22 UNL     1      18.367  44.478  43.241  1.00  0.00     0.010 A
HETATM   21  C23 UNL     1      17.092  44.009  43.009  1.00  0.00     0.039 A
HETATM   22  C24 UNL     1      16.362  44.683  42.051  1.00  0.00     0.087 A
HETATM   23  C25 UNL     1      16.880  45.775  41.358  1.00  0.00     0.067 A
HETATM   24 CL1  UNL     1      15.943  46.610  40.161  1.00  0.00    -0.081 Cl
HETATM   25  C26 UNL     1      18.157  46.183  41.645  1.00  0.00     0.034 A
BRANCH  22  26
HETATM   26  O3  UNL     1      15.072  44.311  41.725  1.00  0.00    -0.359 OA
ATOM     27  H3  UNL     1      14.341  44.474  42.309  1.00  0.00     0.217 HD
ENDBRANCH  22  26
ENDBRANCH  18  19
ENDBRANCH  13  18
BRANCH  12  28
HETATM   28  O2  UNL     1      21.029  44.780  46.293  1.00  0.00    -0.345 OA
ATOM     29  H2  UNL     1      20.349  44.130  46.161  1.00  0.00     0.219 HD
ENDBRANCH  12  28
BRANCH   9  30
HETATM   30  C13 UNL     1      20.148  48.990  44.917  1.00  0.00     0.048 C
BRANCH  30  31
HETATM   31  C14 UNL     1      20.416  50.344  44.300  1.00  0.00     0.023 C
BRANCH  31  32
HETATM   32  C15 UNL     1      19.946  51.456  45.253  1.00  0.00     0.122 C
BRANCH  32  33
HETATM   33  N3  UNL     1      20.787  52.620  45.131  1.00  0.00    -0.367 N
HETATM   34  C16 UNL     1      20.832  53.461  46.106  1.00  0.00     0.196 C
HETATM   35  N4  UNL     1      21.669  54.604  45.969  1.00  0.00    -0.067 NA
HETATM   36  N5  UNL     1      20.077  53.284  47.304  1.00  0.00    -0.067 NA
ATOM     37  H3  UNL     1      21.339  52.775  44.287  1.00  0.00     0.161 HD
ENDBRANCH  32  33
ENDBRANCH  31  32
ENDBRANCH  30  31
ENDBRANCH   9  30
BRANCH   1  38
HETATM   38  C4  UNL     1      24.678  45.943  43.133  1.00  0.00     0.038 C
BRANCH  38  39
HETATM   39  C2  UNL     1      23.381  46.142  42.322  1.00  0.00    -0.020 C
HETATM   40  C1  UNL     1      23.199  47.626  42.028  1.00  0.00     0.009 C
HETATM   41  C3  UNL     1      23.489  45.458  40.975  1.00  0.00     0.009 C
ENDBRANCH  38  39
ENDBRANCH   1  38
BRANCH   6  42
HETATM   42  C8  UNL     1      24.415  49.877  45.306  1.00  0.00     0.038 C
BRANCH  42  43
HETATM   43  C9  UNL     1      23.482  50.909  45.829  1.00  0.00    -0.020 C
HETATM   44  C10 UNL     1      23.833  52.333  45.604  1.00  0.00     0.009 C
HETATM   45  C11 UNL     1      23.226  50.727  47.330  1.00  0.00     0.009 C
ENDBRANCH  42  43
ENDBRANCH   6  42
TORSDOF 12
ENDMDL