MODEL 5
REMARK VINA RESULT: 0.502521143      2.535      7.409
REMARK  12 active torsions:
REMARK  status: ('A' for Active; 'I' for Inactive)
REMARK    1  A    between atoms: C2_2  and  C3_3
REMARK    2  A    between atoms: C3_3  and  C4_4
REMARK    3  A    between atoms: C4_4  and  C5_5
REMARK    4  A    between atoms: C5_5  and  C6_6
REMARK    5  A    between atoms: C6_6  and  C7_7
REMARK    6  A    between atoms: C9_12  and  C10_13
REMARK    7  A    between atoms: C19_27  and  C20_28
REMARK    8  A    between atoms: C20_28  and  C21_29
REMARK    9  A    between atoms: C21_29  and  C22_30
REMARK   10  A    between atoms: C22_30  and  C23_31
REMARK   11  A    between atoms: C23_31  and  N4_32
REMARK   12  A    between atoms: C26_41  and  C27_42
ROOT
HETATM    1  C7  UNL     1      21.519  50.010  43.792  1.00  0.00     0.176 C
HETATM    2  N1  UNL     1      22.616  49.076  43.615  1.00  0.00    -0.346 N
ATOM      3  H1  UNL     1      23.368  49.419  43.018  1.00  0.00     0.163 HD
HETATM    4  C8  UNL     1      22.821  47.803  44.114  1.00  0.00     0.245 C
HETATM    5  O1  UNL     1      22.910  46.865  43.220  1.00  0.00    -0.271 OA
HETATM    6  C9  UNL     1      22.955  47.339  45.516  1.00  0.00     0.212 C
HETATM    7  N3  UNL     1      24.040  48.024  46.207  1.00  0.00    -0.343 N
ATOM      8  H3  UNL     1      24.819  48.358  45.639  1.00  0.00     0.163 HD
HETATM    9  C18 UNL     1      24.102  48.264  47.600  1.00  0.00     0.224 C
HETATM   10  O2  UNL     1      25.155  47.954  48.262  1.00  0.00    -0.273 OA
HETATM   11  C19 UNL     1      23.010  48.868  48.403  1.00  0.00     0.095 C
HETATM   12  C24 UNL     1      23.064  50.383  48.350  1.00  0.00     0.136 C
HETATM   13  N5  UNL     1      24.068  50.852  47.426  1.00  0.00    -0.358 N
ATOM     14  H5  UNL     1      25.041  50.661  47.664  1.00  0.00     0.162 HD
HETATM   15  C25 UNL     1      23.828  51.548  46.228  1.00  0.00     0.240 C
HETATM   16  O3  UNL     1      24.647  51.403  45.285  1.00  0.00    -0.271 OA
HETATM   17  C26 UNL     1      22.680  52.439  46.011  1.00  0.00     0.180 C
HETATM   18  N6  UNL     1      22.116  52.394  44.676  1.00  0.00    -0.346 N
ATOM     19  H6  UNL     1      21.666  53.261  44.380  1.00  0.00     0.163 HD
HETATM   20  C30 UNL     1      22.083  51.385  43.739  1.00  0.00     0.241 C
HETATM   21  O4  UNL     1      22.627  51.633  42.593  1.00  0.00    -0.271 OA
ENDROOT
BRANCH   6  22
HETATM   22  C10 UNL     1      23.423  45.895  45.493  1.00  0.00     0.002 A
HETATM   23  C11 UNL     1      24.724  45.509  45.260  1.00  0.00     0.099 A
HETATM   24  N2  UNL     1      24.786  44.149  45.322  1.00  0.00    -0.365 N
HETATM   25  C12 UNL     1      23.545  43.703  45.590  1.00  0.00     0.043 A
ATOM     26  H2  UNL     1      25.618  43.575  45.190  1.00  0.00     0.165 HD
HETATM   27  C13 UNL     1      23.021  42.449  45.760  1.00  0.00     0.030 A
HETATM   28  C17 UNL     1      22.673  44.772  45.702  1.00  0.00     0.001 A
HETATM   29  C14 UNL     1      21.689  42.228  46.032  1.00  0.00     0.002 A
HETATM   30  C15 UNL     1      20.835  43.308  46.140  1.00  0.00     0.001 A
HETATM   31  C16 UNL     1      21.341  44.595  45.971  1.00  0.00     0.014 A
ENDBRANCH   6  22
BRANCH   1  32
HETATM   32  C6  UNL     1      20.682  49.704  44.959  1.00  0.00     0.035 C
BRANCH  32  33
HETATM   33  C5  UNL     1      19.388  48.986  44.636  1.00  0.00     0.002 C
BRANCH  33  34
HETATM   34  C4  UNL     1      19.597  47.509  44.853  1.00  0.00     0.000 C
BRANCH  34  35
HETATM   35  C3  UNL     1      19.575  46.716  43.559  1.00  0.00    -0.000 C
BRANCH  35  36
HETATM   36  C2  UNL     1      18.929  45.366  43.747  1.00  0.00    -0.005 C
HETATM   37  C1  UNL     1      18.026  45.010  42.589  1.00  0.00     0.005 C
ENDBRANCH  35  36
ENDBRANCH  34  35
ENDBRANCH  33  34
ENDBRANCH  32  33
ENDBRANCH   1  32
BRANCH  11  38
HETATM   38  C20 UNL     1      23.118  48.415  49.810  1.00  0.00     0.015 C
BRANCH  38  39
HETATM   39  C21 UNL     1      23.286  49.553  50.793  1.00  0.00     0.002 C
BRANCH  39  40
HETATM   40  C22 UNL     1      22.544  49.176  52.057  1.00  0.00     0.027 C
BRANCH  40  41
HETATM   41  C23 UNL     1      21.532  48.088  51.757  1.00  0.00     0.229 C
BRANCH  41  42
HETATM   42  N4  UNL     1      20.783  47.761  52.946  1.00  0.00    -0.079 N
ATOM     43  H43 UNL     1      21.249  48.091  53.792  1.00  0.00     0.274 HD
ATOM     44  H42 UNL     1      19.928  48.311  53.021  1.00  0.00     0.274 HD
ATOM     45  H41 UNL     1      20.596  46.759  52.980  1.00  0.00     0.274 HD
ENDBRANCH  41  42
ENDBRANCH  40  41
ENDBRANCH  39  40
ENDBRANCH  38  39
ENDBRANCH  11  38
BRANCH  17  46
HETATM   46  C27 UNL     1      23.142  53.854  46.325  1.00  0.00     0.009 C
HETATM   47  C28 UNL     1      24.642  53.902  46.331  1.00  0.00     0.012 C
HETATM   48  C29 UNL     1      22.582  54.890  45.419  1.00  0.00     0.012 C
ENDBRANCH  17  46
TORSDOF 12
ENDMDL