MODEL 4
REMARK VINA RESULT: -6.184711458      2.482      3.818
REMARK  12 active torsions:
REMARK  status: ('A' for Active; 'I' for Inactive)
REMARK    1  A    between atoms: C2_2  and  C4_4
REMARK    2  A    between atoms: C4_4  and  C5_5
REMARK    3  A    between atoms: C7_10  and  C8_11
REMARK    4  A    between atoms: C8_11  and  C9_12
REMARK    5  A    between atoms: C9_12  and  C10_13
REMARK    6  A    between atoms: C10_13  and  C11_14
REMARK    7  A    between atoms: C11_14  and  C12_15
REMARK    8  A    between atoms: C12_15  and  C13_16
REMARK    9  A    between atoms: C13_16  and  O2_17
REMARK   10  A    between atoms: C18_29  and  C19_30
REMARK   11  A    between atoms: C19_30  and  C21_32
REMARK   12  A    between atoms: C21_32  and  C22_33
ROOT
HETATM    1  C5  UNL     1      22.568  44.425  45.044  1.00  0.00     0.177 C
HETATM    2  N1  UNL     1      24.027  44.350  45.245  1.00  0.00    -0.346 N
ATOM      3  H1  UNL     1      24.372  43.702  45.953  1.00  0.00     0.163 HD
HETATM    4  C6  UNL     1      24.974  45.098  44.540  1.00  0.00     0.241 C
HETATM    5  O1  UNL     1      25.929  44.447  43.997  1.00  0.00    -0.271 OA
HETATM    6  C7  UNL     1      25.010  46.566  44.340  1.00  0.00     0.177 C
HETATM    7  N2  UNL     1      24.618  47.295  45.532  1.00  0.00    -0.343 N
ATOM      8  H2  UNL     1      24.834  46.829  46.413  1.00  0.00     0.163 HD
HETATM    9  C14 UNL     1      23.989  48.538  45.660  1.00  0.00     0.264 C
HETATM   10  O3  UNL     1      24.667  49.432  46.297  1.00  0.00    -0.266 OA
HETATM   11  C15 UNL     1      22.652  48.953  45.161  1.00  0.00     0.076 C
HETATM   12  C16 UNL     1      22.592  49.313  43.734  1.00  0.00     0.074 C
HETATM   13  N3  UNL     1      21.594  48.147  45.706  1.00  0.00    -0.324 N
ATOM     14  H3  UNL     1      21.715  47.982  46.705  1.00  0.00     0.169 HD
HETATM   15  C17 UNL     1      20.460  47.541  45.219  1.00  0.00     0.245 C
HETATM   16  O4  UNL     1      19.374  47.944  45.781  1.00  0.00    -0.271 OA
HETATM   17  C18 UNL     1      20.226  46.524  44.191  1.00  0.00     0.181 C
HETATM   18  N5  UNL     1      21.360  46.077  43.448  1.00  0.00    -0.346 N
ATOM     19  H5  UNL     1      21.567  46.595  42.594  1.00  0.00     0.163 HD
HETATM   20  C30 UNL     1      22.229  45.009  43.747  1.00  0.00     0.241 C
HETATM   21  O5  UNL     1      22.810  44.468  42.748  1.00  0.00    -0.271 OA
ENDROOT
BRANCH  17  22
HETATM   22  C19 UNL     1      19.068  46.806  43.253  1.00  0.00     0.018 C
HETATM   23  C20 UNL     1      19.030  48.199  42.710  1.00  0.00     0.012 C
BRANCH  22  24
HETATM   24  C21 UNL     1      18.820  45.776  42.220  1.00  0.00     0.047 C
BRANCH  24  25
HETATM   25  C22 UNL     1      17.420  45.414  41.945  1.00  0.00    -0.030 A
HETATM   26  C23 UNL     1      16.830  44.227  42.434  1.00  0.00     0.096 A
HETATM   27  N4  UNL     1      15.542  44.183  42.065  1.00  0.00    -0.365 N
HETATM   28  C24 UNL     1      15.223  45.275  41.352  1.00  0.00     0.043 A
ATOM     29  H4  UNL     1      14.896  43.427  42.294  1.00  0.00     0.165 HD
HETATM   30  C25 UNL     1      14.109  45.754  40.725  1.00  0.00     0.033 A
HETATM   31  C29 UNL     1      16.385  46.021  41.286  1.00  0.00     0.001 A
HETATM   32  C26 UNL     1      14.084  46.945  40.027  1.00  0.00     0.044 A
HETATM   33  C27 UNL     1      15.246  47.705  39.950  1.00  0.00     0.117 A
HETATM   34  F1  UNL     1      15.304  48.882  39.286  1.00  0.00    -0.206 F
HETATM   35  C28 UNL     1      16.349  47.217  40.580  1.00  0.00     0.056 A
ENDBRANCH  24  25
ENDBRANCH  22  24
ENDBRANCH  17  22
BRANCH   1  36
HETATM   36  C4  UNL     1      21.857  43.237  45.490  1.00  0.00     0.038 C
BRANCH  36  37
HETATM   37  C2  UNL     1      20.517  43.233  46.054  1.00  0.00    -0.020 C
HETATM   38  C1  UNL     1      20.204  44.114  47.207  1.00  0.00     0.009 C
HETATM   39  C3  UNL     1      19.384  43.380  45.054  1.00  0.00     0.009 C
ENDBRANCH  36  37
ENDBRANCH   1  36
BRANCH   6  40
HETATM   40  C8  UNL     1      26.499  46.930  44.106  1.00  0.00     0.035 C
BRANCH  40  41
HETATM   41  C9  UNL     1      27.390  46.234  45.055  1.00  0.00     0.002 C
BRANCH  41  42
HETATM   42  C10 UNL     1      28.719  45.891  44.364  1.00  0.00     0.000 C
BRANCH  42  43
HETATM   43  C11 UNL     1      29.862  46.089  45.304  1.00  0.00     0.002 C
BRANCH  43  44
HETATM   44  C12 UNL     1      30.207  47.506  45.557  1.00  0.00     0.026 C
BRANCH  44  45
HETATM   45  C13 UNL     1      30.003  48.000  46.948  1.00  0.00     0.164 C
BRANCH  45  46
HETATM   46  O2  UNL     1      30.338  49.305  47.184  1.00  0.00    -0.401 OA
ATOM     47  H2  UNL     1      29.940  49.711  47.946  1.00  0.00     0.209 HD
ENDBRANCH  45  46
ENDBRANCH  44  45
ENDBRANCH  43  44
ENDBRANCH  42  43
ENDBRANCH  41  42
ENDBRANCH  40  41
ENDBRANCH   6  40
TORSDOF 12
ENDMDL