MODEL 1
REMARK VINA RESULT: -9.170420742      0.000      0.000
REMARK  12 active torsions:
REMARK  status: ('A' for Active; 'I' for Inactive)
REMARK    1  A    between atoms: C2_2  and  N1_3
REMARK       I    between atoms: C3_5  and  N2_6
REMARK       I    between atoms: C3_5  and  N8_31
REMARK    2  A    between atoms: N2_6  and  C4_8
REMARK    3  A    between atoms: C4_8  and  C5_9
REMARK    4  A    between atoms: C5_9  and  C6_10
REMARK    5  A    between atoms: C6_10  and  N3_11
REMARK    6  A    between atoms: N3_11  and  C7_13
REMARK    7  A    between atoms: C8_18  and  C9_19
REMARK    8  A    between atoms: C9_19  and  C10_20
REMARK    9  A    between atoms: C15_25  and  C16_26
REMARK   10  A    between atoms: N8_31  and  S1_33
REMARK   11  A    between atoms: S1_33  and  C17_36
REMARK   12  A    between atoms: C22_42  and  O3_43
ROOT
HETATM    1  C4  UNL     1      22.040  43.919  44.744  1.00  0.00     0.139 C
ENDROOT
BRANCH   1   2
HETATM    2  N2  UNL     1      23.175  44.467  45.444  1.00  0.00    -0.225 N
HETATM    3  C3  UNL     1      23.729  45.689  44.972  1.00  0.00     0.687 C
HETATM    4  N1  UNL     1      24.969  45.823  44.852  1.00  0.00    -0.205 N
HETATM    5  N8  UNL     1      22.824  46.729  44.651  1.00  0.00    -0.113 N
ATOM      6  H1  UNL     1      25.490  44.989  45.123  1.00  0.00     0.183 HD
ATOM      7  H8  UNL     1      22.799  47.108  43.704  1.00  0.00     0.197 HD
ATOM      8  H2  UNL     1      23.571  43.990  46.255  1.00  0.00     0.177 HD
BRANCH   4   9
HETATM    9  C2  UNL     1      25.799  46.876  44.422  1.00  0.00     0.074 C
HETATM   10  C1  UNL     1      27.276  46.497  44.388  1.00  0.00     0.055 C
ENDBRANCH   4   9
BRANCH   5  11
HETATM   11  S1  UNL     1      21.765  47.358  45.858  1.00  0.00     0.279 S
HETATM   12  O1  UNL     1      20.457  47.816  45.236  1.00  0.00    -0.200 OA
HETATM   13  O2  UNL     1      21.406  46.249  46.816  1.00  0.00    -0.200 OA
BRANCH  11  14
HETATM   14  C17 UNL     1      22.562  48.680  46.659  1.00  0.00     0.114 A
HETATM   15  C18 UNL     1      22.902  48.652  48.006  1.00  0.00     0.047 A
HETATM   16  C19 UNL     1      23.548  49.713  48.598  1.00  0.00     0.012 A
HETATM   17 BR1  UNL     1      23.993  49.633  50.440  1.00  0.00    -0.051 Br
HETATM   18  C20 UNL     1      23.871  50.824  47.867  1.00  0.00     0.022 A
HETATM   19  C21 UNL     1      23.550  50.882  46.543  1.00  0.00     0.040 A
HETATM   20  C22 UNL     1      22.901  49.810  45.954  1.00  0.00     0.091 A
BRANCH  20  21
HETATM   21  O3  UNL     1      22.588  49.887  44.625  1.00  0.00    -0.354 OA
HETATM   22  C23 UNL     1      21.593  50.747  44.101  1.00  0.00     0.210 C
ENDBRANCH  20  21
ENDBRANCH  11  14
ENDBRANCH   5  11
ENDBRANCH   1   2
BRANCH   1  23
HETATM   23  C5  UNL     1      21.344  42.859  45.587  1.00  0.00     0.040 C
BRANCH  23  24
HETATM   24  C6  UNL     1      20.143  43.441  46.253  1.00  0.00     0.123 C
BRANCH  24  25
HETATM   25  N3  UNL     1      19.559  44.531  45.517  1.00  0.00    -0.374 N
ATOM     26  H3  UNL     1      19.893  45.483  45.660  1.00  0.00     0.161 HD
BRANCH  25  27
HETATM   27  C7  UNL     1      18.613  44.299  44.679  1.00  0.00     0.131 A
HETATM   28  N4  UNL     1      17.552  43.491  44.783  1.00  0.00    -0.285 N
HETATM   29  N5  UNL     1      16.812  43.544  43.705  1.00  0.00    -0.302 N
ATOM     30  H4  UNL     1      17.346  42.910  45.596  1.00  0.00     0.188 HD
HETATM   31  C8  UNL     1      17.375  44.423  42.801  1.00  0.00     0.043 A
ATOM     32  H5  UNL     1      15.952  43.017  43.556  1.00  0.00     0.186 HD
HETATM   33  C15 UNL     1      18.502  44.903  43.406  1.00  0.00     0.073 A
BRANCH  31  34
HETATM   34  C9  UNL     1      16.842  44.617  41.424  1.00  0.00     0.064 C
BRANCH  34  35
HETATM   35  C10 UNL     1      15.985  45.812  41.275  1.00  0.00    -0.009 C
HETATM   36  C11 UNL     1      16.126  46.455  39.894  1.00  0.00     0.005 C
HETATM   37  C12 UNL     1      14.993  47.464  39.933  1.00  0.00     0.000 C
HETATM   38  C13 UNL     1      14.033  47.044  41.007  1.00  0.00     0.000 C
HETATM   39  C14 UNL     1      14.514  45.618  41.352  1.00  0.00     0.005 C
ENDBRANCH  34  35
ENDBRANCH  31  34
BRANCH  33  40
HETATM   40  C16 UNL     1      19.444  45.890  42.942  1.00  0.00     0.126 C
HETATM   41  N6  UNL     1      19.110  47.138  42.909  1.00  0.00    -0.387 N
ATOM     42  H62 UNL     1      18.181  47.362  43.269  1.00  0.00     0.157 HD
ATOM     43  H61 UNL     1      19.775  47.838  42.581  1.00  0.00     0.157 HD
HETATM   44  N7  UNL     1      20.722  45.583  42.447  1.00  0.00    -0.082 NA
ENDBRANCH  33  40
ENDBRANCH  25  27
ENDBRANCH  24  25
ENDBRANCH  23  24
ENDBRANCH   1  23
TORSDOF 12
ENDMDL