MODEL 5
REMARK VINA RESULT: -3.675796753      4.563      7.545
REMARK  12 active torsions:
REMARK  status: ('A' for Active; 'I' for Inactive)
REMARK       I    between atoms: C1_4  and  N3_6
REMARK    1  A    between atoms: N3_6  and  C2_8
REMARK    2  A    between atoms: C4_11  and  C5_12
REMARK    3  A    between atoms: C5_12  and  C6_13
REMARK    4  A    between atoms: C5_12  and  C13_20
REMARK    5  A    between atoms: C6_13  and  C7_14
REMARK       I    between atoms: C13_20  and  N4_22
REMARK    6  A    between atoms: N4_22  and  C14_24
REMARK    7  A    between atoms: C19_29  and  C20_30
REMARK    8  A    between atoms: C20_30  and  C21_31
REMARK    9  A    between atoms: C21_31  and  C22_32
REMARK   10  A    between atoms: C22_32  and  C23_33
REMARK   11  A    between atoms: C23_33  and  N5_34
REMARK   12  A    between atoms: C24_38  and  N6_39
REMARK       I    between atoms: C25_41  and  N8_43
ROOT
HETATM    1  C5  UNL     1      20.191  46.025  43.524  1.00  0.00     0.011 C
ENDROOT
BRANCH   1   2
HETATM    2  C4  UNL     1      20.271  46.413  44.896  1.00  0.00     0.129 C
HETATM    3  S1  UNL     1      18.747  45.848  45.771  1.00  0.00    -0.151 SA
HETATM    4  C3  UNL     1      19.477  44.514  46.751  1.00  0.00     0.106 C
HETATM    5  C2  UNL     1      20.943  44.638  46.490  1.00  0.00     0.141 C
HETATM    6  C24 UNL     1      21.234  45.973  45.906  1.00  0.00     0.031 C
BRANCH   5   7
HETATM    7  N3  UNL     1      21.522  43.500  45.873  1.00  0.00    -0.354 N
HETATM    8  C1  UNL     1      22.864  43.121  45.863  1.00  0.00     0.182 C
HETATM    9  N1  UNL     1      23.667  43.354  44.893  1.00  0.00    -0.374 N
HETATM   10  N2  UNL     1      23.374  42.417  47.019  1.00  0.00    -0.064 NA
ATOM     11  H12 UNL     1      24.649  43.077  44.887  1.00  0.00     0.158 HD
ATOM     12  H11 UNL     1      23.307  43.851  44.078  1.00  0.00     0.158 HD
ATOM     13  H3  UNL     1      20.878  42.883  45.376  1.00  0.00     0.163 HD
ENDBRANCH   5   7
BRANCH   6  14
HETATM   14  N6  UNL     1      22.613  46.178  45.737  1.00  0.00    -0.334 N
HETATM   15  C25 UNL     1      23.358  47.162  46.004  1.00  0.00     0.190 C
HETATM   16  N7  UNL     1      24.755  47.023  45.692  1.00  0.00    -0.063 NA
HETATM   17  N8  UNL     1      22.989  48.397  46.586  1.00  0.00    -0.355 N
HETATM   18  C26 UNL     1      23.317  48.766  47.972  1.00  0.00     0.125 C
HETATM   19  C29 UNL     1      22.277  49.506  46.009  1.00  0.00     0.125 C
HETATM   20  C27 UNL     1      23.688  50.222  47.768  1.00  0.00     0.021 C
HETATM   21  C28 UNL     1      22.583  50.715  46.870  1.00  0.00     0.021 C
ATOM     22  H6  UNL     1      23.104  45.386  45.322  1.00  0.00     0.168 HD
ENDBRANCH   6  14
ENDBRANCH   1   2
BRANCH   1  23
HETATM   23  C6  UNL     1      21.422  45.586  42.754  1.00  0.00     0.080 C
BRANCH  23  24
HETATM   24  C7  UNL     1      22.505  46.597  42.734  1.00  0.00    -0.054 A
HETATM   25  C8  UNL     1      23.794  46.046  42.637  1.00  0.00     0.007 A
HETATM   26  C9  UNL     1      24.908  46.830  42.621  1.00  0.00     0.001 A
HETATM   27  C10 UNL     1      24.761  48.195  42.703  1.00  0.00     0.000 A
HETATM   28  C11 UNL     1      23.501  48.744  42.798  1.00  0.00     0.001 A
HETATM   29  C12 UNL     1      22.382  47.939  42.812  1.00  0.00     0.007 A
ENDBRANCH  23  24
ENDBRANCH   1  23
BRANCH   1  30
HETATM   30  C13 UNL     1      18.977  45.349  42.993  1.00  0.00     0.245 C
HETATM   31  O1  UNL     1      18.970  44.086  42.990  1.00  0.00    -0.268 OA
HETATM   32  N4  UNL     1      17.821  45.975  42.485  1.00  0.00    -0.352 N
ATOM     33  H4  UNL     1      17.794  46.994  42.469  1.00  0.00     0.163 HD
BRANCH  32  34
HETATM   34  C14 UNL     1      16.665  45.251  41.984  1.00  0.00     0.088 C
HETATM   35  C15 UNL     1      17.186  44.217  41.029  1.00  0.00     0.025 C
HETATM   36  C16 UNL     1      17.049  44.578  39.599  1.00  0.00     0.002 C
HETATM   37  C17 UNL     1      17.127  46.039  39.320  1.00  0.00     0.001 C
HETATM   38  C18 UNL     1      16.297  46.908  40.219  1.00  0.00     0.007 C
HETATM   39  C19 UNL     1      15.705  46.213  41.411  1.00  0.00     0.008 C
BRANCH  39  40
HETATM   40  C20 UNL     1      14.354  45.686  41.059  1.00  0.00     0.007 C
BRANCH  40  41
HETATM   41  C21 UNL     1      13.286  46.745  40.988  1.00  0.00     0.002 C
BRANCH  41  42
HETATM   42  C22 UNL     1      13.413  47.611  39.758  1.00  0.00     0.027 C
BRANCH  42  43
HETATM   43  C23 UNL     1      12.119  47.798  39.028  1.00  0.00     0.229 C
BRANCH  43  44
HETATM   44  N5  UNL     1      12.305  48.071  37.619  1.00  0.00    -0.079 N
ATOM     45  H53 UNL     1      12.983  48.819  37.479  1.00  0.00     0.274 HD
ATOM     46  H52 UNL     1      12.803  47.308  37.162  1.00  0.00     0.274 HD
ATOM     47  H51 UNL     1      11.429  48.276  37.138  1.00  0.00     0.274 HD
ENDBRANCH  43  44
ENDBRANCH  42  43
ENDBRANCH  41  42
ENDBRANCH  40  41
ENDBRANCH  39  40
ENDBRANCH  32  34
ENDBRANCH   1  30
TORSDOF 12
ENDMDL