MODEL 5
REMARK VINA RESULT: -7.729996407      1.652      2.707
REMARK  11 active torsions:
REMARK  status: ('A' for Active; 'I' for Inactive)
REMARK    1  A    between atoms: C2_2  and  N1_3
REMARK    2  A    between atoms: N1_3  and  C3_4
REMARK       I    between atoms: N1_3  and  C14_24
REMARK    3  A    between atoms: C5_8  and  C6_9
REMARK       I    between atoms: C14_24  and  N6_26
REMARK    4  A    between atoms: N6_26  and  C15_28
REMARK    5  A    between atoms: C15_28  and  C16_29
REMARK    6  A    between atoms: C16_29  and  C17_30
REMARK    7  A    between atoms: C17_30  and  C18_31
REMARK    8  A    between atoms: C18_31  and  C19_32
REMARK    9  A    between atoms: C19_32  and  C20_33
REMARK   10  A    between atoms: C20_33  and  N7_34
REMARK       I    between atoms: N7_34  and  C21_36
REMARK       I    between atoms: C21_36  and  N9_40
REMARK   11  A    between atoms: N9_40  and  C22_42
ROOT
HETATM    1  N1  UNL     1      22.939  45.007  44.514  1.00  0.00    -0.307 N
HETATM    2  C14 UNL     1      21.667  44.783  43.958  1.00  0.00     0.322 C
HETATM    3  O1  UNL     1      21.274  45.531  43.028  1.00  0.00    -0.247 OA
HETATM    4  N6  UNL     1      20.792  43.755  44.388  1.00  0.00    -0.343 N
ATOM      5  H6  UNL     1      21.083  43.132  45.142  1.00  0.00     0.164 HD
ENDROOT
BRANCH   1   6
HETATM    6  C2  UNL     1      23.330  44.093  45.571  1.00  0.00     0.128 C
HETATM    7  C1  UNL     1      24.752  43.651  45.469  1.00  0.00     0.027 C
ENDBRANCH   1   6
BRANCH   1   8
HETATM    8  C3  UNL     1      23.768  46.055  44.060  1.00  0.00     0.138 C
HETATM    9  C4  UNL     1      23.604  47.429  44.448  1.00  0.00     0.099 C
HETATM   10  N2  UNL     1      23.703  47.740  45.859  1.00  0.00    -0.346 N
HETATM   11  N5  UNL     1      22.548  48.267  44.039  1.00  0.00    -0.255 NA
HETATM   12  C5  UNL     1      23.453  49.046  45.931  1.00  0.00     0.057 C
ATOM     13  H2  UNL     1      23.916  47.102  46.625  1.00  0.00     0.167 HD
HETATM   14  C10 UNL     1      23.191  49.521  44.572  1.00  0.00     0.142 C
HETATM   15  C11 UNL     1      22.349  50.691  44.344  1.00  0.00     0.258 C
HETATM   16  N4  UNL     1      21.027  50.644  44.877  1.00  0.00    -0.072 N
HETATM   17  C12 UNL     1      20.429  49.406  44.521  1.00  0.00     0.247 C
ATOM     18  H42 UNL     1      21.008  50.810  45.883  1.00  0.00     0.277 HD
ATOM     19  H41 UNL     1      20.464  51.444  44.590  1.00  0.00     0.277 HD
HETATM   20  C13 UNL     1      21.319  48.204  44.770  1.00  0.00     0.125 C
BRANCH  12  21
HETATM   21  C6  UNL     1      23.477  49.692  47.240  1.00  0.00     0.058 A
HETATM   22  C7  UNL     1      23.479  49.033  48.475  1.00  0.00     0.052 A
HETATM   23  C8  UNL     1      23.518  49.941  49.486  1.00  0.00     0.028 A
HETATM   24 BR1  UNL     1      23.538  49.623  51.380  1.00  0.00    -0.050 Br
HETATM   25  C9  UNL     1      23.541  51.179  48.897  1.00  0.00     0.107 A
HETATM   26  N3  UNL     1      23.516  50.995  47.558  1.00  0.00    -0.363 N
ATOM     27  H3  UNL     1      23.527  51.752  46.874  1.00  0.00     0.165 HD
ENDBRANCH  12  21
ENDBRANCH   1   8
BRANCH   4  28
HETATM   28  C15 UNL     1      19.479  43.570  43.769  1.00  0.00     0.124 C
BRANCH  28  29
HETATM   29  C16 UNL     1      18.462  44.375  44.501  1.00  0.00     0.020 C
BRANCH  29  30
HETATM   30  C17 UNL     1      17.640  45.255  43.621  1.00  0.00     0.002 C
BRANCH  30  31
HETATM   31  C18 UNL     1      18.310  45.577  42.309  1.00  0.00     0.002 C
BRANCH  31  32
HETATM   32  C19 UNL     1      17.443  45.312  41.119  1.00  0.00     0.020 C
BRANCH  32  33
HETATM   33  C20 UNL     1      16.617  44.077  41.303  1.00  0.00     0.138 C
BRANCH  33  34
HETATM   34  N7  UNL     1      15.222  44.381  41.070  1.00  0.00    -0.227 N
HETATM   35  C21 UNL     1      14.802  45.728  41.020  1.00  0.00     0.668 C
HETATM   36  N8  UNL     1      14.572  46.343  42.125  1.00  0.00    -0.235 N
HETATM   37  N9  UNL     1      14.650  46.348  39.750  1.00  0.00    -0.219 N
ATOM     38  H82 UNL     1      14.681  45.899  43.035  1.00  0.00     0.174 HD
ATOM     39  H81 UNL     1      14.268  47.316  42.088  1.00  0.00     0.174 HD
ATOM     40  H9  UNL     1      14.693  45.804  38.889  1.00  0.00     0.178 HD
ATOM     41  H7  UNL     1      14.548  43.626  40.942  1.00  0.00     0.177 HD
BRANCH  37  42
HETATM   42  C22 UNL     1      14.432  47.782  39.723  1.00  0.00     0.036 C
HETATM   43  C23 UNL     1      15.748  48.514  39.784  1.00  0.00     0.038 C
HETATM   44  C24 UNL     1      13.536  48.174  40.902  1.00  0.00     0.038 C
HETATM   45  C25 UNL     1      13.707  48.212  38.472  1.00  0.00     0.038 C
ENDBRANCH  37  42
ENDBRANCH  33  34
ENDBRANCH  32  33
ENDBRANCH  31  32
ENDBRANCH  30  31
ENDBRANCH  29  30
ENDBRANCH  28  29
ENDBRANCH   4  28
TORSDOF 11
ENDMDL