MODEL 2
REMARK VINA RESULT: -11.264633495      0.763      1.271
REMARK  13 active torsions:
REMARK  status: ('A' for Active; 'I' for Inactive)
REMARK    1  A    between atoms: C2_7  and  N3_8
REMARK    2  A    between atoms: C3_13  and  N5_14
REMARK    3  A    between atoms: N5_14  and  C4_16
REMARK    4  A    between atoms: C4_16  and  C5_17
REMARK    5  A    between atoms: C5_17  and  C6_18
REMARK    6  A    between atoms: C6_18  and  C7_19
REMARK    7  A    between atoms: C9_21  and  C10_22
REMARK    8  A    between atoms: N6_34  and  C21_35
REMARK    9  A    between atoms: C21_35  and  C22_36
REMARK   10  A    between atoms: C22_36  and  C23_37
REMARK   11  A    between atoms: C23_37  and  C24_38
REMARK   12  A    between atoms: C24_38  and  C25_39
REMARK   13  A    between atoms: C25_39  and  N7_40
ROOT
HETATM    1  C7  UNL     1      21.760  45.928  43.164  1.00  0.00     0.111 C
HETATM    2  C8  UNL     1      21.989  47.393  43.425  1.00  0.00     0.016 C
HETATM    3  C9  UNL     1      21.954  47.680  44.708  1.00  0.00     0.041 C
HETATM    4  C20 UNL     1      21.391  46.512  45.349  1.00  0.00     0.255 C
HETATM    5  O1  UNL     1      21.143  46.273  46.554  1.00  0.00    -0.267 OA
HETATM    6  N6  UNL     1      21.092  45.516  44.309  1.00  0.00    -0.340 N
ENDROOT
BRANCH   1   7
HETATM    7  C6  UNL     1      23.116  45.423  42.815  1.00  0.00     0.031 C
BRANCH   7   8
HETATM    8  C5  UNL     1      24.241  46.377  42.798  1.00  0.00     0.022 C
BRANCH   8   9
HETATM    9  C4  UNL     1      24.983  46.312  44.166  1.00  0.00     0.138 C
BRANCH   9  10
HETATM   10  N5  UNL     1      26.346  46.479  43.863  1.00  0.00    -0.225 N
ATOM     11  H5  UNL     1      26.515  46.946  42.971  1.00  0.00     0.177 HD
BRANCH  10  12
HETATM   12  C3  UNL     1      27.374  46.172  44.466  1.00  0.00     0.707 A
HETATM   13  N4  UNL     1      28.334  47.062  44.781  1.00  0.00    -0.022 N
HETATM   14  C2  UNL     1      29.433  46.667  45.443  1.00  0.00     0.705 A
ATOM     15  H4  UNL     1      28.225  48.041  44.516  1.00  0.00     0.203 HD
HETATM   16  N2  UNL     1      29.643  45.411  45.818  1.00  0.00    -0.022 N
HETATM   17  C1  UNL     1      28.679  44.463  45.510  1.00  0.00     0.705 A
ATOM     18  H2  UNL     1      30.492  45.150  46.320  1.00  0.00     0.203 HD
HETATM   19  N1  UNL     1      28.849  43.297  45.854  1.00  0.00    -0.234 N
HETATM   20  N9  UNL     1      27.583  44.874  44.848  1.00  0.00    -0.022 N
ATOM     21  H12 UNL     1      29.680  42.986  46.356  1.00  0.00     0.174 HD
ATOM     22  H11 UNL     1      28.140  42.601  45.628  1.00  0.00     0.174 HD
ATOM     23  H9  UNL     1      26.870  44.182  44.619  1.00  0.00     0.203 HD
BRANCH  14  24
HETATM   24  N3  UNL     1      30.343  47.561  45.736  1.00  0.00    -0.234 N
ATOM     25  H32 UNL     1      31.260  47.241  46.047  1.00  0.00     0.174 HD
ATOM     26  H31 UNL     1      30.099  48.547  45.641  1.00  0.00     0.174 HD
ENDBRANCH  14  24
ENDBRANCH  10  12
ENDBRANCH   9  10
ENDBRANCH   8   9
ENDBRANCH   7   8
ENDBRANCH   1   7
BRANCH   6  27
HETATM   27  C21 UNL     1      20.156  44.445  44.545  1.00  0.00     0.127 C
BRANCH  27  28
HETATM   28  C22 UNL     1      18.735  44.746  44.715  1.00  0.00     0.020 C
BRANCH  28  29
HETATM   29  C23 UNL     1      17.952  44.266  43.500  1.00  0.00     0.003 C
BRANCH  29  30
HETATM   30  C24 UNL     1      18.043  45.189  42.325  1.00  0.00     0.022 C
BRANCH  30  31
HETATM   31  C25 UNL     1      17.144  44.688  41.201  1.00  0.00     0.148 C
BRANCH  31  32
HETATM   32  N7  UNL     1      16.055  45.579  40.927  1.00  0.00    -0.300 N
HETATM   33  C26 UNL     1      14.828  45.178  41.368  1.00  0.00     0.112 A
HETATM   34  C27 UNL     1      13.698  45.950  41.169  1.00  0.00     0.048 A
HETATM   35  C28 UNL     1      13.821  47.146  40.512  1.00  0.00     0.104 A
HETATM   36 CL1  UNL     1      12.407  48.162  40.237  1.00  0.00    -0.078 Cl
HETATM   37  C29 UNL     1      15.067  47.519  40.083  1.00  0.00     0.281 A
HETATM   38  O2  UNL     1      15.233  48.618  39.470  1.00  0.00    -0.265 OA
HETATM   39  N8  UNL     1      16.110  46.725  40.310  1.00  0.00    -0.263 N
ATOM     40  H8  UNL     1      17.021  47.037  39.975  1.00  0.00     0.190 HD
ENDBRANCH  31  32
ENDBRANCH  30  31
ENDBRANCH  29  30
ENDBRANCH  28  29
ENDBRANCH  27  28
ENDBRANCH   6  27
BRANCH   3  41
HETATM   41  C10 UNL     1      22.174  49.050  45.160  1.00  0.00    -0.010 A
HETATM   42  C11 UNL     1      21.848  50.105  44.275  1.00  0.00     0.013 A
HETATM   43  C12 UNL     1      22.027  51.421  44.574  1.00  0.00     0.002 A
HETATM   44  C13 UNL     1      22.545  51.769  45.782  1.00  0.00     0.012 A
HETATM   45  C14 UNL     1      22.884  50.779  46.680  1.00  0.00    -0.025 A
HETATM   46  C15 UNL     1      23.461  51.123  47.895  1.00  0.00     0.012 A
HETATM   47  C19 UNL     1      22.695  49.420  46.353  1.00  0.00    -0.015 A
HETATM   48  C16 UNL     1      23.859  50.165  48.791  1.00  0.00     0.001 A
HETATM   49  C17 UNL     1      23.693  48.836  48.497  1.00  0.00     0.001 A
HETATM   50  C18 UNL     1      23.109  48.504  47.268  1.00  0.00     0.013 A
ENDBRANCH   3  41
TORSDOF 13
ENDMDL