MODEL 1
REMARK VINA RESULT: -8.116311020      0.000      0.000
REMARK  14 active torsions:
REMARK  status: ('A' for Active; 'I' for Inactive)
REMARK    1  A    between atoms: C3_5  and  C4_6
REMARK    2  A    between atoms: C11_14  and  N2_15
REMARK    3  A    between atoms: N2_15  and  C12_17
REMARK    4  A    between atoms: C12_17  and  C13_18
REMARK    5  A    between atoms: N3_19  and  C14_21
REMARK    6  A    between atoms: C15_24  and  N5_25
REMARK    7  A    between atoms: N5_25  and  C16_26
REMARK    8  A    between atoms: C16_26  and  C17_27
REMARK    9  A    between atoms: C17_27  and  C18_28
REMARK   10  A    between atoms: C18_28  and  N6_29
REMARK   11  A    between atoms: C22_36  and  C23_37
REMARK   12  A    between atoms: C23_37  and  C24_38
REMARK   13  A    between atoms: C24_38  and  N7_39
REMARK   14  A    between atoms: C28_48  and  C29_49
ROOT
HETATM    1  C14 UNL     1      22.849  49.304  45.435  1.00  0.00     0.684 A
HETATM    2  N4  UNL     1      23.261  50.543  45.253  1.00  0.00    -0.163 N
ATOM      3  H4  UNL     1      23.323  50.933  44.312  1.00  0.00     0.187 HD
HETATM    4  C15 UNL     1      23.606  51.304  46.345  1.00  0.00     0.204 A
HETATM    5  C19 UNL     1      23.522  50.766  47.612  1.00  0.00     0.050 A
HETATM    6  C20 UNL     1      23.910  51.517  48.725  1.00  0.00     0.019 A
HETATM    7  C21 UNL     1      23.856  50.929  49.969  1.00  0.00     0.008 A
HETATM    8  C22 UNL     1      23.421  49.629  50.108  1.00  0.00    -0.054 A
HETATM    9  C26 UNL     1      23.012  48.846  49.007  1.00  0.00     0.038 A
HETATM   10  C27 UNL     1      23.103  49.492  47.780  1.00  0.00     0.064 A
HETATM   11  N10 UNL     1      22.760  48.745  46.693  1.00  0.00    -0.191 N
ATOM     12  H10 UNL     1      22.441  47.783  46.809  1.00  0.00     0.184 HD
ENDROOT
BRANCH   1  13
HETATM   13  N3  UNL     1      22.409  48.652  44.469  1.00  0.00    -0.204 N
HETATM   14  C13 UNL     1      22.409  48.332  43.173  1.00  0.00     0.098 C
ATOM     15  H3  UNL     1      21.679  48.065  44.874  1.00  0.00     0.183 HD
BRANCH  14  16
HETATM   16  C12 UNL     1      23.346  47.477  42.396  1.00  0.00     0.165 C
BRANCH  16  17
HETATM   17  N2  UNL     1      22.954  46.116  42.397  1.00  0.00    -0.384 N
ATOM     18  H2  UNL     1      23.588  45.460  41.940  1.00  0.00     0.160 HD
BRANCH  17  19
HETATM   19  C11 UNL     1      21.860  45.602  42.923  1.00  0.00     0.043 A
HETATM   20  C10 UNL     1      20.662  45.725  42.287  1.00  0.00     0.060 A
HETATM   21  C3  UNL     1      19.511  45.194  42.913  1.00  0.00     0.044 A
HETATM   22  N1  UNL     1      19.717  44.623  44.096  1.00  0.00    -0.358 N
HETATM   23  C2  UNL     1      20.886  44.496  44.743  1.00  0.00     0.018 A
ATOM     24  H1  UNL     1      18.897  44.238  44.563  1.00  0.00     0.166 HD
HETATM   25  C1  UNL     1      20.917  43.961  46.106  1.00  0.00     0.069 C
HETATM   26  C28 UNL     1      22.064  44.995  44.170  1.00  0.00     0.014 A
BRANCH  21  27
HETATM   27  C4  UNL     1      18.166  45.305  42.350  1.00  0.00    -0.009 A
HETATM   28  C5  UNL     1      17.174  44.405  42.599  1.00  0.00     0.017 A
HETATM   29  C6  UNL     1      15.911  44.536  41.988  1.00  0.00     0.043 A
HETATM   30  C7  UNL     1      15.647  45.561  41.128  1.00  0.00     0.116 A
HETATM   31  F1  UNL     1      14.448  45.707  40.544  1.00  0.00    -0.206 F
HETATM   32  C8  UNL     1      16.694  46.501  40.866  1.00  0.00     0.043 A
HETATM   33  C9  UNL     1      17.907  46.350  41.476  1.00  0.00     0.017 A
ENDBRANCH  21  27
BRANCH  26  34
HETATM   34  C29 UNL     1      23.364  44.679  44.746  1.00  0.00    -0.073 C
HETATM   35  C30 UNL     1      23.974  43.350  44.554  1.00  0.00     0.044 C
HETATM   36  C31 UNL     1      24.151  45.761  45.401  1.00  0.00     0.044 C
ENDBRANCH  26  34
ENDBRANCH  17  19
ENDBRANCH  16  17
ENDBRANCH  14  16
ENDBRANCH   1  13
BRANCH   4  37
HETATM   37  N5  UNL     1      24.020  52.437  46.211  1.00  0.00    -0.403 NA
BRANCH  37  38
HETATM   38  C16 UNL     1      24.418  53.678  45.989  1.00  0.00     0.159 C
BRANCH  38  39
HETATM   39  C17 UNL     1      25.688  54.104  46.762  1.00  0.00     0.087 C
BRANCH  39  40
HETATM   40  C18 UNL     1      26.645  54.908  45.932  1.00  0.00     0.235 C
BRANCH  40  41
HETATM   41  N6  UNL     1      27.906  55.068  46.650  1.00  0.00    -0.079 N
ATOM     42  H63 UNL     1      27.785  55.564  47.533  1.00  0.00     0.274 HD
ATOM     43  H62 UNL     1      28.250  54.183  47.024  1.00  0.00     0.274 HD
ATOM     44  H61 UNL     1      28.591  55.521  46.046  1.00  0.00     0.274 HD
ENDBRANCH  40  41
ENDBRANCH  39  40
ENDBRANCH  38  39
ENDBRANCH  37  38
ENDBRANCH   4  37
BRANCH   8  45
HETATM   45  C23 UNL     1      23.563  48.986  51.405  1.00  0.00     0.058 C
BRANCH  45  46
HETATM   46  C24 UNL     1      22.354  48.835  52.254  1.00  0.00     0.126 C
BRANCH  46  47
HETATM   47  N7  UNL     1      21.312  48.108  51.528  1.00  0.00    -0.367 N
HETATM   48  C25 UNL     1      20.317  47.611  52.105  1.00  0.00     0.196 C
HETATM   49  N8  UNL     1      20.133  47.713  53.499  1.00  0.00    -0.067 NA
HETATM   50  N9  UNL     1      19.257  46.937  51.393  1.00  0.00    -0.067 NA
ATOM     51  H7  UNL     1      21.399  48.002  50.518  1.00  0.00     0.161 HD
ENDBRANCH  46  47
ENDBRANCH  45  46
ENDBRANCH   8  45
TORSDOF 14
ENDMDL