MODEL 4
REMARK VINA RESULT: -8.966791512      2.143      3.429
REMARK  15 active torsions:
REMARK  status: ('A' for Active; 'I' for Inactive)
REMARK    1  A    between atoms: C4_4  and  C5_5
REMARK    2  A    between atoms: C7_7  and  N1_8
REMARK    3  A    between atoms: N1_8  and  C8_10
REMARK    4  A    between atoms: C8_10  and  C9_11
REMARK    5  A    between atoms: C9_11  and  C10_12
REMARK    6  A    between atoms: C10_12  and  C11_13
REMARK    7  A    between atoms: C13_17  and  N3_18
REMARK    8  A    between atoms: N3_18  and  C14_20
REMARK    9  A    between atoms: C14_20  and  C15_21
REMARK   10  A    between atoms: C15_21  and  N4_22
REMARK   11  A    between atoms: N4_22  and  C16_24
REMARK   12  A    between atoms: C20_31  and  C21_32
REMARK       I    between atoms: C21_32  and  N6_34
REMARK   13  A    between atoms: N6_34  and  C22_36
REMARK   14  A    between atoms: C22_36  and  C23_37
REMARK   15  A    between atoms: C23_37  and  O2_38
ROOT
HETATM    1  C5  UNL     1      18.549  45.701  42.852  1.00  0.00     0.063 A
HETATM    2  C6  UNL     1      18.697  44.591  43.644  1.00  0.00     0.079 A
HETATM    3  C7  UNL     1      19.596  44.570  44.715  1.00  0.00     0.119 A
HETATM    4  N2  UNL     1      20.301  45.688  44.926  1.00  0.00    -0.177 N
ATOM      5  H2  UNL     1      20.967  45.710  45.698  1.00  0.00     0.185 HD
HETATM    6  C13 UNL     1      20.166  46.772  44.167  1.00  0.00     0.680 A
HETATM    7  N7  UNL     1      19.292  46.771  43.137  1.00  0.00    -0.191 N
ATOM      8  H7  UNL     1      19.199  47.609  42.563  1.00  0.00     0.184 HD
ENDROOT
BRANCH   6   9
HETATM    9  N3  UNL     1      20.836  47.827  44.387  1.00  0.00    -0.224 N
ATOM     10  H3  UNL     1      20.543  48.370  45.200  1.00  0.00     0.177 HD
BRANCH   9  11
HETATM   11  C14 UNL     1      21.939  48.359  43.662  1.00  0.00     0.157 C
BRANCH  11  12
HETATM   12  C15 UNL     1      23.239  48.214  44.414  1.00  0.00     0.141 C
BRANCH  12  13
HETATM   13  N4  UNL     1      23.584  49.413  45.129  1.00  0.00    -0.374 N
ATOM     14  H4  UNL     1      23.809  50.253  44.597  1.00  0.00     0.161 HD
BRANCH  13  15
HETATM   15  C16 UNL     1      23.621  49.467  46.426  1.00  0.00     0.117 A
HETATM   16  N5  UNL     1      24.002  48.440  47.204  1.00  0.00    -0.350 N
HETATM   17  C17 UNL     1      24.032  48.581  48.555  1.00  0.00     0.108 A
ATOM     18  H5  UNL     1      24.270  47.553  46.779  1.00  0.00     0.166 HD
HETATM   19  C18 UNL     1      23.673  49.766  49.144  1.00  0.00     0.027 A
HETATM   20 BR1  UNL     1      23.721  49.943  51.033  1.00  0.00    -0.050 Br
HETATM   21  C19 UNL     1      23.283  50.814  48.348  1.00  0.00     0.041 A
HETATM   22  C20 UNL     1      23.245  50.699  46.980  1.00  0.00     0.077 A
BRANCH  22  23
HETATM   23  C21 UNL     1      22.806  51.824  46.126  1.00  0.00     0.255 C
HETATM   24  O1  UNL     1      21.776  51.681  45.425  1.00  0.00    -0.268 OA
HETATM   25  N6  UNL     1      23.583  53.002  46.149  1.00  0.00    -0.355 N
ATOM     26  H6  UNL     1      24.412  53.051  46.741  1.00  0.00     0.162 HD
BRANCH  25  27
HETATM   27  C22 UNL     1      23.213  54.134  45.341  1.00  0.00     0.148 C
BRANCH  27  28
HETATM   28  C23 UNL     1      24.163  55.292  45.627  1.00  0.00     0.183 C
BRANCH  28  29
HETATM   29  O2  UNL     1      24.937  54.927  46.739  1.00  0.00    -0.399 OA
ATOM     30  H2  UNL     1      25.416  54.142  46.500  1.00  0.00     0.209 HD
ENDBRANCH  28  29
ENDBRANCH  27  28
ENDBRANCH  25  27
ENDBRANCH  22  23
ENDBRANCH  13  15
ENDBRANCH  12  13
ENDBRANCH  11  12
ENDBRANCH   9  11
ENDBRANCH   6   9
BRANCH   3  31
HETATM   31  N1  UNL     1      19.684  43.528  45.417  1.00  0.00    -0.376 N
ATOM     32  H1  UNL     1      18.977  42.799  45.319  1.00  0.00     0.161 HD
BRANCH  31  33
HETATM   33  C8  UNL     1      20.765  43.341  46.360  1.00  0.00     0.121 C
BRANCH  33  34
HETATM   34  C9  UNL     1      21.921  42.691  45.613  1.00  0.00     0.020 C
BRANCH  34  35
HETATM   35  C10 UNL     1      23.145  43.580  45.760  1.00  0.00     0.001 C
BRANCH  35  36
HETATM   36  C11 UNL     1      23.848  43.599  44.399  1.00  0.00    -0.004 C
HETATM   37  C12 UNL     1      23.232  44.623  43.473  1.00  0.00     0.005 C
ENDBRANCH  35  36
ENDBRANCH  34  35
ENDBRANCH  33  34
ENDBRANCH  31  33
ENDBRANCH   3  31
BRANCH   1  38
HETATM   38  C4  UNL     1      17.593  45.675  41.725  1.00  0.00    -0.005 A
HETATM   39  C3  UNL     1      17.037  46.809  41.282  1.00  0.00     0.042 A
HETATM   40  C2  UNL     1      16.086  46.765  40.157  1.00  0.00     0.023 A
HETATM   41  C1  UNL     1      15.545  47.892  39.729  1.00  0.00     0.043 C
HETATM   42  N8  UNL     1      15.803  45.499  39.584  1.00  0.00    -0.361 N
HETATM   43  C25 UNL     1      16.397  44.315  40.061  1.00  0.00     0.006 A
ATOM     44  H8  UNL     1      15.149  45.444  38.804  1.00  0.00     0.166 HD
HETATM   45  C24 UNL     1      17.256  44.411  41.092  1.00  0.00     0.038 A
HETATM   46  C26 UNL     1      16.077  43.001  39.439  1.00  0.00     0.068 C
ENDBRANCH   1  38
TORSDOF 15
ENDMDL