MODEL 3
REMARK VINA RESULT: -5.705461922      4.311      6.616
REMARK  5 active torsions:
REMARK  status: ('A' for Active; 'I' for Inactive)
REMARK    1  A    between atoms: N1_1  and  C1_5
REMARK    2  A    between atoms: C1_5  and  N2_6
REMARK    3  A    between atoms: C1_5  and  C2_10
REMARK    4  A    between atoms: C3_11  and  N3_12
REMARK    5  A    between atoms: C4_14  and  C5_15
ROOT
HETATM    1  C2  UNL     1      32.177   5.603  14.885  1.00  0.00     0.111 A
HETATM    2  C3  UNL     1      31.921   6.352  16.036  1.00  0.00     0.124 A
HETATM    3  N4  UNL     1      32.339   7.615  16.044  1.00  0.00    -0.294 N
ATOM      4  H4  UNL     1      32.167   8.191  16.869  1.00  0.00     0.172 HD
HETATM    5  C7  UNL     1      32.981   8.152  14.994  1.00  0.00     0.328 A
HETATM    6  O2  UNL     1      33.339   9.368  15.105  1.00  0.00    -0.247 OA
HETATM    7  N5  UNL     1      33.243   7.449  13.868  1.00  0.00    -0.275 N
ATOM      8  H5  UNL     1      33.732   7.879  13.083  1.00  0.00     0.173 HD
HETATM    9  C8  UNL     1      32.838   6.168  13.814  1.00  0.00     0.263 A
HETATM   10  O3  UNL     1      33.085   5.519  12.759  1.00  0.00    -0.267 OA
ENDROOT
BRANCH   1  11
HETATM   11  C1  UNL     1      31.755   4.188  14.770  1.00  0.00     0.420 C
BRANCH  11  12
HETATM   12  N1  UNL     1      30.802   4.096  13.663  1.00  0.00    -0.046 N
ATOM     13  H13 UNL     1      31.223   3.758  12.798  1.00  0.00     0.277 HD
ATOM     14  H12 UNL     1      30.123   3.344  13.780  1.00  0.00     0.277 HD
ATOM     15  H11 UNL     1      30.370   5.015  13.567  1.00  0.00     0.277 HD
ENDBRANCH  11  12
BRANCH  11  16
HETATM   16  N2  UNL     1      32.849   3.308  14.454  1.00  0.00    -0.046 N
ATOM     17  H23 UNL     1      32.860   3.015  13.477  1.00  0.00     0.277 HD
ATOM     18  H22 UNL     1      33.755   3.776  14.458  1.00  0.00     0.277 HD
ATOM     19  H21 UNL     1      32.798   2.525  15.107  1.00  0.00     0.277 HD
ENDBRANCH  11  16
ENDBRANCH   1  11
BRANCH   2  20
HETATM   20  N3  UNL     1      31.247   5.751  17.106  1.00  0.00    -0.353 N
HETATM   21  C4  UNL     1      31.843   5.298  18.145  1.00  0.00     0.096 C
ATOM     22  H3  UNL     1      30.232   5.672  17.056  1.00  0.00     0.166 HD
BRANCH  21  23
HETATM   23  C5  UNL     1      31.141   4.668  19.267  1.00  0.00     0.183 A
HETATM   24  C6  UNL     1      31.377   3.315  19.710  1.00  0.00     0.206 A
HETATM   25  O1  UNL     1      32.149   4.298  20.312  1.00  0.00    -0.376 OA
ENDBRANCH  21  23
ENDBRANCH   2  20
TORSDOF 5
ENDMDL