MODEL 5
REMARK VINA RESULT: -6.900788744      1.341      1.722
REMARK  4 active torsions:
REMARK  status: ('A' for Active; 'I' for Inactive)
REMARK    1  A    between atoms: N1_1  and  C1_4
REMARK    2  A    between atoms: C2_9  and  C3_10
REMARK    3  A    between atoms: N4_11  and  O1_13
REMARK    4  A    between atoms: O1_13  and  C4_14
ROOT
HETATM    1  C3  UNL     1      31.859   3.397  14.667  1.00  0.00     0.164 C
HETATM    2  N4  UNL     1      31.951   3.232  15.917  1.00  0.00    -0.271 N
ATOM      3  H4  UNL     1      32.326   4.004  16.468  1.00  0.00     0.193 HD
ENDROOT
BRANCH   1   4
HETATM    4  C2  UNL     1      32.276   4.647  14.050  1.00  0.00     0.153 A
HETATM    5  N3  UNL     1      32.707   4.843  12.777  1.00  0.00    -0.270 N
HETATM    6  N2  UNL     1      32.989   6.109  12.601  1.00  0.00    -0.131 N
ATOM      7  H3  UNL     1      32.797   4.116  12.067  1.00  0.00     0.189 HD
HETATM    8  C1  UNL     1      32.743   6.731  13.752  1.00  0.00     0.692 A
ATOM      9  H2  UNL     1      33.333   6.538  11.743  1.00  0.00     0.205 HD
HETATM   10  N7  UNL     1      32.301   5.840  14.656  1.00  0.00    -0.173 N
ATOM     11  H7  UNL     1      32.035   6.036  15.622  1.00  0.00     0.186 HD
BRANCH   8  12
HETATM   12  N1  UNL     1      32.902   7.987  13.965  1.00  0.00    -0.233 N
ATOM     13  H12 UNL     1      32.887   8.434  14.882  1.00  0.00     0.174 HD
ATOM     14  H11 UNL     1      33.064   8.693  13.247  1.00  0.00     0.174 HD
ENDBRANCH   8  12
ENDBRANCH   1   4
BRANCH   2  15
HETATM   15  O1  UNL     1      31.585   2.094  16.587  1.00  0.00    -0.245 OA
BRANCH  15  16
HETATM   16  C4  UNL     1      31.517   2.148  17.998  1.00  0.00     0.348 C
HETATM   17  N5  UNL     1      31.643   3.485  18.502  1.00  0.00    -0.306 N
HETATM   18  C5  UNL     1      30.735   3.593  19.585  1.00  0.00     0.325 C
ATOM     19  H5  UNL     1      32.264   4.214  18.150  1.00  0.00     0.167 HD
HETATM   20  O2  UNL     1      30.714   4.473  20.500  1.00  0.00    -0.247 OA
HETATM   21  N6  UNL     1      29.785   2.516  19.516  1.00  0.00    -0.275 N
HETATM   22  C6  UNL     1      30.134   1.757  18.371  1.00  0.00     0.277 C
ATOM     23  H6  UNL     1      29.014   2.336  20.159  1.00  0.00     0.173 HD
HETATM   24  O3  UNL     1      29.454   0.906  17.749  1.00  0.00    -0.268 OA
ENDBRANCH  15  16
ENDBRANCH   2  15
TORSDOF 4
ENDMDL