MODEL 1
REMARK VINA RESULT: -6.746318198      0.000      0.000
REMARK  4 active torsions:
REMARK  status: ('A' for Active; 'I' for Inactive)
REMARK    1  A    between atoms: O1_2  and  C2_3
REMARK    2  A    between atoms: C2_3  and  N1_4
REMARK    3  A    between atoms: C3_7  and  N3_8
REMARK    4  A    between atoms: N3_8  and  N4_10
ROOT
HETATM    1  N1  UNL     1      28.963   1.224  19.606  1.00  0.00    -0.250 N
HETATM    2  N2  UNL     1      28.571   1.959  20.631  1.00  0.00    -0.278 N
ATOM      3  H2  UNL     1      27.841   1.701  21.295  1.00  0.00     0.189 HD
HETATM    4  C3  UNL     1      29.271   3.083  20.663  1.00  0.00     0.154 A
HETATM    5  C4  UNL     1      30.151   3.059  19.604  1.00  0.00     0.124 A
HETATM    6  C5  UNL     1      31.123   3.894  19.094  1.00  0.00     0.267 A
HETATM    7  O2  UNL     1      31.326   4.977  19.684  1.00  0.00    -0.267 OA
HETATM    8  N5  UNL     1      31.813   3.517  17.992  1.00  0.00    -0.275 N
ATOM      9  H5  UNL     1      32.531   4.141  17.623  1.00  0.00     0.173 HD
HETATM   10  C6  UNL     1      31.584   2.348  17.369  1.00  0.00     0.328 A
HETATM   11  O3  UNL     1      32.239   2.037  16.357  1.00  0.00    -0.247 OA
HETATM   12  N6  UNL     1      30.644   1.516  17.843  1.00  0.00    -0.292 N
ATOM     13  H6  UNL     1      30.460   0.627  17.378  1.00  0.00     0.172 HD
HETATM   14  C7  UNL     1      29.948   1.866  18.934  1.00  0.00     0.148 A
ENDROOT
BRANCH   4  15
HETATM   15  N3  UNL     1      29.205   4.068  21.494  1.00  0.00    -0.290 N
ATOM     16  H3  UNL     1      28.484   4.782  21.385  1.00  0.00     0.188 HD
BRANCH  15  17
HETATM   17  N4  UNL     1      30.125   4.154  22.548  1.00  0.00    -0.344 N
ATOM     18  H42 UNL     1      30.341   3.316  23.087  1.00  0.00     0.176 HD
ATOM     19  H41 UNL     1      30.566   5.048  22.763  1.00  0.00     0.176 HD
ENDBRANCH  15  17
ENDBRANCH   4  15
BRANCH   1  20
HETATM   20  C2  UNL     1      28.386  -0.067  19.302  1.00  0.00     0.317 C
BRANCH  20  21
HETATM   21  O1  UNL     1      28.826  -1.061  20.169  1.00  0.00    -0.375 OA
HETATM   22  C1  UNL     1      27.679  -1.531  20.838  1.00  0.00     0.203 C
ENDBRANCH  20  21
ENDBRANCH   1  20
TORSDOF 4
ENDMDL