MODEL 2
REMARK VINA RESULT: -6.858538011      5.544      7.311
REMARK  6 active torsions:
REMARK  status: ('A' for Active; 'I' for Inactive)
REMARK    1  A    between atoms: C3_3  and  O1_4
REMARK    2  A    between atoms: C3_3  and  C4_6
REMARK    3  A    between atoms: C4_6  and  O2_7
REMARK    4  A    between atoms: C4_6  and  C5_9
REMARK    5  A    between atoms: C5_9  and  O3_10
REMARK    6  A    between atoms: C5_9  and  N1_12
ROOT
HETATM    1  C1  UNL     1      31.835   4.819  19.120  1.00  0.00     0.100 C
HETATM    2  C2  UNL     1      30.991   4.108  19.649  1.00  0.00    -0.153 C
HETATM    3  C3  UNL     1      29.981   3.243  20.263  1.00  0.00     0.216 C
ENDROOT
BRANCH   3   4
HETATM    4  O1  UNL     1      28.740   3.700  19.877  1.00  0.00    -0.382 OA
ATOM      5  H1  UNL     1      28.101   3.033  20.099  1.00  0.00     0.211 HD
ENDBRANCH   3   4
BRANCH   3   6
HETATM    6  C4  UNL     1      30.218   1.807  19.803  1.00  0.00     0.206 C
BRANCH   6   7
HETATM    7  O2  UNL     1      31.264   1.224  20.477  1.00  0.00    -0.388 OA
ATOM      8  H2  UNL     1      31.094   0.308  20.663  1.00  0.00     0.210 HD
ENDBRANCH   6   7
BRANCH   6   9
HETATM    9  C5  UNL     1      30.335   1.728  18.304  1.00  0.00     0.267 C
BRANCH   9  10
HETATM   10  O3  UNL     1      29.372   0.872  17.799  1.00  0.00    -0.373 OA
ATOM     11  H3  UNL     1      29.595   0.621  16.910  1.00  0.00     0.212 HD
ENDBRANCH   9  10
BRANCH   9  12
HETATM   12  N1  UNL     1      31.628   1.317  17.860  1.00  0.00    -0.197 N
HETATM   13  C6  UNL     1      32.165   1.745  16.743  1.00  0.00     0.683 A
HETATM   14  N2  UNL     1      33.387   1.320  16.380  1.00  0.00    -0.188 N
HETATM   15  N5  UNL     1      31.528   2.608  15.929  1.00  0.00    -0.163 N
HETATM   16  C7  UNL     1      33.992   1.721  15.246  1.00  0.00     0.200 A
ATOM     17  H2  UNL     1      33.877   0.665  16.989  1.00  0.00     0.185 HD
HETATM   18  N3  UNL     1      33.322   2.584  14.462  1.00  0.00    -0.326 N
HETATM   19  C8  UNL     1      32.089   3.037  14.789  1.00  0.00     0.207 A
ATOM     20  H3  UNL     1      33.755   2.906  13.596  1.00  0.00     0.169 HD
HETATM   21  N4  UNL     1      31.458   3.947  13.900  1.00  0.00    -0.063 NA
ATOM     22  H5  UNL     1      30.600   2.943  16.186  1.00  0.00     0.187 HD
ATOM     23  H1  UNL     1      32.157   0.662  18.436  1.00  0.00     0.180 HD
ENDBRANCH   9  12
ENDBRANCH   6   9
ENDBRANCH   3   6
TORSDOF 6
ENDMDL