MODEL 3
REMARK VINA RESULT: -6.405625234      2.231      4.327
REMARK  3 active torsions:
REMARK  status: ('A' for Active; 'I' for Inactive)
REMARK    1  A    between atoms: C2_3  and  N2_4
REMARK    2  A    between atoms: N2_4  and  S1_6
REMARK    3  A    between atoms: S1_6  and  N3_7
ROOT
HETATM    1  N1  UNL     1      31.656   5.287  19.283  1.00  0.00    -0.092 NA
HETATM    2  C1  UNL     1      31.010   4.036  19.400  1.00  0.00     0.159 A
HETATM    3  C2  UNL     1      31.130   3.133  18.347  1.00  0.00     0.150 A
HETATM    4  N4  UNL     1      30.504   1.970  18.505  1.00  0.00    -0.292 N
ATOM      5  H4  UNL     1      30.568   1.280  17.757  1.00  0.00     0.172 HD
HETATM    6  C3  UNL     1      29.790   1.659  19.602  1.00  0.00     0.328 A
HETATM    7  O3  UNL     1      29.212   0.537  19.704  1.00  0.00    -0.247 OA
HETATM    8  N5  UNL     1      29.679   2.539  20.617  1.00  0.00    -0.274 N
ATOM      9  H5  UNL     1      29.137   2.293  21.445  1.00  0.00     0.173 HD
HETATM   10  C4  UNL     1      30.281   3.739  20.543  1.00  0.00     0.277 A
HETATM   11  O4  UNL     1      30.170   4.553  21.494  1.00  0.00    -0.266 OA
ENDROOT
BRANCH   3  12
HETATM   12  N2  UNL     1      31.889   3.492  17.204  1.00  0.00    -0.251 N
ATOM     13  H2  UNL     1      32.242   4.448  17.146  1.00  0.00     0.182 HD
BRANCH  12  14
HETATM   14  S1  UNL     1      32.252   2.425  15.917  1.00  0.00     0.318 S
HETATM   15  O1  UNL     1      32.829   3.172  14.741  1.00  0.00    -0.183 OA
HETATM   16  O2  UNL     1      30.971   1.807  15.450  1.00  0.00    -0.183 OA
BRANCH  14  17
HETATM   17  N3  UNL     1      33.387   1.251  16.478  1.00  0.00    -0.311 N
ATOM     18  H32 UNL     1      34.056   1.401  17.235  1.00  0.00     0.170 HD
ATOM     19  H31 UNL     1      33.272   0.399  15.930  1.00  0.00     0.170 HD
ENDBRANCH  14  17
ENDBRANCH  12  14
ENDBRANCH   3  12
TORSDOF 3
ENDMDL