MODEL 3
REMARK VINA RESULT: -5.822102022      1.761      1.820
REMARK  4 active torsions:
REMARK  status: ('A' for Active; 'I' for Inactive)
REMARK    1  A    between atoms: N1_1  and  S1_4
REMARK    2  A    between atoms: S1_4  and  N2_7
REMARK    3  A    between atoms: N2_7  and  C1_9
REMARK    4  A    between atoms: C3_11  and  O3_12
ROOT
HETATM    1  C1  UNL     1      31.538   1.458  17.853  1.00  0.00     0.123 C
HETATM    2  C2  UNL     1      30.852   2.222  18.856  1.00  0.00     0.099 A
HETATM    3  C3  UNL     1      31.152   3.548  19.085  1.00  0.00     0.161 A
HETATM    4  N3  UNL     1      30.481   4.228  20.040  1.00  0.00    -0.288 N
ATOM      5  H3  UNL     1      30.719   5.208  20.192  1.00  0.00     0.172 HD
HETATM    6  C4  UNL     1      29.516   3.683  20.799  1.00  0.00     0.329 A
HETATM    7  O4  UNL     1      28.918   4.372  21.682  1.00  0.00    -0.247 OA
HETATM    8  N4  UNL     1      29.212   2.390  20.586  1.00  0.00    -0.275 N
ATOM      9  H4  UNL     1      28.484   1.946  21.144  1.00  0.00     0.173 HD
HETATM   10  C5  UNL     1      29.861   1.670  19.639  1.00  0.00     0.265 A
HETATM   11  O5  UNL     1      29.568   0.445  19.442  1.00  0.00    -0.267 OA
ENDROOT
BRANCH   1  12
HETATM   12  N2  UNL     1      32.468   1.954  17.109  1.00  0.00    -0.278 N
ATOM     13  H2  UNL     1      33.384   2.134  17.521  1.00  0.00     0.179 HD
BRANCH  12  14
HETATM   14  S1  UNL     1      32.218   2.320  15.459  1.00  0.00     0.316 S
HETATM   15  O1  UNL     1      33.202   1.625  14.556  1.00  0.00    -0.183 OA
HETATM   16  O2  UNL     1      32.436   3.813  15.263  1.00  0.00    -0.183 OA
BRANCH  14  17
HETATM   17  N1  UNL     1      30.599   1.999  14.950  1.00  0.00    -0.311 N
ATOM     18  H12 UNL     1      29.981   2.701  14.542  1.00  0.00     0.170 HD
ATOM     19  H11 UNL     1      30.360   1.022  15.117  1.00  0.00     0.170 HD
ENDBRANCH  14  17
ENDBRANCH  12  14
ENDBRANCH   1  12
BRANCH   3  20
HETATM   20  O3  UNL     1      32.148   4.145  18.315  1.00  0.00    -0.345 OA
ATOM     21  H3  UNL     1      32.618   4.886  18.679  1.00  0.00     0.219 HD
ENDBRANCH   3  20
TORSDOF 4
ENDMDL