MODEL 5
REMARK VINA RESULT: -6.208962165      4.072      6.549
REMARK  3 active torsions:
REMARK  status: ('A' for Active; 'I' for Inactive)
REMARK    1  A    between atoms: N1_1  and  C1_4
REMARK    2  A    between atoms: N4_13  and  C4_14
REMARK    3  A    between atoms: C4_14  and  C5_15
ROOT
HETATM    1  C1  UNL     1      30.872   2.366  19.904  1.00  0.00     0.695 A
HETATM    2  N2  UNL     1      29.807   1.782  20.503  1.00  0.00    -0.150 N
ATOM      3  H2  UNL     1      29.679   1.920  21.505  1.00  0.00     0.188 HD
HETATM    4  C2  UNL     1      28.916   1.033  19.846  1.00  0.00     0.329 A
HETATM    5  O1  UNL     1      27.921   0.492  20.425  1.00  0.00    -0.261 OA
HETATM    6  C3  UNL     1      29.105   0.857  18.494  1.00  0.00     0.329 A
HETATM    7  O2  UNL     1      28.321   0.169  17.783  1.00  0.00    -0.261 OA
HETATM    8  N3  UNL     1      30.161   1.438  17.909  1.00  0.00    -0.245 N
ATOM      9  H3  UNL     1      30.297   1.305  16.907  1.00  0.00     0.191 HD
HETATM   10  N4  UNL     1      31.049   2.189  18.585  1.00  0.00    -0.119 N
ENDROOT
BRANCH  10  11
HETATM   11  C4  UNL     1      32.158   2.786  17.848  1.00  0.00     0.194 C
BRANCH  11  12
HETATM   12  C5  UNL     1      31.952   2.479  16.389  1.00  0.00     0.122 C
HETATM   13  C6  UNL     1      33.124   1.748  15.784  1.00  0.00     0.149 C
HETATM   14  N5  UNL     1      32.980   2.146  14.404  1.00  0.00    -0.363 N
HETATM   15  C7  UNL     1      32.412   3.443  14.451  1.00  0.00     0.184 C
ATOM     16  H5  UNL     1      33.231   1.609  13.575  1.00  0.00     0.162 HD
HETATM   17  N6  UNL     1      32.496   4.387  13.370  1.00  0.00    -0.064 NA
HETATM   18  N7  UNL     1      31.826   3.643  15.574  1.00  0.00    -0.357 N
ATOM     19  H7  UNL     1      31.346   4.501  15.842  1.00  0.00     0.162 HD
ENDBRANCH  11  12
ENDBRANCH  10  11
BRANCH   1  20
HETATM   20  N1  UNL     1      31.693   3.070  20.610  1.00  0.00    -0.233 N
ATOM     21  H12 UNL     1      31.424   3.459  21.513  1.00  0.00     0.174 HD
ATOM     22  H11 UNL     1      32.634   3.249  20.258  1.00  0.00     0.174 HD
ENDBRANCH   1  20
TORSDOF 3
ENDMDL