MODEL 2
REMARK VINA RESULT: -5.580057510      6.807      8.972
REMARK  5 active torsions:
REMARK  status: ('A' for Active; 'I' for Inactive)
REMARK    1  A    between atoms: N1_1  and  C1_4
REMARK    2  A    between atoms: N5_14  and  C4_15
REMARK    3  A    between atoms: C4_15  and  C5_16
REMARK    4  A    between atoms: C5_16  and  N6_17
REMARK    5  A    between atoms: C7_22  and  N7_23
ROOT
HETATM    1  C1  UNL     1      31.648   2.373  17.159  1.00  0.00     0.680 C
HETATM    2  N2  UNL     1      31.727   3.455  17.985  1.00  0.00    -0.154 N
ATOM      3  H2  UNL     1      32.401   4.168  17.708  1.00  0.00     0.187 HD
HETATM    4  C2  UNL     1      31.053   3.711  19.098  1.00  0.00     0.290 C
HETATM    5  O1  UNL     1      31.175   4.861  19.622  1.00  0.00    -0.265 OA
HETATM    6  C3  UNL     1      30.209   2.850  19.769  1.00  0.00     0.150 A
HETATM    7  N3  UNL     1      29.842   2.945  21.029  1.00  0.00    -0.279 N
ATOM      8  H3  UNL     1      30.134   3.674  21.680  1.00  0.00     0.189 HD
HETATM    9  N4  UNL     1      29.045   1.955  21.309  1.00  0.00    -0.239 N
ATOM     10  H4  UNL     1      28.622   1.804  22.224  1.00  0.00     0.208 HD
HETATM   11  N5  UNL     1      28.846   1.151  20.238  1.00  0.00    -0.270 N
HETATM   12  C6  UNL     1      29.572   1.704  19.266  1.00  0.00     0.130 A
HETATM   13  C7  UNL     1      29.681   1.212  17.983  1.00  0.00     0.145 C
HETATM   14  N8  UNL     1      30.719   1.398  17.134  1.00  0.00    -0.175 N
ATOM     15  H8  UNL     1      30.809   0.714  16.381  1.00  0.00     0.186 HD
ENDROOT
BRANCH  11  16
HETATM   16  C4  UNL     1      28.004  -0.019  20.232  1.00  0.00     0.178 C
BRANCH  16  17
HETATM   17  C5  UNL     1      28.830  -1.171  20.799  1.00  0.00     0.251 C
BRANCH  17  18
HETATM   18  N6  UNL     1      28.020  -2.343  21.015  1.00  0.00    -0.078 N
ATOM     19  H63 UNL     1      27.051  -2.183  20.742  1.00  0.00     0.274 HD
ATOM     20  H62 UNL     1      28.250  -3.084  20.353  1.00  0.00     0.274 HD
ATOM     21  H61 UNL     1      28.088  -2.670  21.979  1.00  0.00     0.274 HD
ENDBRANCH  17  18
ENDBRANCH  16  17
ENDBRANCH  11  16
BRANCH  13  22
HETATM   22  N7  UNL     1      28.697   0.523  17.587  1.00  0.00    -0.383 N
ATOM     23  H72 UNL     1      28.565  -0.406  17.984  1.00  0.00     0.157 HD
ATOM     24  H71 UNL     1      28.108   0.972  16.884  1.00  0.00     0.157 HD
ENDBRANCH  13  22
BRANCH   1  25
HETATM   25  N1  UNL     1      32.572   2.236  16.272  1.00  0.00    -0.234 N
ATOM     26  H12 UNL     1      32.676   3.042  15.657  1.00  0.00     0.174 HD
ATOM     27  H11 UNL     1      33.095   1.360  16.269  1.00  0.00     0.174 HD
ENDBRANCH   1  25
TORSDOF 5
ENDMDL