MODEL 5
REMARK VINA RESULT: -5.214389100      2.377      2.655
REMARK  1 active torsions:
REMARK  status: ('A' for Active; 'I' for Inactive)
REMARK    1  A    between atoms: C1_2  and  C2_4
REMARK       I    between atoms: N3_9  and  C5_10
ROOT
HETATM    1  C2  UNL     1      31.906   2.687  17.237  1.00  0.00     0.184 A
HETATM    2  N2  UNL     1      31.727   1.777  18.273  1.00  0.00    -0.330 N
ATOM      3  H2  UNL     1      31.834   0.766  18.199  1.00  0.00     0.168 HD
HETATM    4  C3  UNL     1      31.399   2.432  19.359  1.00  0.00     0.150 A
HETATM    5  C4  UNL     1      31.366   3.779  19.027  1.00  0.00     0.163 A
HETATM    6  N3  UNL     1      31.685   3.918  17.693  1.00  0.00    -0.229 N
HETATM    7  C5  UNL     1      31.720   5.182  17.101  1.00  0.00     0.342 C
HETATM    8  N4  UNL     1      32.038   5.499  15.768  1.00  0.00    -0.039 NA
HETATM    9  O2  UNL     1      31.442   6.230  17.795  1.00  0.00    -0.250 OA
HETATM   10  N5  UNL     1      31.046   4.697  20.068  1.00  0.00    -0.267 N
ATOM     11  H5  UNL     1      31.424   5.645  20.056  1.00  0.00     0.186 HD
HETATM   12  N6  UNL     1      30.192   4.273  21.126  1.00  0.00    -0.018 NA
HETATM   13  N7  UNL     1      30.735   3.074  21.646  1.00  0.00    -0.248 N
ATOM     14  H7  UNL     1      30.884   2.961  22.650  1.00  0.00     0.187 HD
HETATM   15  C6  UNL     1      31.069   2.033  20.743  1.00  0.00     0.289 C
HETATM   16  O3  UNL     1      31.096   0.822  21.061  1.00  0.00    -0.264 OA
ENDROOT
BRANCH   1  17
HETATM   17  C1  UNL     1      32.274   2.250  15.909  1.00  0.00     0.299 C
HETATM   18  N1  UNL     1      33.555   1.597  15.713  1.00  0.00    -0.054 NA
HETATM   19  O1  UNL     1      31.607   2.370  14.896  1.00  0.00    -0.268 OA
ENDBRANCH   1  17
TORSDOF 1
ENDMDL