MODEL 1
REMARK VINA RESULT: -7.101366738      0.000      0.000
REMARK  4 active torsions:
REMARK  status: ('A' for Active; 'I' for Inactive)
REMARK    1  A    between atoms: N1_1  and  C1_4
REMARK    2  A    between atoms: C2_7  and  C3_8
REMARK    3  A    between atoms: C3_8  and  C4_9
REMARK    4  A    between atoms: N6_20  and  N7_21
ROOT
HETATM    1  C1  UNL     1      31.968   3.926  15.345  1.00  0.00     0.692 A
HETATM    2  N2  UNL     1      31.644   3.807  16.662  1.00  0.00    -0.189 N
ATOM      3  H2  UNL     1      31.075   4.522  17.115  1.00  0.00     0.184 HD
HETATM    4  C2  UNL     1      32.074   2.748  17.366  1.00  0.00     0.103 A
HETATM    5  C6  UNL     1      32.838   1.820  16.695  1.00  0.00     0.305 A
HETATM    6  O2  UNL     1      33.274   0.801  17.294  1.00  0.00    -0.263 OA
HETATM    7  N6  UNL     1      33.143   1.971  15.374  1.00  0.00    -0.148 N
HETATM    8  N8  UNL     1      32.712   3.017  14.698  1.00  0.00    -0.108 N
ATOM      9  H8  UNL     1      32.939   3.131  13.710  1.00  0.00     0.208 HD
ENDROOT
BRANCH   4  10
HETATM   10  C3  UNL     1      31.782   2.522  18.799  1.00  0.00     0.128 C
BRANCH  10  11
HETATM   11  C4  UNL     1      30.347   2.450  19.092  1.00  0.00     0.102 A
HETATM   12  N3  UNL     1      29.623   3.472  19.581  1.00  0.00    -0.285 N
HETATM   13  N4  UNL     1      28.374   3.078  19.729  1.00  0.00    -0.240 N
ATOM     14  H3  UNL     1      29.982   4.401  19.801  1.00  0.00     0.188 HD
HETATM   15  N5  UNL     1      28.284   1.821  19.343  1.00  0.00    -0.250 N
ATOM     16  H4  UNL     1      27.607   3.650  20.083  1.00  0.00     0.208 HD
HETATM   17  C5  UNL     1      29.483   1.385  18.938  1.00  0.00     0.285 A
ATOM     18  H5  UNL     1      27.429   1.265  19.350  1.00  0.00     0.192 HD
HETATM   19  O1  UNL     1      29.722   0.235  18.514  1.00  0.00    -0.265 OA
ENDBRANCH  10  11
ENDBRANCH   4  10
BRANCH   1  20
HETATM   20  N1  UNL     1      31.555   4.950  14.659  1.00  0.00    -0.233 N
ATOM     21  H12 UNL     1      31.247   5.769  15.183  1.00  0.00     0.174 HD
ATOM     22  H11 UNL     1      31.546   4.916  13.639  1.00  0.00     0.174 HD
ENDBRANCH   1  20
BRANCH   7  23
HETATM   23  N7  UNL     1      33.917   1.033  14.677  1.00  0.00    -0.320 N
ATOM     24  H72 UNL     1      33.875   0.064  14.995  1.00  0.00     0.179 HD
ATOM     25  H71 UNL     1      34.503   1.296  13.885  1.00  0.00     0.179 HD
ENDBRANCH   7  23
TORSDOF 4
ENDMDL