MODEL 5
REMARK VINA RESULT: -6.359904931      6.146      8.747
REMARK  5 active torsions:
REMARK  status: ('A' for Active; 'I' for Inactive)
REMARK    1  A    between atoms: N1_2  and  C2_4
REMARK    2  A    between atoms: C3_7  and  N3_8
REMARK    3  A    between atoms: C4_13  and  N5_14
REMARK    4  A    between atoms: N5_14  and  C5_16
REMARK    5  A    between atoms: C5_16  and  C6_17
ROOT
HETATM    1  C2  UNL     1      86.835  82.562 113.331  1.00  0.00     0.706 A
HETATM    2  N2  UNL     1      88.081  82.226 112.954  1.00  0.00    -0.022 N
ATOM      3  H2  UNL     1      88.406  82.499 112.026  1.00  0.00     0.203 HD
HETATM    4  C3  UNL     1      88.912  81.543 113.759  1.00  0.00     0.705 A
HETATM    5  N4  UNL     1      88.494  81.171 114.995  1.00  0.00    -0.022 N
ATOM      6  H4  UNL     1      89.116  80.652 115.615  1.00  0.00     0.203 HD
HETATM    7  C4  UNL     1      87.255  81.494 115.394  1.00  0.00     0.707 A
HETATM    8  N9  UNL     1      86.438  82.179 114.574  1.00  0.00    -0.022 N
ATOM      9  H9  UNL     1      85.498  82.417 114.892  1.00  0.00     0.203 HD
ENDROOT
BRANCH   7  10
HETATM   10  N5  UNL     1      86.853  81.147 116.560  1.00  0.00    -0.218 N
ATOM     11  H5  UNL     1      87.528  80.849 117.265  1.00  0.00     0.178 HD
BRANCH  10  12
HETATM   12  C5  UNL     1      85.450  81.178 116.874  1.00  0.00     0.215 C
BRANCH  12  13
HETATM   13  C6  UNL     1      85.210  82.024 118.077  1.00  0.00     0.108 C
HETATM   14  N6  UNL     1      86.123  82.312 118.931  1.00  0.00    -0.362 N
HETATM   15  C7  UNL     1      85.549  83.153 119.974  1.00  0.00     0.257 C
ATOM     16  H6  UNL     1      87.094  82.002 118.887  1.00  0.00     0.162 HD
HETATM   17  N7  UNL     1      84.356  83.717 119.313  1.00  0.00    -0.120 NA
HETATM   18  N8  UNL     1      84.010  82.637 118.500  1.00  0.00    -0.290 N
ATOM     19  H8  UNL     1      83.064  82.344 118.256  1.00  0.00     0.183 HD
ENDBRANCH  12  13
ENDBRANCH  10  12
ENDBRANCH   7  10
BRANCH   4  20
HETATM   20  N3  UNL     1      90.107  81.221 113.397  1.00  0.00    -0.234 N
ATOM     21  H32 UNL     1      90.866  81.871 113.606  1.00  0.00     0.174 HD
ATOM     22  H31 UNL     1      90.310  80.346 112.915  1.00  0.00     0.174 HD
ENDBRANCH   4  20
BRANCH   1  23
HETATM   23  N1  UNL     1      86.003  83.212 112.604  1.00  0.00    -0.229 N
HETATM   24  C1  UNL     1      86.282  83.672 111.280  1.00  0.00     0.165 C
ATOM     25  H1  UNL     1      85.083  83.414 112.996  1.00  0.00     0.177 HD
ENDBRANCH   1  23
TORSDOF 5
ENDMDL