MODEL 5
REMARK VINA RESULT: -4.977652928      2.700      4.643
REMARK  4 active torsions:
REMARK  status: ('A' for Active; 'I' for Inactive)
REMARK    1  A    between atoms: N1_1  and  C1_4
REMARK    2  A    between atoms: C3_9  and  O1_10
REMARK    3  A    between atoms: O1_10  and  S1_11
REMARK    4  A    between atoms: S1_11  and  N4_12
ROOT
HETATM    1  C1  UNL     1      83.320  79.636 118.549  1.00  0.00     0.680 A
HETATM    2  N2  UNL     1      84.386  79.544 117.739  1.00  0.00    -0.176 N
ATOM      3  H2  UNL     1      84.683  78.628 117.403  1.00  0.00     0.185 HD
HETATM    4  C2  UNL     1      85.069  80.640 117.363  1.00  0.00     0.172 A
HETATM    5  N3  UNL     1      86.181  80.469 116.507  1.00  0.00    -0.079 NA
HETATM    6  C3  UNL     1      84.701  81.914 117.797  1.00  0.00     0.200 A
HETATM    7  C4  UNL     1      83.608  81.983 118.626  1.00  0.00     0.298 A
HETATM    8  O4  UNL     1      83.253  83.117 119.032  1.00  0.00    -0.264 OA
HETATM    9  N5  UNL     1      82.942  80.869 118.986  1.00  0.00    -0.154 N
ATOM     10  H5  UNL     1      82.133  80.952 119.602  1.00  0.00     0.187 HD
ENDROOT
BRANCH   6  11
HETATM   11  O1  UNL     1      85.447  82.971 117.369  1.00  0.00    -0.208 OA
BRANCH  11  12
HETATM   12  S1  UNL     1      86.842  83.567 118.076  1.00  0.00     0.360 S
HETATM   13  O2  UNL     1      87.047  84.985 117.564  1.00  0.00    -0.176 OA
HETATM   14  O3  UNL     1      86.726  83.689 119.577  1.00  0.00    -0.176 OA
BRANCH  12  15
HETATM   15  N4  UNL     1      88.256  82.680 117.658  1.00  0.00    -0.305 N
ATOM     16  H42 UNL     1      88.398  82.285 116.728  1.00  0.00     0.171 HD
ATOM     17  H41 UNL     1      88.924  82.594 118.424  1.00  0.00     0.171 HD
ENDBRANCH  12  15
ENDBRANCH  11  12
ENDBRANCH   6  11
BRANCH   1  18
HETATM   18  N1  UNL     1      82.665  78.573 118.907  1.00  0.00    -0.234 N
ATOM     19  H12 UNL     1      81.745  78.647 119.341  1.00  0.00     0.174 HD
ATOM     20  H11 UNL     1      83.061  77.644 118.762  1.00  0.00     0.174 HD
ENDBRANCH   1  18
TORSDOF 4
ENDMDL