MODEL 2
REMARK VINA RESULT: -5.885067955      7.582      9.625
REMARK  3 active torsions:
REMARK  status: ('A' for Active; 'I' for Inactive)
REMARK    1  A    between atoms: N1_1  and  C1_4
REMARK    2  A    between atoms: N4_16  and  C6_17
REMARK    3  A    between atoms: C6_17  and  N5_18
ROOT
HETATM    1  C1  UNL     1      84.463  90.735 114.288  1.00  0.00     0.680 A
HETATM    2  N2  UNL     1      84.238  91.365 113.122  1.00  0.00    -0.155 N
ATOM      3  H2  UNL     1      83.499  92.064 113.045  1.00  0.00     0.187 HD
HETATM    4  C2  UNL     1      85.001  91.061 112.057  1.00  0.00     0.279 A
HETATM    5  O1  UNL     1      84.847  91.608 110.939  1.00  0.00    -0.266 OA
HETATM    6  C3  UNL     1      85.985  90.107 112.221  1.00  0.00     0.145 A
HETATM    7  C4  UNL     1      86.807  89.761 111.150  1.00  0.00     0.269 A
HETATM    8  O2  UNL     1      86.617  90.331 110.063  1.00  0.00    -0.267 OA
HETATM    9  N3  UNL     1      87.760  88.839 111.327  1.00  0.00    -0.274 N
ATOM     10  H3  UNL     1      88.356  88.592 110.538  1.00  0.00     0.173 HD
HETATM   11  C5  UNL     1      87.962  88.225 112.505  1.00  0.00     0.332 A
HETATM   12  O3  UNL     1      88.858  87.354 112.685  1.00  0.00    -0.246 OA
HETATM   13  N4  UNL     1      87.190  88.523 113.583  1.00  0.00    -0.259 N
HETATM   14  C7  UNL     1      86.225  89.448 113.430  1.00  0.00     0.150 A
HETATM   15  N6  UNL     1      85.425  89.801 114.454  1.00  0.00    -0.175 N
ATOM     16  H6  UNL     1      85.547  89.359 115.365  1.00  0.00     0.186 HD
ENDROOT
BRANCH  13  17
HETATM   17  C6  UNL     1      87.407  87.865 114.848  1.00  0.00     0.365 C
BRANCH  17  18
HETATM   18  N5  UNL     1      86.707  86.593 114.860  1.00  0.00    -0.063 N
ATOM     19  H53 UNL     1      85.722  86.693 114.615  1.00  0.00     0.276 HD
ATOM     20  H52 UNL     1      86.990  85.991 114.087  1.00  0.00     0.276 HD
ATOM     21  H51 UNL     1      86.835  86.143 115.766  1.00  0.00     0.276 HD
ENDBRANCH  17  18
ENDBRANCH  13  17
BRANCH   1  22
HETATM   22  N1  UNL     1      83.740  91.007 115.340  1.00  0.00    -0.234 N
ATOM     23  H12 UNL     1      82.733  90.886 115.236  1.00  0.00     0.174 HD
ATOM     24  H11 UNL     1      84.179  91.321 116.206  1.00  0.00     0.174 HD
ENDBRANCH   1  22
TORSDOF 3
ENDMDL