MODEL 2
REMARK VINA RESULT: -6.021772545      1.473      2.053
REMARK  3 active torsions:
REMARK  status: ('A' for Active; 'I' for Inactive)
REMARK    1  A    between atoms: N1_1  and  C1_4
REMARK    2  A    between atoms: C3_8  and  C4_9
REMARK    3  A    between atoms: C4_9  and  C5_10
ROOT
HETATM    1  C1  UNL     1      83.794  81.573 117.939  1.00  0.00     0.678 A
HETATM    2  N2  UNL     1      83.756  80.750 116.899  1.00  0.00    -0.201 N
ATOM      3  H2  UNL     1      82.890  80.265 116.661  1.00  0.00     0.183 HD
HETATM    4  C2  UNL     1      84.877  80.553 116.148  1.00  0.00     0.118 A
HETATM    5  C3  UNL     1      86.050  81.201 116.460  1.00  0.00     0.029 A
HETATM    6  C8  UNL     1      86.070  82.050 117.541  1.00  0.00     0.267 A
HETATM    7  O2  UNL     1      87.080  82.686 117.907  1.00  0.00    -0.267 OA
HETATM    8  N6  UNL     1      84.938  82.204 118.240  1.00  0.00    -0.156 N
ATOM      9  H6  UNL     1      84.946  82.833 119.043  1.00  0.00     0.187 HD
ENDROOT
BRANCH   5  10
HETATM   10  C4  UNL     1      87.234  80.974 115.641  1.00  0.00     0.080 C
BRANCH  10  11
HETATM   11  C5  UNL     1      87.692  82.194 114.874  1.00  0.00     0.181 A
HETATM   12  N3  UNL     1      86.596  82.852 114.224  1.00  0.00    -0.351 N
HETATM   13  C6  UNL     1      86.700  82.838 112.948  1.00  0.00     0.191 A
ATOM     14  H3  UNL     1      85.818  83.284 114.724  1.00  0.00     0.163 HD
HETATM   15  N4  UNL     1      85.775  83.408 112.000  1.00  0.00    -0.063 NA
HETATM   16  N5  UNL     1      87.891  82.161 112.583  1.00  0.00    -0.299 N
HETATM   17  C7  UNL     1      88.539  81.743 113.771  1.00  0.00     0.247 A
ATOM     18  H5  UNL     1      88.223  82.003 111.631  1.00  0.00     0.171 HD
HETATM   19  O1  UNL     1      89.629  81.114 113.764  1.00  0.00    -0.271 OA
ENDBRANCH  10  11
ENDBRANCH   5  10
BRANCH   1  20
HETATM   20  N1  UNL     1      82.756  81.776 118.662  1.00  0.00    -0.234 N
ATOM     21  H12 UNL     1      82.732  81.410 119.613  1.00  0.00     0.174 HD
ATOM     22  H11 UNL     1      81.955  82.296 118.303  1.00  0.00     0.174 HD
ENDBRANCH   1  20
TORSDOF 3
ENDMDL