MODEL 2
REMARK VINA RESULT: -5.484591880      1.616      2.559
REMARK  5 active torsions:
REMARK  status: ('A' for Active; 'I' for Inactive)
REMARK    1  A    between atoms: N1_1  and  C1_4
REMARK    2  A    between atoms: N5_17  and  C6_18
REMARK    3  A    between atoms: C6_18  and  C7_19
REMARK    4  A    between atoms: C7_19  and  O3_20
REMARK    5  A    between atoms: O3_20  and  N6_21
ROOT
HETATM    1  C1  UNL     1      83.993  80.528 116.779  1.00  0.00     0.680 A
HETATM    2  N2  UNL     1      84.955  81.332 116.289  1.00  0.00    -0.182 N
ATOM      3  H2  UNL     1      85.208  81.412 115.304  1.00  0.00     0.184 HD
HETATM    4  C2  UNL     1      85.532  82.016 117.294  1.00  0.00     0.162 A
HETATM    5  C3  UNL     1      86.539  82.951 117.378  1.00  0.00     0.280 A
HETATM    6  O1  UNL     1      87.088  83.287 116.288  1.00  0.00    -0.265 OA
HETATM    7  N3  UNL     1      86.936  83.494 118.551  1.00  0.00    -0.273 N
ATOM      8  H3  UNL     1      87.686  84.185 118.580  1.00  0.00     0.173 HD
HETATM    9  C4  UNL     1      86.317  83.100 119.679  1.00  0.00     0.328 A
HETATM   10  O2  UNL     1      86.698  83.618 120.778  1.00  0.00    -0.247 OA
HETATM   11  N4  UNL     1      85.329  82.188 119.629  1.00  0.00    -0.292 N
ATOM     12  H4  UNL     1      84.875  81.905 120.497  1.00  0.00     0.172 HD
HETATM   13  C5  UNL     1      84.916  81.632 118.468  1.00  0.00     0.160 A
HETATM   14  N5  UNL     1      83.989  80.728 118.110  1.00  0.00    -0.164 N
ENDROOT
BRANCH  14  15
HETATM   15  C6  UNL     1      83.106  80.061 119.036  1.00  0.00     0.178 C
BRANCH  15  16
HETATM   16  C7  UNL     1      83.371  78.576 119.087  1.00  0.00     0.221 C
BRANCH  16  17
HETATM   17  O3  UNL     1      82.224  77.864 119.436  1.00  0.00    -0.286 OA
BRANCH  17  18
HETATM   18  N6  UNL     1      82.489  76.613 119.817  1.00  0.00    -0.311 N
ATOM     19  H62 UNL     1      82.512  76.326 120.795  1.00  0.00     0.184 HD
ATOM     20  H61 UNL     1      82.664  75.990 119.028  1.00  0.00     0.184 HD
ENDBRANCH  17  18
ENDBRANCH  16  17
ENDBRANCH  15  16
ENDBRANCH  14  15
BRANCH   1  21
HETATM   21  N1  UNL     1      83.221  79.717 116.096  1.00  0.00    -0.234 N
ATOM     22  H12 UNL     1      82.321  79.936 115.668  1.00  0.00     0.174 HD
ATOM     23  H11 UNL     1      83.399  78.735 115.886  1.00  0.00     0.174 HD
ENDBRANCH   1  21
TORSDOF 5
ENDMDL