MODEL 2
REMARK VINA RESULT: -6.572653891      3.041      5.748
REMARK  3 active torsions:
REMARK  status: ('A' for Active; 'I' for Inactive)
REMARK    1  A    between atoms: N3_4  and  N4_6
REMARK    2  A    between atoms: C2_8  and  C3_9
REMARK    3  A    between atoms: N6_17  and  N7_18
ROOT
HETATM    1  C3  UNL     1      84.827  81.726 117.721  1.00  0.00     0.083 A
HETATM    2  C4  UNL     1      85.713  81.097 116.879  1.00  0.00     0.107 A
HETATM    3  C5  UNL     1      86.957  81.664 116.547  1.00  0.00     0.251 A
HETATM    4  O1  UNL     1      87.719  81.034 115.771  1.00  0.00    -0.268 OA
HETATM    5  N5  UNL     1      87.267  82.856 117.081  1.00  0.00    -0.274 N
ATOM      6  H5  UNL     1      88.160  83.299 116.864  1.00  0.00     0.173 HD
HETATM    7  C6  UNL     1      86.394  83.462 117.904  1.00  0.00     0.348 A
HETATM    8  O2  UNL     1      86.687  84.579 118.403  1.00  0.00    -0.245 OA
HETATM    9  N6  UNL     1      85.208  82.940 118.230  1.00  0.00    -0.210 N
ENDROOT
BRANCH   1  10
HETATM   10  C2  UNL     1      83.540  81.185 118.091  1.00  0.00     0.139 C
HETATM   11  N4  UNL     1      83.263  80.089 118.592  1.00  0.00    -0.308 N
ATOM     12  H4  UNL     1      82.259  79.988 118.742  1.00  0.00     0.186 HD
BRANCH  11  13
HETATM   13  N3  UNL     1      83.942  78.984 118.997  1.00  0.00    -0.276 N
HETATM   14  C1  UNL     1      83.322  77.912 119.380  1.00  0.00     0.215 C
HETATM   15  N1  UNL     1      84.118  76.788 119.792  1.00  0.00    -0.065 NA
HETATM   16  N2  UNL     1      81.909  77.880 119.384  1.00  0.00    -0.065 NA
ATOM     17  H3  UNL     1      84.962  78.997 118.998  1.00  0.00     0.189 HD
ENDBRANCH  11  13
ENDBRANCH   1  10
BRANCH   9  18
HETATM   18  N7  UNL     1      84.335  83.610 119.090  1.00  0.00    -0.334 N
ATOM     19  H72 UNL     1      84.685  84.237 119.814  1.00  0.00     0.177 HD
ATOM     20  H71 UNL     1      83.331  83.463 118.980  1.00  0.00     0.177 HD
ENDBRANCH   9  18
TORSDOF 3
ENDMDL