MODEL 3
REMARK VINA RESULT: -6.442058003      3.103      5.679
REMARK  3 active torsions:
REMARK  status: ('A' for Active; 'I' for Inactive)
REMARK    1  A    between atoms: N1_1  and  C1_4
REMARK    2  A    between atoms: N4_13  and  C4_14
REMARK    3  A    between atoms: C4_14  and  C5_15
ROOT
HETATM    1  C1  UNL     1      86.996  85.998 114.049  1.00  0.00     0.686 A
HETATM    2  N2  UNL     1      87.632  87.205 114.045  1.00  0.00    -0.141 N
ATOM      3  H2  UNL     1      87.493  87.835 114.835  1.00  0.00     0.189 HD
HETATM    4  C2  UNL     1      88.425  87.591 113.054  1.00  0.00     0.342 A
HETATM    5  O1  UNL     1      89.023  88.715 113.038  1.00  0.00    -0.246 OA
HETATM    6  N3  UNL     1      88.587  86.741 112.035  1.00  0.00    -0.259 N
ATOM      7  H3  UNL     1      89.191  87.007 111.257  1.00  0.00     0.175 HD
HETATM    8  C3  UNL     1      87.978  85.552 112.010  1.00  0.00     0.345 A
HETATM    9  O2  UNL     1      88.169  84.794 111.022  1.00  0.00    -0.246 OA
HETATM   10  N4  UNL     1      87.170  85.158 113.019  1.00  0.00    -0.127 N
ENDROOT
BRANCH  10  11
HETATM   11  C4  UNL     1      86.561  83.848 112.928  1.00  0.00     0.211 C
BRANCH  11  12
HETATM   12  C5  UNL     1      87.266  82.806 113.682  1.00  0.00     0.048 A
HETATM   13  C6  UNL     1      88.372  82.049 113.330  1.00  0.00     0.119 A
HETATM   14  N5  UNL     1      88.638  81.237 114.343  1.00  0.00    -0.317 N
HETATM   15  C7  UNL     1      87.765  81.430 115.324  1.00  0.00     0.324 A
ATOM     16  H5  UNL     1      89.402  80.562 114.366  1.00  0.00     0.170 HD
HETATM   17  O3  UNL     1      87.716  80.826 116.450  1.00  0.00    -0.247 OA
HETATM   18  N6  UNL     1      86.937  82.387 114.907  1.00  0.00    -0.309 N
ATOM     19  H6  UNL     1      86.154  82.752 115.451  1.00  0.00     0.170 HD
ENDBRANCH  11  12
ENDBRANCH  10  11
BRANCH   1  20
HETATM   20  N1  UNL     1      86.229  85.696 115.048  1.00  0.00    -0.234 N
ATOM     21  H12 UNL     1      85.404  86.250 115.275  1.00  0.00     0.174 HD
ATOM     22  H11 UNL     1      86.463  84.887 115.625  1.00  0.00     0.174 HD
ENDBRANCH   1  20
TORSDOF 3
ENDMDL