MODEL 2
REMARK VINA RESULT: -5.053208932      2.005      5.982
REMARK  3 active torsions:
REMARK  status: ('A' for Active; 'I' for Inactive)
REMARK    1  A    between atoms: N3_10  and  C4_12
REMARK    2  A    between atoms: C8_21  and  C9_22
REMARK    3  A    between atoms: C9_22  and  N6_23
ROOT
HETATM    1  N1  UNL     1      84.872  82.962 120.060  1.00  0.00    -0.385 N
ATOM      2  H11 UNL     1      84.189  82.445 120.614  1.00  0.00     0.157 HD
ATOM      3  H12 UNL     1      85.358  83.786 120.412  1.00  0.00     0.157 HD
HETATM    4  C1  UNL     1      85.167  82.589 118.853  1.00  0.00     0.109 A
HETATM    5  N2  UNL     1      86.118  83.307 118.082  1.00  0.00    -0.308 N
ATOM      6  H2  UNL     1      86.581  84.128 118.471  1.00  0.00     0.170 HD
HETATM    7  C2  UNL     1      86.420  82.872 116.757  1.00  0.00     0.273 A
HETATM    8  O1  UNL     1      87.274  83.525 116.076  1.00  0.00    -0.266 OA
HETATM    9  C3  UNL     1      85.732  81.697 116.249  1.00  0.00     0.103 A
HETATM   10  N3  UNL     1      85.957  81.257 115.075  1.00  0.00    -0.340 N
ATOM     11  H3  UNL     1      85.430  80.429 114.799  1.00  0.00     0.167 HD
HETATM   12  C7  UNL     1      84.754  81.010 117.126  1.00  0.00     0.048 A
HETATM   13  C8  UNL     1      84.475  81.411 118.350  1.00  0.00     0.013 A
ENDROOT
BRANCH  10  14
HETATM   14  C4  UNL     1      86.837  81.771 114.117  1.00  0.00     0.105 C
HETATM   15  N4  UNL     1      86.581  82.791 113.368  1.00  0.00    -0.355 N
HETATM   16  C5  UNL     1      87.702  83.076 112.474  1.00  0.00     0.356 C
ATOM     17  H4  UNL     1      85.714  83.327 113.398  1.00  0.00     0.162 HD
HETATM   18  N5  UNL     1      88.823  82.520 113.235  1.00  0.00    -0.053 N
HETATM   19  C6  UNL     1      88.201  81.313 113.740  1.00  0.00     0.309 C
ATOM     20  H52 UNL     1      89.693  82.391 112.719  1.00  0.00     0.279 HD
ATOM     21  H51 UNL     1      89.236  83.135 113.936  1.00  0.00     0.279 HD
ENDBRANCH  10  14
BRANCH  13  22
HETATM   22  C9  UNL     1      83.475  80.681 119.201  1.00  0.00     0.271 C
BRANCH  22  23
HETATM   23  N6  UNL     1      83.082  79.427 118.596  1.00  0.00    -0.075 N
ATOM     24  H63 UNL     1      83.493  79.315 117.669  1.00  0.00     0.274 HD
ATOM     25  H62 UNL     1      83.523  78.633 119.062  1.00  0.00     0.274 HD
ATOM     26  H61 UNL     1      82.067  79.329 118.570  1.00  0.00     0.274 HD
ENDBRANCH  22  23
ENDBRANCH  13  22
TORSDOF 3
ENDMDL