MODEL 3
REMARK VINA RESULT: -7.394173266      8.809     10.383
REMARK  5 active torsions:
REMARK  status: ('A' for Active; 'I' for Inactive)
REMARK    1  A    between atoms: N1_1  and  C1_4
REMARK    2  A    between atoms: C1_4  and  N2_5
REMARK    3  A    between atoms: C1_4  and  C3_16
REMARK    4  A    between atoms: N2_5  and  C2_7
REMARK    5  A    between atoms: C4_21  and  N9_22
ROOT
HETATM    1  C1  UNL     1      87.815  88.910 112.200  1.00  0.00     0.148 C
ENDROOT
BRANCH   1   2
HETATM    2  N1  UNL     1      87.965  89.349 110.999  1.00  0.00    -0.383 N
ATOM      3  H12 UNL     1      87.865  88.720 110.202  1.00  0.00     0.157 HD
ATOM      4  H11 UNL     1      88.184  90.335 110.857  1.00  0.00     0.157 HD
ENDBRANCH   1   2
BRANCH   1   5
HETATM    5  N2  UNL     1      88.535  87.758 112.606  1.00  0.00    -0.172 N
ATOM      6  H2  UNL     1      89.395  87.879 113.140  1.00  0.00     0.186 HD
BRANCH   5   7
HETATM    7  C2  UNL     1      88.148  86.583 112.327  1.00  0.00     0.715 A
HETATM    8  N3  UNL     1      87.318  85.852 113.089  1.00  0.00    -0.115 N
HETATM    9  N4  UNL     1      87.131  84.683 112.497  1.00  0.00    -0.213 N
ATOM     10  H3  UNL     1      86.903  86.146 113.973  1.00  0.00     0.207 HD
HETATM   11  N5  UNL     1      87.823  84.651 111.375  1.00  0.00    -0.213 N
ATOM     12  H4  UNL     1      86.545  83.927 112.852  1.00  0.00     0.210 HD
HETATM   13  N6  UNL     1      88.448  85.815 111.268  1.00  0.00    -0.115 N
ATOM     14  H5  UNL     1      87.868  83.876 110.713  1.00  0.00     0.210 HD
ATOM     15  H6  UNL     1      89.062  86.085 110.500  1.00  0.00     0.207 HD
ENDBRANCH   5   7
ENDBRANCH   1   5
BRANCH   1  16
HETATM   16  C3  UNL     1      86.911  89.594 113.137  1.00  0.00     0.161 A
HETATM   17  N7  UNL     1      85.981  88.942 113.851  1.00  0.00    -0.278 N
HETATM   18  N8  UNL     1      85.178  89.596 114.692  1.00  0.00    -0.132 N
ATOM     19  H7  UNL     1      85.886  87.932 113.749  1.00  0.00     0.188 HD
HETATM   20  C4  UNL     1      85.242  90.926 114.880  1.00  0.00     0.693 A
ATOM     21  H8  UNL     1      84.484  89.063 115.217  1.00  0.00     0.205 HD
HETATM   22  N10 UNL     1      86.163  91.607 114.181  1.00  0.00    -0.153 N
HETATM   23  C5  UNL     1      86.994  90.958 113.315  1.00  0.00     0.291 A
ATOM     24  H10 UNL     1      86.242  92.617 114.298  1.00  0.00     0.187 HD
HETATM   25  O1  UNL     1      87.859  91.598 112.657  1.00  0.00    -0.265 OA
BRANCH  20  26
HETATM   26  N9  UNL     1      84.433  91.517 115.715  1.00  0.00    -0.233 N
ATOM     27  H92 UNL     1      84.359  92.534 115.767  1.00  0.00     0.174 HD
ATOM     28  H91 UNL     1      83.848  90.970 116.346  1.00  0.00     0.174 HD
ENDBRANCH  20  26
ENDBRANCH   1  16
TORSDOF 5
ENDMDL