MODEL 4
REMARK VINA RESULT: -6.881993000      1.674      5.372
REMARK  3 active torsions:
REMARK  status: ('A' for Active; 'I' for Inactive)
REMARK    1  A    between atoms: N1_1  and  C1_4
REMARK    2  A    between atoms: N3_9  and  C3_10
REMARK    3  A    between atoms: C3_10  and  C4_11
ROOT
HETATM    1  C3  UNL     1      87.418  81.528 116.376  1.00  0.00     0.219 C
ENDROOT
BRANCH   1   2
HETATM    2  N3  UNL     1      86.303  81.927 117.193  1.00  0.00    -0.222 N
HETATM    3  C2  UNL     1      86.162  82.902 118.087  1.00  0.00     0.356 A
HETATM    4  N2  UNL     1      84.913  82.879 118.639  1.00  0.00    -0.139 N
HETATM    5  O1  UNL     1      87.042  83.771 118.418  1.00  0.00    -0.244 OA
HETATM    6  C1  UNL     1      84.290  81.859 118.056  1.00  0.00     0.694 A
ATOM      7  H2  UNL     1      84.538  83.509 119.347  1.00  0.00     0.189 HD
HETATM    8  N7  UNL     1      85.116  81.279 117.185  1.00  0.00    -0.126 N
ATOM      9  H7  UNL     1      84.888  80.472 116.603  1.00  0.00     0.206 HD
BRANCH   6  10
HETATM   10  N1  UNL     1      83.063  81.486 118.301  1.00  0.00    -0.233 N
ATOM     11  H12 UNL     1      82.230  82.056 118.153  1.00  0.00     0.174 HD
ATOM     12  H11 UNL     1      82.786  80.576 118.670  1.00  0.00     0.174 HD
ENDBRANCH   6  10
ENDBRANCH   1   2
BRANCH   1  13
HETATM   13  C4  UNL     1      87.502  82.106 115.042  1.00  0.00     0.114 A
HETATM   14  N4  UNL     1      86.788  83.256 114.829  1.00  0.00    -0.294 N
HETATM   15  N5  UNL     1      86.808  83.823 113.635  1.00  0.00    -0.251 N
ATOM     16  H4  UNL     1      86.245  83.672 115.587  1.00  0.00     0.187 HD
HETATM   17  C5  UNL     1      87.502  83.326 112.601  1.00  0.00     0.341 A
ATOM     18  H5  UNL     1      86.271  84.678 113.494  1.00  0.00     0.191 HD
HETATM   19  O2  UNL     1      87.458  83.945 111.488  1.00  0.00    -0.245 OA
HETATM   20  N6  UNL     1      88.215  82.206 112.758  1.00  0.00    -0.273 N
HETATM   21  C6  UNL     1      88.202  81.609 113.991  1.00  0.00     0.275 A
ATOM     22  H6  UNL     1      88.751  81.810 111.986  1.00  0.00     0.173 HD
HETATM   23  O3  UNL     1      88.887  80.566 114.083  1.00  0.00    -0.266 OA
ENDBRANCH   1  13
TORSDOF 3
ENDMDL