MODEL 2
REMARK VINA RESULT: -4.308214033      2.214      6.165
REMARK  5 active torsions:
REMARK  status: ('A' for Active; 'I' for Inactive)
REMARK    1  A    between atoms: N1_1  and  C1_5
REMARK    2  A    between atoms: C1_5  and  C2_6
REMARK    3  A    between atoms: C2_6  and  O1_7
REMARK    4  A    between atoms: O1_7  and  C3_8
REMARK    5  A    between atoms: C3_8  and  C4_9
ROOT
HETATM    1  C3  UNL     1      16.060   4.482   1.377  1.00  0.00     0.244 C
ENDROOT
BRANCH   1   2
HETATM    2  O1  UNL     1      16.903   3.717   2.121  1.00  0.00    -0.382 OA
BRANCH   2   3
HETATM    3  C2  UNL     1      18.195   4.123   2.153  1.00  0.00     0.195 C
BRANCH   3   4
HETATM    4  C1  UNL     1      19.022   3.288   3.084  1.00  0.00     0.255 C
BRANCH   4   5
HETATM    5  N1  UNL     1      20.170   4.046   3.583  1.00  0.00    -0.077 N
ATOM      6  H13 UNL     1      19.878   4.859   4.125  1.00  0.00     0.274 HD
ATOM      7  H12 UNL     1      20.665   3.541   4.318  1.00  0.00     0.274 HD
ATOM      8  H11 UNL     1      20.793   4.307   2.818  1.00  0.00     0.274 HD
ENDBRANCH   4   5
ENDBRANCH   3   4
ENDBRANCH   2   3
ENDBRANCH   1   2
BRANCH   1   9
HETATM    9  C4  UNL     1      14.876   4.807   2.246  1.00  0.00     0.105 A
HETATM   10  N2  UNL     1      14.510   4.187   3.373  1.00  0.00    -0.353 N
HETATM   11  C5  UNL     1      13.408   4.778   3.834  1.00  0.00     0.106 A
ATOM     12  H2  UNL     1      14.991   3.397   3.805  1.00  0.00     0.166 HD
HETATM   13  C6  UNL     1      13.075   5.807   2.959  1.00  0.00     0.106 A
HETATM   14  N3  UNL     1      14.013   5.793   1.984  1.00  0.00    -0.353 N
ATOM     15  H3  UNL     1      14.054   6.427   1.185  1.00  0.00     0.166 HD
ENDBRANCH   1   9
TORSDOF 5
ENDMDL