MODEL 5
REMARK VINA RESULT: -4.471123129      1.580      1.806
REMARK  4 active torsions:
REMARK  status: ('A' for Active; 'I' for Inactive)
REMARK    1  A    between atoms: N1_3  and  C3_5
REMARK    2  A    between atoms: N2_6  and  O1_8
REMARK    3  A    between atoms: O1_8  and  C4_9
REMARK    4  A    between atoms: C4_9  and  C5_10
ROOT
HETATM    1  C1  UNL     1      13.077   5.628   2.890  1.00  0.00     0.037 C
HETATM    2  C2  UNL     1      14.094   5.451   2.265  1.00  0.00    -0.000 C
HETATM    3  N1  UNL     1      15.286   5.265   1.519  1.00  0.00    -0.311 N
ATOM      4  H1  UNL     1      15.533   5.923   0.780  1.00  0.00     0.177 HD
ENDROOT
BRANCH   3   5
HETATM    5  C3  UNL     1      16.128   4.174   1.799  1.00  0.00     0.212 C
HETATM    6  N2  UNL     1      17.371   4.382   1.985  1.00  0.00    -0.262 N
ATOM      7  H2  UNL     1      17.715   5.341   1.923  1.00  0.00     0.195 HD
BRANCH   6   8
HETATM    8  O1  UNL     1      18.275   3.377   2.264  1.00  0.00    -0.277 OA
BRANCH   8   9
HETATM    9  C4  UNL     1      19.639   3.675   2.501  1.00  0.00     0.235 C
BRANCH   9  10
HETATM   10  C5  UNL     1      20.446   2.815   1.552  1.00  0.00     0.237 A
HETATM   11  C6  UNL     1      20.861   3.311   0.267  1.00  0.00     0.268 A
HETATM   12  N3  UNL     1      21.838   3.246   1.396  1.00  0.00    -0.065 N
ATOM     13  H32 UNL     1      22.461   3.902   1.867  1.00  0.00     0.277 HD
ATOM     14  H31 UNL     1      22.757   2.831   1.549  1.00  0.00     0.277 HD
ENDBRANCH   9  10
ENDBRANCH   8   9
ENDBRANCH   6   8
ENDBRANCH   3   5
TORSDOF 4
ENDMDL