MODEL 5
REMARK VINA RESULT: -4.385818458      1.019      1.179
REMARK  4 active torsions:
REMARK  status: ('A' for Active; 'I' for Inactive)
REMARK    1  A    between atoms: C2_2  and  C3_3
REMARK    2  A    between atoms: C3_3  and  O1_4
REMARK    3  A    between atoms: O1_4  and  N1_5
REMARK    4  A    between atoms: C4_7  and  C5_8
ROOT
HETATM    1  N1  UNL     1      12.411   4.488   3.701  1.00  0.00    -0.280 N
ATOM      2  H1  UNL     1      11.465   4.345   4.058  1.00  0.00     0.193 HD
HETATM    3  C4  UNL     1      12.487   5.339   2.822  1.00  0.00     0.119 C
ENDROOT
BRANCH   3   4
HETATM    4  C5  UNL     1      13.785   5.691   2.209  1.00  0.00     0.227 C
HETATM    5  C6  UNL     1      14.163   4.636   1.110  1.00  0.00     0.066 C
HETATM    6  C7  UNL     1      15.594   4.732   1.661  1.00  0.00     0.235 C
HETATM    7  N2  UNL     1      15.020   5.313   2.801  1.00  0.00    -0.066 N
ATOM      8  H22 UNL     1      15.555   6.048   3.263  1.00  0.00     0.278 HD
ATOM      9  H21 UNL     1      14.972   4.735   3.640  1.00  0.00     0.278 HD
ENDBRANCH   3   4
BRANCH   1  10
HETATM   10  O1  UNL     1      13.344   3.702   4.289  1.00  0.00    -0.277 OA
BRANCH  10  11
HETATM   11  C3  UNL     1      13.153   2.265   3.939  1.00  0.00     0.228 C
BRANCH  11  12
HETATM   12  C2  UNL     1      14.476   1.659   4.011  1.00  0.00    -0.009 C
HETATM   13  C1  UNL     1      15.546   2.129   4.544  1.00  0.00     0.009 C
ENDBRANCH  11  12
ENDBRANCH  10  11
ENDBRANCH   1  10
TORSDOF 4
ENDMDL