MODEL 2
REMARK VINA RESULT: -4.592794231      0.865      1.292
REMARK  4 active torsions:
REMARK  status: ('A' for Active; 'I' for Inactive)
REMARK    1  A    between atoms: N1_2  and  C2_5
REMARK    2  A    between atoms: C2_5  and  C3_6
REMARK    3  A    between atoms: C3_6  and  C4_7
REMARK    4  A    between atoms: C4_7  and  C5_8
ROOT
HETATM    1  C5  UNL     1      13.235   3.311   3.839  1.00  0.00     0.096 A
HETATM    2  N2  UNL     1      14.218   3.407   4.763  1.00  0.00    -0.288 N
ATOM      3  H2  UNL     1      14.477   4.257   5.263  1.00  0.00     0.188 HD
HETATM    4  N3  UNL     1      14.790   2.226   4.915  1.00  0.00    -0.295 N
ATOM      5  H3  UNL     1      15.561   2.021   5.551  1.00  0.00     0.187 HD
HETATM    6  C6  UNL     1      14.198   1.337   4.099  1.00  0.00     0.198 A
HETATM    7  N4  UNL     1      13.244   2.022   3.445  1.00  0.00    -0.340 N
ATOM      8  H4  UNL     1      12.615   1.623   2.748  1.00  0.00     0.168 HD
ENDROOT
BRANCH   1   9
HETATM    9  C4  UNL     1      12.329   4.384   3.349  1.00  0.00     0.079 C
BRANCH   9  10
HETATM   10  C3  UNL     1      13.160   5.497   2.697  1.00  0.00     0.035 C
BRANCH  10  11
HETATM   11  C2  UNL     1      13.921   4.984   1.517  1.00  0.00     0.232 C
BRANCH  11  12
HETATM   12  N1  UNL     1      15.273   5.445   1.430  1.00  0.00    -0.079 N
HETATM   13  C1  UNL     1      16.133   4.301   1.756  1.00  0.00     0.266 C
ATOM     14  H12 UNL     1      15.457   6.264   2.010  1.00  0.00     0.276 HD
ATOM     15  H11 UNL     1      15.496   5.872   0.531  1.00  0.00     0.276 HD
ENDBRANCH  11  12
ENDBRANCH  10  11
ENDBRANCH   9  10
ENDBRANCH   1   9
TORSDOF 4
ENDMDL