MODEL 5
REMARK VINA RESULT: -4.516377995      2.176      3.710
REMARK  5 active torsions:
REMARK  status: ('A' for Active; 'I' for Inactive)
REMARK    1  A    between atoms: N1_1  and  C1_5
REMARK    2  A    between atoms: C1_5  and  C2_6
REMARK    3  A    between atoms: C2_6  and  N2_7
REMARK    4  A    between atoms: N2_7  and  C3_10
REMARK    5  A    between atoms: C3_10  and  C4_11
ROOT
HETATM    1  N2  UNL     1      12.912   4.708   4.140  1.00  0.00    -0.073 N
ATOM      2  H21 UNL     1      12.481   5.044   5.001  1.00  0.00     0.277 HD
ATOM      3  H22 UNL     1      13.869   4.671   4.490  1.00  0.00     0.277 HD
ENDROOT
BRANCH   1   4
HETATM    4  C2  UNL     1      12.736   5.618   2.995  1.00  0.00     0.259 C
BRANCH   4   5
HETATM    5  C1  UNL     1      14.020   6.069   2.374  1.00  0.00     0.257 C
BRANCH   5   6
HETATM    6  N1  UNL     1      14.356   5.330   1.199  1.00  0.00    -0.078 N
ATOM      7  H13 UNL     1      14.345   4.326   1.384  1.00  0.00     0.274 HD
ATOM      8  H12 UNL     1      13.606   5.379   0.510  1.00  0.00     0.274 HD
ATOM      9  H11 UNL     1      15.246   5.618   0.792  1.00  0.00     0.274 HD
ENDBRANCH   5   6
ENDBRANCH   4   5
ENDBRANCH   1   4
BRANCH   1  10
HETATM   10  C3  UNL     1      12.418   3.459   3.709  1.00  0.00     0.239 C
BRANCH  10  11
HETATM   11  C4  UNL     1      13.361   2.341   3.543  1.00  0.00     0.037 C
HETATM   12  C5  UNL     1      13.301   1.248   4.609  1.00  0.00     0.034 C
HETATM   13  C6  UNL     1      14.642   0.578   4.332  1.00  0.00     0.168 C
HETATM   14  O1  UNL     1      15.438   1.514   3.696  1.00  0.00    -0.391 OA
HETATM   15  C7  UNL     1      14.821   2.760   3.816  1.00  0.00     0.173 C
ENDBRANCH  10  11
ENDBRANCH   1  10
TORSDOF 5
ENDMDL