MODEL 2
REMARK VINA RESULT: -5.009972064      4.710      5.844
REMARK  3 active torsions:
REMARK  status: ('A' for Active; 'I' for Inactive)
REMARK    1  A    between atoms: C1_2  and  N1_3
REMARK    2  A    between atoms: N1_3  and  N2_5
REMARK    3  A    between atoms: C2_7  and  C3_8
ROOT
HETATM    1  N2  UNL     1      14.541   5.829   2.623  1.00  0.00    -0.308 N
ATOM      2  H2  UNL     1      14.606   6.847   2.581  1.00  0.00     0.186 HD
HETATM    3  C2  UNL     1      13.911   5.358   3.633  1.00  0.00     0.136 C
ENDROOT
BRANCH   3   4
HETATM    4  C3  UNL     1      13.673   3.969   3.933  1.00  0.00     0.049 A
HETATM    5  C4  UNL     1      12.570   3.187   3.744  1.00  0.00     0.032 A
HETATM    6  C5  UNL     1      12.854   1.908   4.206  1.00  0.00     0.019 A
HETATM    7  C6  UNL     1      14.124   1.932   4.670  1.00  0.00     0.088 A
HETATM    8  N3  UNL     1      14.610   3.169   4.504  1.00  0.00    -0.365 N
ATOM      9  H3  UNL     1      15.550   3.467   4.769  1.00  0.00     0.165 HD
ENDBRANCH   3   4
BRANCH   1  10
HETATM   10  N1  UNL     1      15.139   5.160   1.592  1.00  0.00    -0.278 N
ATOM     11  H1  UNL     1      14.623   5.076   0.716  1.00  0.00     0.189 HD
BRANCH  10  12
HETATM   12  C1  UNL     1      16.437   4.571   1.657  1.00  0.00     0.368 C
HETATM   13  O1  UNL     1      16.524   3.390   2.085  1.00  0.00    -0.282 OA
ENDBRANCH  10  12
ENDBRANCH   1  10
TORSDOF 3
ENDMDL