MODEL 2
REMARK VINA RESULT: -5.192916028      1.476      1.969
REMARK  4 active torsions:
REMARK  status: ('A' for Active; 'I' for Inactive)
REMARK    1  A    between atoms: C2_2  and  C3_3
REMARK    2  A    between atoms: C3_3  and  N1_4
REMARK    3  A    between atoms: N1_4  and  N2_5
REMARK    4  A    between atoms: N2_5  and  C4_7
ROOT
HETATM    1  C4  UNL     1      13.580   4.749   2.352  1.00  0.00     0.131 A
HETATM    2  C5  UNL     1      12.442   5.358   2.831  1.00  0.00     0.052 A
HETATM    3  C6  UNL     1      11.575   4.625   3.650  1.00  0.00     0.023 A
HETATM    4  C7  UNL     1      11.941   3.323   3.917  1.00  0.00     0.110 A
HETATM    5  N3  UNL     1      13.057   2.750   3.438  1.00  0.00    -0.306 N
HETATM    6  C8  UNL     1      13.354   1.365   3.779  1.00  0.00     0.177 C
HETATM    7  N4  UNL     1      13.855   3.470   2.666  1.00  0.00    -0.283 N
ATOM      8  H4  UNL     1      14.704   3.042   2.297  1.00  0.00     0.189 HD
ENDROOT
BRANCH   1   9
HETATM    9  N2  UNL     1      14.468   5.482   1.519  1.00  0.00    -0.288 N
ATOM     10  H2  UNL     1      14.103   5.893   0.659  1.00  0.00     0.184 HD
BRANCH   9  11
HETATM   11  N1  UNL     1      15.819   5.665   1.825  1.00  0.00    -0.136 NA
BRANCH  11  12
HETATM   12  C3  UNL     1      16.587   4.558   1.317  1.00  0.00     0.161 C
BRANCH  12  13
HETATM   13  C2  UNL     1      17.526   4.056   2.365  1.00  0.00    -0.019 C
HETATM   14  C1  UNL     1      18.838   4.035   2.191  1.00  0.00     0.008 C
ENDBRANCH  12  13
ENDBRANCH  11  12
ENDBRANCH   9  11
ENDBRANCH   1   9
TORSDOF 4
ENDMDL