MODEL 2
REMARK VINA RESULT: -5.219260824      1.732      3.151
REMARK  3 active torsions:
REMARK  status: ('A' for Active; 'I' for Inactive)
REMARK    1  A    between atoms: N1_2  and  C2_5
REMARK    2  A    between atoms: C2_5  and  C3_6
REMARK    3  A    between atoms: C5_8  and  C6_9
ROOT
HETATM    1  C3  UNL     1      13.252   4.583   2.828  1.00  0.00     0.023 A
HETATM    2  C4  UNL     1      12.296   4.482   3.929  1.00  0.00     0.020 A
HETATM    3  C5  UNL     1      13.702   4.187   4.241  1.00  0.00     0.061 A
ENDROOT
BRANCH   3   4
HETATM    4  C6  UNL     1      14.253   2.836   4.305  1.00  0.00     0.101 A
HETATM    5  N2  UNL     1      13.505   1.720   4.369  1.00  0.00    -0.340 N
HETATM    6  C7  UNL     1      14.260   0.628   4.418  1.00  0.00     0.198 A
ATOM      7  H2  UNL     1      12.485   1.713   4.379  1.00  0.00     0.168 HD
HETATM    8  N3  UNL     1      15.534   1.076   4.383  1.00  0.00    -0.295 N
HETATM    9  N4  UNL     1      15.523   2.397   4.316  1.00  0.00    -0.288 N
ATOM     10  H3  UNL     1      16.369   0.490   4.405  1.00  0.00     0.187 HD
ATOM     11  H4  UNL     1      16.351   2.991   4.277  1.00  0.00     0.188 HD
ENDBRANCH   3   4
BRANCH   1  12
HETATM   12  C2  UNL     1      13.805   5.863   2.320  1.00  0.00     0.237 C
BRANCH  12  13
HETATM   13  N1  UNL     1      14.550   5.718   1.084  1.00  0.00    -0.079 N
HETATM   14  C1  UNL     1      15.728   4.903   1.419  1.00  0.00     0.267 C
ATOM     15  H12 UNL     1      14.781   6.607   0.640  1.00  0.00     0.276 HD
ATOM     16  H11 UNL     1      13.996   5.339   0.316  1.00  0.00     0.276 HD
ENDBRANCH  12  13
ENDBRANCH   1  12
TORSDOF 3
ENDMDL