MODEL 4
REMARK VINA RESULT: -5.041822461      1.966      3.763
REMARK  4 active torsions:
REMARK  status: ('A' for Active; 'I' for Inactive)
REMARK    1  A    between atoms: C2_2  and  C3_3
REMARK    2  A    between atoms: C3_3  and  N1_4
REMARK    3  A    between atoms: N1_4  and  C4_6
REMARK    4  A    between atoms: C5_13  and  O1_14
ROOT
HETATM    1  C4  UNL     1      13.742   4.582   3.673  1.00  0.00     0.171 A
HETATM    2  N2  UNL     1      14.698   5.052   2.855  1.00  0.00    -0.268 N
ATOM      3  H2  UNL     1      15.653   4.705   2.765  1.00  0.00     0.190 HD
HETATM    4  N3  UNL     1      14.151   6.054   2.194  1.00  0.00    -0.239 N
ATOM      5  H3  UNL     1      14.632   6.616   1.493  1.00  0.00     0.208 HD
HETATM    6  N4  UNL     1      12.899   6.229   2.561  1.00  0.00    -0.262 N
ATOM      7  H4  UNL     1      12.267   6.939   2.193  1.00  0.00     0.190 HD
HETATM    8  C5  UNL     1      12.590   5.318   3.499  1.00  0.00     0.204 A
ENDROOT
BRANCH   1   9
HETATM    9  N1  UNL     1      13.845   3.608   4.498  1.00  0.00    -0.368 N
ATOM     10  H1  UNL     1      14.204   3.804   5.433  1.00  0.00     0.161 HD
BRANCH   9  11
HETATM   11  C3  UNL     1      13.481   2.249   4.179  1.00  0.00     0.148 C
BRANCH  11  12
HETATM   12  C2  UNL     1      14.692   1.393   4.277  1.00  0.00    -0.018 C
HETATM   13  C1  UNL     1      15.833   1.955   4.618  1.00  0.00     0.008 C
ENDBRANCH  11  12
ENDBRANCH   9  11
ENDBRANCH   1   9
BRANCH   8  14
HETATM   14  O1  UNL     1      11.384   5.135   4.165  1.00  0.00    -0.337 OA
HETATM   15  C6  UNL     1      10.357   4.312   3.705  1.00  0.00     0.212 C
ENDBRANCH   8  14
TORSDOF 4
ENDMDL