MODEL 2
REMARK VINA RESULT: -8.373971968      1.163      1.970
REMARK  14 active torsions:
REMARK  status: ('A' for Active; 'I' for Inactive)
REMARK    1  A    between atoms: C2_2  and  C3_3
REMARK    2  A    between atoms: C3_3  and  C4_4
REMARK    3  A    between atoms: C4_4  and  C5_5
REMARK    4  A    between atoms: C5_5  and  C6_6
REMARK    5  A    between atoms: C6_6  and  C7_7
REMARK    6  A    between atoms: C7_7  and  C8_8
REMARK    7  A    between atoms: C8_8  and  C9_9
REMARK    8  A    between atoms: C10_10  and  O1_11
REMARK    9  A    between atoms: C11_13  and  O2_14
REMARK   10  A    between atoms: O2_14  and  C12_15
REMARK   11  A    between atoms: C15_19  and  O4_20
REMARK   12  A    between atoms: C16_22  and  O5_23
REMARK   13  A    between atoms: C19_28  and  O7_29
REMARK   14  A    between atoms: C22_35  and  O8_36
ROOT
HETATM    1  C9  UNL     1      40.347  50.855  10.927  1.00  0.00     0.050 C
HETATM    2  C10 UNL     1      39.197  50.619  11.588  1.00  0.00     0.121 C
HETATM    3  C11 UNL     1      38.492  51.423  12.642  1.00  0.00     0.323 C
HETATM    4  O6  UNL     1      39.172  52.579  12.875  1.00  0.00    -0.346 OA
HETATM    5  C17 UNL     1      39.331  53.437  11.813  1.00  0.00     0.169 C
HETATM    6  C18 UNL     1      38.340  53.324  10.714  1.00  0.00     0.044 C
HETATM    7  C19 UNL     1      40.734  53.386  11.251  1.00  0.00     0.246 C
HETATM    8  N1  UNL     1      41.180  51.988  11.123  1.00  0.00    -0.362 N
ATOM      9  H1  UNL     1      42.183  51.817  11.182  1.00  0.00     0.162 HD
ENDROOT
BRANCH   1  10
HETATM   10  C8  UNL     1      40.785  49.867   9.933  1.00  0.00     0.007 C
HETATM   11  C20 UNL     1      42.296  49.823   9.965  1.00  0.00     0.018 C
HETATM   12  C21 UNL     1      42.773  49.893   8.525  1.00  0.00     0.033 C
HETATM   13  C22 UNL     1      41.667  50.656   7.824  1.00  0.00     0.119 C
HETATM   14  C23 UNL     1      40.397  50.252   8.526  1.00  0.00     0.047 C
BRANCH  10  15
HETATM   15  C7  UNL     1      40.282  48.471  10.251  1.00  0.00     0.016 C
BRANCH  15  16
HETATM   16  C6  UNL     1      39.839  47.673   9.052  1.00  0.00     0.001 C
BRANCH  16  17
HETATM   17  C5  UNL     1      40.868  46.539   8.854  1.00  0.00     0.000 C
BRANCH  17  18
HETATM   18  C4  UNL     1      41.138  45.874  10.204  1.00  0.00     0.000 C
BRANCH  18  19
HETATM   19  C3  UNL     1      40.823  44.409  10.155  1.00  0.00    -0.000 C
BRANCH  19  20
HETATM   20  C2  UNL     1      39.979  44.039   8.976  1.00  0.00    -0.005 C
HETATM   21  C1  UNL     1      39.562  42.592   9.043  1.00  0.00     0.005 C
ENDBRANCH  19  20
ENDBRANCH  18  19
ENDBRANCH  17  18
ENDBRANCH  16  17
ENDBRANCH  15  16
ENDBRANCH  10  15
BRANCH  13  22
HETATM   22  O8  UNL     1      41.884  52.026   7.798  1.00  0.00    -0.396 OA
ATOM     23  H8  UNL     1      41.207  52.501   7.330  1.00  0.00     0.210 HD
ENDBRANCH  13  22
ENDBRANCH   1  10
BRANCH   2  24
HETATM   24  O1  UNL     1      38.501  49.459  11.291  1.00  0.00    -0.358 OA
ATOM     25  H1  UNL     1      38.197  48.923  12.014  1.00  0.00     0.217 HD
ENDBRANCH   2  24
BRANCH   3  26
HETATM   26  O2  UNL     1      38.499  50.668  13.808  1.00  0.00    -0.322 OA
BRANCH  26  27
HETATM   27  C12 UNL     1      37.287  50.367  14.319  1.00  0.00     0.295 C
HETATM   28  O3  UNL     1      36.229  50.408  13.419  1.00  0.00    -0.351 OA
HETATM   29  C13 UNL     1      35.154  50.177  14.311  1.00  0.00     0.152 C
HETATM   30  C14 UNL     1      33.837  50.194  13.639  1.00  0.00     0.042 C
HETATM   31  C15 UNL     1      35.364  51.328  15.274  1.00  0.00     0.180 C
HETATM   32  C16 UNL     1      36.871  51.213  15.505  1.00  0.00     0.204 C
BRANCH  31  33
HETATM   33  O4  UNL     1      35.078  52.500  14.580  1.00  0.00    -0.390 OA
ATOM     34  H4  UNL     1      34.753  53.127  15.215  1.00  0.00     0.210 HD
ENDBRANCH  31  33
BRANCH  32  35
HETATM   35  O5  UNL     1      37.495  52.445  15.486  1.00  0.00    -0.388 OA
ATOM     36  H5  UNL     1      37.060  53.043  14.891  1.00  0.00     0.210 HD
ENDBRANCH  32  35
ENDBRANCH  26  27
ENDBRANCH   3  26
BRANCH   7  37
HETATM   37  O7  UNL     1      40.792  53.987  10.009  1.00  0.00    -0.374 OA
ATOM     38  H7  UNL     1      40.600  54.916  10.071  1.00  0.00     0.212 HD
ENDBRANCH   7  37
TORSDOF 14
ENDMDL