MODEL 2
REMARK VINA RESULT: -6.964026874      2.350      4.382
REMARK  14 active torsions:
REMARK  status: ('A' for Active; 'I' for Inactive)
REMARK    1  A    between atoms: C2_2  and  C3_3
REMARK    2  A    between atoms: C3_3  and  C4_4
REMARK    3  A    between atoms: C3_3  and  C22_35
REMARK    4  A    between atoms: C5_5  and  C6_6
REMARK    5  A    between atoms: C6_6  and  O1_9
REMARK    6  A    between atoms: O1_9  and  C9_10
REMARK    7  A    between atoms: C10_11  and  O2_12
REMARK    8  A    between atoms: O2_12  and  C11_13
REMARK    9  A    between atoms: C13_15  and  O3_16
REMARK   10  A    between atoms: C15_19  and  O4_20
REMARK   11  A    between atoms: C16_22  and  O5_23
REMARK   12  A    between atoms: C20_29  and  O6_30
REMARK   13  A    between atoms: C21_32  and  O7_33
REMARK   14  A    between atoms: C22_35  and  O8_36
ROOT
HETATM    1  C9  UNL     1      37.215  52.425  14.327  1.00  0.00     0.187 C
HETATM    2  C10 UNL     1      36.557  52.753  15.650  1.00  0.00     0.186 C
HETATM    3  C17 UNL     1      37.686  53.314  16.421  1.00  0.00    -0.008 C
HETATM    4  C18 UNL     1      37.935  53.095  17.688  1.00  0.00     0.101 C
HETATM    5  C19 UNL     1      39.068  53.708  18.300  1.00  0.00     0.088 C
HETATM    6  N1  UNL     1      39.979  54.203  18.817  1.00  0.00    -0.192 NA
HETATM    7  C20 UNL     1      38.457  54.152  15.485  1.00  0.00     0.181 C
HETATM    8  C21 UNL     1      38.247  53.515  14.135  1.00  0.00     0.183 C
ENDROOT
BRANCH   2   9
HETATM    9  O2  UNL     1      35.564  53.716  15.402  1.00  0.00    -0.371 OA
BRANCH   9  10
HETATM   10  C11 UNL     1      34.579  53.248  14.535  1.00  0.00     0.156 C
HETATM   11  C12 UNL     1      34.217  54.306  13.531  1.00  0.00     0.066 C
HETATM   12  C13 UNL     1      32.716  54.304  13.263  1.00  0.00     0.123 C
HETATM   13  C14 UNL     1      32.089  54.680  14.611  1.00  0.00     0.066 C
HETATM   14  C15 UNL     1      32.273  53.520  15.522  1.00  0.00     0.151 C
HETATM   15  C16 UNL     1      33.420  52.636  15.243  1.00  0.00     0.176 C
BRANCH  12  16
HETATM   16  O3  UNL     1      32.422  55.225  12.282  1.00  0.00    -0.395 OA
ATOM     17  H3  UNL     1      33.151  55.826  12.180  1.00  0.00     0.210 HD
ENDBRANCH  12  16
BRANCH  14  18
HETATM   18  O4  UNL     1      31.068  52.778  15.500  1.00  0.00    -0.393 OA
ATOM     19  H4  UNL     1      31.004  52.324  16.331  1.00  0.00     0.210 HD
ENDBRANCH  14  18
BRANCH  15  20
HETATM   20  O5  UNL     1      33.002  51.467  14.575  1.00  0.00    -0.390 OA
ATOM     21  H5  UNL     1      32.136  51.591  14.204  1.00  0.00     0.210 HD
ENDBRANCH  15  20
ENDBRANCH   9  10
ENDBRANCH   2   9
BRANCH   7  22
HETATM   22  O6  UNL     1      39.790  54.286  15.812  1.00  0.00    -0.388 OA
ATOM     23  H6  UNL     1      40.321  54.683  15.131  1.00  0.00     0.210 HD
ENDBRANCH   7  22
BRANCH   1  24
HETATM   24  O1  UNL     1      37.856  51.221  14.443  1.00  0.00    -0.366 OA
BRANCH  24  25
HETATM   25  C6  UNL     1      37.363  50.214  13.638  1.00  0.00     0.072 C
HETATM   26  C7  UNL     1      36.048  50.560  12.987  1.00  0.00     0.050 C
HETATM   27  C8  UNL     1      37.119  49.009  14.524  1.00  0.00     0.050 C
BRANCH  25  28
HETATM   28  C5  UNL     1      38.310  49.809  12.574  1.00  0.00     0.006 C
HETATM   29  C4  UNL     1      38.611  50.559  11.531  1.00  0.00    -0.021 C
BRANCH  29  30
HETATM   30  C3  UNL     1      39.571  50.127  10.472  1.00  0.00     0.031 C
BRANCH  30  31
HETATM   31  C2  UNL     1      39.849  48.626  10.596  1.00  0.00     0.006 C
HETATM   32  C1  UNL     1      41.342  48.380  10.360  1.00  0.00     0.006 C
ENDBRANCH  30  31
BRANCH  30  33
HETATM   33  C22 UNL     1      40.862  50.887  10.581  1.00  0.00     0.175 C
BRANCH  33  34
HETATM   34  O8  UNL     1      40.814  52.039  11.310  1.00  0.00    -0.395 OA
HETATM   35  C23 UNL     1      40.954  53.205  10.579  1.00  0.00     0.201 C
ENDBRANCH  33  34
ENDBRANCH  30  33
ENDBRANCH  29  30
ENDBRANCH  25  28
ENDBRANCH  24  25
ENDBRANCH   1  24
BRANCH   8  36
HETATM   36  O7  UNL     1      39.484  52.983  13.741  1.00  0.00    -0.390 OA
ATOM     37  H7  UNL     1      40.124  53.669  13.595  1.00  0.00     0.210 HD
ENDBRANCH   8  36
TORSDOF 14
ENDMDL