MODEL 4
REMARK VINA RESULT: -7.356101546      2.587      7.495
REMARK  13 active torsions:
REMARK  status: ('A' for Active; 'I' for Inactive)
REMARK    1  A    between atoms: O1_2  and  C2_3
REMARK    2  A    between atoms: C3_4  and  O2_5
REMARK    3  A    between atoms: C4_7  and  O3_8
REMARK    4  A    between atoms: C5_10  and  O4_11
REMARK    5  A    between atoms: N1_14  and  C7_15
REMARK    6  A    between atoms: C7_15  and  C8_16
REMARK    7  A    between atoms: C8_16  and  C9_17
REMARK    8  A    between atoms: C9_17  and  N2_18
REMARK    9  A    between atoms: N2_18  and  C10_21
REMARK   10  A    between atoms: C15_27  and  C16_28
REMARK   11  A    between atoms: C16_28  and  N3_29
REMARK   12  A    between atoms: N3_29  and  C17_31
REMARK   13  A    between atoms: C17_31  and  C18_32
ROOT
HETATM    1  N2  UNL     1      40.260  51.877  11.704  1.00  0.00    -0.070 N
ATOM      2  H21 UNL     1      40.216  52.771  12.192  1.00  0.00     0.277 HD
ATOM      3  H22 UNL     1      40.705  51.308  12.424  1.00  0.00     0.277 HD
ENDROOT
BRANCH   1   4
HETATM    4  C9  UNL     1      41.094  51.975  10.564  1.00  0.00     0.234 C
BRANCH   4   5
HETATM    5  C8  UNL     1      40.318  52.321   9.276  1.00  0.00     0.058 C
BRANCH   5   6
HETATM    6  C7  UNL     1      40.886  51.499   8.147  1.00  0.00     0.277 C
BRANCH   6   7
HETATM    7  N1  UNL     1      41.859  52.128   7.332  1.00  0.00     0.122 N
HETATM    8  C2  UNL     1      42.387  51.285   6.282  1.00  0.00     0.390 C
HETATM    9  C3  UNL     1      42.208  51.960   4.953  1.00  0.00     0.208 C
HETATM   10  C4  UNL     1      42.999  53.271   4.982  1.00  0.00     0.181 C
HETATM   11  C5  UNL     1      42.713  54.067   6.244  1.00  0.00     0.177 C
HETATM   12  C6  UNL     1      41.482  53.436   6.857  1.00  0.00     0.310 C
BRANCH   8  13
HETATM   13  O1  UNL     1      41.986  49.980   6.341  1.00  0.00    -0.360 OA
HETATM   14  C1  UNL     1      43.067  49.109   6.413  1.00  0.00     0.204 C
ENDBRANCH   8  13
BRANCH   9  15
HETATM   15  O2  UNL     1      42.791  51.150   3.942  1.00  0.00    -0.388 OA
ATOM     16  H2  UNL     1      43.251  51.708   3.327  1.00  0.00     0.210 HD
ENDBRANCH   9  15
BRANCH  10  17
HETATM   17  O3  UNL     1      42.674  54.053   3.862  1.00  0.00    -0.390 OA
ATOM     18  H3  UNL     1      42.000  53.623   3.349  1.00  0.00     0.210 HD
ENDBRANCH  10  17
BRANCH  11  19
HETATM   19  O4  UNL     1      42.477  55.412   5.941  1.00  0.00    -0.391 OA
ATOM     20  H4  UNL     1      41.552  55.566   5.784  1.00  0.00     0.210 HD
ENDBRANCH  11  19
ENDBRANCH   6   7
ENDBRANCH   5   6
ENDBRANCH   4   5
ENDBRANCH   1   4
BRANCH   1  21
HETATM   21  C10 UNL     1      38.939  51.391  11.425  1.00  0.00     0.197 C
HETATM   22  C11 UNL     1      37.915  52.239  12.110  1.00  0.00     0.036 C
HETATM   23  C12 UNL     1      38.115  52.120  13.600  1.00  0.00     0.028 C
HETATM   24  C13 UNL     1      37.965  50.756  14.161  1.00  0.00     0.167 C
HETATM   25  O5  UNL     1      37.061  50.006  13.501  1.00  0.00    -0.390 OA
HETATM   26  C14 UNL     1      37.376  49.567  12.222  1.00  0.00     0.179 C
HETATM   27  C15 UNL     1      38.696  49.952  11.732  1.00  0.00     0.078 C
BRANCH  27  28
HETATM   28  C16 UNL     1      39.196  49.060  10.613  1.00  0.00     0.069 C
BRANCH  28  29
HETATM   29  N3  UNL     1      40.362  48.333  10.839  1.00  0.00    -0.379 N
ATOM     30  H3  UNL     1      40.480  47.885  11.748  1.00  0.00     0.164 HD
BRANCH  29  31
HETATM   31  C17 UNL     1      41.382  48.180   9.895  1.00  0.00     0.091 C
BRANCH  31  32
HETATM   32  C18 UNL     1      41.411  46.715   9.476  1.00  0.00     0.159 C
HETATM   33  C19 UNL     1      40.648  45.797  10.381  1.00  0.00     0.037 C
HETATM   34  C20 UNL     1      41.013  44.378   9.924  1.00  0.00     0.003 C
HETATM   35  C21 UNL     1      40.235  43.998   8.710  1.00  0.00     0.002 C
HETATM   36  C22 UNL     1      39.144  45.004   8.385  1.00  0.00     0.026 C
HETATM   37  C23 UNL     1      39.662  46.368   8.087  1.00  0.00     0.168 C
HETATM   38  O6  UNL     1      41.030  46.512   8.167  1.00  0.00    -0.381 OA
ENDBRANCH  31  32
ENDBRANCH  29  31
ENDBRANCH  28  29
ENDBRANCH  27  28
ENDBRANCH   1  21
TORSDOF 13
ENDMDL