MODEL 4
REMARK VINA RESULT: -6.862459785      2.376      5.961
REMARK  14 active torsions:
REMARK  status: ('A' for Active; 'I' for Inactive)
REMARK    1  A    between atoms: C2_2  and  C3_3
REMARK    2  A    between atoms: C6_6  and  O1_7
REMARK    3  A    between atoms: C8_11  and  O3_12
REMARK    4  A    between atoms: O3_12  and  C9_13
REMARK    5  A    between atoms: C12_17  and  O5_18
REMARK    6  A    between atoms: C13_20  and  O6_21
REMARK    7  A    between atoms: C14_23  and  O7_24
REMARK    8  A    between atoms: C15_26  and  C16_27
REMARK    9  A    between atoms: C16_27  and  C17_28
REMARK   10  A    between atoms: C18_29  and  C19_30
REMARK   11  A    between atoms: C19_30  and  C20_31
REMARK   12  A    between atoms: C20_31  and  C21_32
REMARK   13  A    between atoms: C21_32  and  C22_33
REMARK   14  A    between atoms: C22_33  and  O8_34
ROOT
HETATM    1  C3  UNL     1      38.805  55.439  10.409  1.00  0.00     0.040 C
HETATM    2  C4  UNL     1      37.664  56.097  11.147  1.00  0.00     0.014 C
HETATM    3  C5  UNL     1      37.839  55.677  12.606  1.00  0.00     0.049 C
HETATM    4  C6  UNL     1      38.993  54.735  12.623  1.00  0.00     0.147 C
HETATM    5  C7  UNL     1      38.815  53.608  13.571  1.00  0.00     0.195 C
HETATM    6  O2  UNL     1      39.408  53.685  14.649  1.00  0.00    -0.292 OA
HETATM    7  C8  UNL     1      37.954  52.437  13.223  1.00  0.00     0.226 C
HETATM    8  C15 UNL     1      37.940  52.175  11.733  1.00  0.00     0.162 C
HETATM    9  O9  UNL     1      37.920  53.337  10.976  1.00  0.00    -0.373 OA
HETATM   10  C23 UNL     1      39.008  54.148  11.214  1.00  0.00     0.171 C
ENDROOT
BRANCH   7  11
HETATM   11  O3  UNL     1      36.643  52.600  13.626  1.00  0.00    -0.343 OA
BRANCH  11  12
HETATM   12  C9  UNL     1      35.787  51.573  13.256  1.00  0.00     0.292 C
HETATM   13  O4  UNL     1      34.719  51.958  12.530  1.00  0.00    -0.351 OA
HETATM   14  C10 UNL     1      33.797  52.648  13.250  1.00  0.00     0.152 C
HETATM   15  C11 UNL     1      34.345  53.981  13.676  1.00  0.00     0.042 C
HETATM   16  C12 UNL     1      33.298  51.896  14.456  1.00  0.00     0.178 C
HETATM   17  C13 UNL     1      33.997  50.567  14.594  1.00  0.00     0.183 C
HETATM   18  C14 UNL     1      35.454  50.624  14.331  1.00  0.00     0.204 C
BRANCH  16  19
HETATM   19  O5  UNL     1      33.490  52.634  15.608  1.00  0.00    -0.390 OA
ATOM     20  H5  UNL     1      34.210  52.281  16.118  1.00  0.00     0.210 HD
ENDBRANCH  16  19
BRANCH  17  21
HETATM   21  O6  UNL     1      33.436  49.642  13.682  1.00  0.00    -0.390 OA
ATOM     22  H6  UNL     1      33.958  48.848  13.675  1.00  0.00     0.210 HD
ENDBRANCH  17  21
BRANCH  18  23
HETATM   23  O7  UNL     1      35.866  49.295  14.062  1.00  0.00    -0.388 OA
ATOM     24  H7  UNL     1      35.813  49.059  13.144  1.00  0.00     0.210 HD
ENDBRANCH  18  23
ENDBRANCH  11  12
ENDBRANCH   7  11
BRANCH   8  25
HETATM   25  C16 UNL     1      39.115  51.284  11.368  1.00  0.00     0.061 C
BRANCH  25  26
HETATM   26  C17 UNL     1      38.642  49.883  11.387  1.00  0.00    -0.028 C
HETATM   27  C18 UNL     1      39.392  48.881  11.033  1.00  0.00    -0.031 C
BRANCH  27  28
HETATM   28  C19 UNL     1      40.775  48.950  10.572  1.00  0.00     0.027 C
BRANCH  28  29
HETATM   29  C20 UNL     1      41.328  47.560  10.272  1.00  0.00     0.006 C
BRANCH  29  30
HETATM   30  C21 UNL     1      40.346  46.731   9.484  1.00  0.00     0.026 C
BRANCH  30  31
HETATM   31  C22 UNL     1      40.486  46.944   8.004  1.00  0.00     0.164 C
BRANCH  31  32
HETATM   32  O8  UNL     1      41.837  47.174   7.724  1.00  0.00    -0.401 OA
ATOM     33  H8  UNL     1      42.108  47.955   8.192  1.00  0.00     0.209 HD
ENDBRANCH  31  32
ENDBRANCH  30  31
ENDBRANCH  29  30
ENDBRANCH  28  29
ENDBRANCH  27  28
ENDBRANCH  25  26
ENDBRANCH   8  25
BRANCH   4  34
HETATM   34  O1  UNL     1      40.224  55.376  12.795  1.00  0.00    -0.379 OA
ATOM     35  H1  UNL     1      40.576  55.278  13.672  1.00  0.00     0.211 HD
ENDBRANCH   4  34
BRANCH   1  36
HETATM   36  C2  UNL     1      38.562  55.198   8.985  1.00  0.00    -0.030 C
HETATM   37  C1  UNL     1      37.601  55.747   8.271  1.00  0.00     0.007 C
ENDBRANCH   1  36
TORSDOF 14
ENDMDL