MODEL 2
REMARK VINA RESULT: -7.437481787      1.024      1.551
REMARK  16 active torsions:
REMARK  status: ('A' for Active; 'I' for Inactive)
REMARK    1  A    between atoms: C2_2  and  C3_3
REMARK    2  A    between atoms: C3_3  and  C4_4
REMARK    3  A    between atoms: C4_4  and  C5_5
REMARK    4  A    between atoms: C5_5  and  C6_6
REMARK    5  A    between atoms: C6_6  and  C7_7
REMARK    6  A    between atoms: C8_9  and  O2_10
REMARK    7  A    between atoms: O2_10  and  C9_11
REMARK    8  A    between atoms: C9_11  and  C10_12
REMARK    9  A    between atoms: C10_12  and  C11_13
REMARK   10  A    between atoms: C11_13  and  O3_14
REMARK   11  A    between atoms: O3_14  and  C12_15
REMARK   12  A    between atoms: C17_21  and  O5_22
REMARK   13  A    between atoms: C18_24  and  O6_25
REMARK   14  A    between atoms: C19_27  and  O7_28
REMARK   15  A    between atoms: C22_32  and  O8_33
REMARK   16  A    between atoms: C23_35  and  O9_36
ROOT
HETATM    1  C10 UNL     1      38.678  51.569  11.985  1.00  0.00     0.007 C
HETATM    2  C14 UNL     1      37.302  52.250  11.720  1.00  0.00     0.014 C
HETATM    3  C15 UNL     1      36.996  52.929  13.021  1.00  0.00     0.009 C
HETATM    4  C16 UNL     1      37.895  52.361  14.065  1.00  0.00     0.022 C
HETATM    5  C17 UNL     1      37.111  51.990  15.308  1.00  0.00     0.153 C
HETATM    6  C18 UNL     1      37.683  50.698  15.842  1.00  0.00     0.175 C
HETATM    7  C19 UNL     1      37.218  49.599  14.918  1.00  0.00     0.149 C
HETATM    8  C20 UNL     1      37.423  50.060  13.475  1.00  0.00     0.040 C
HETATM    9  C21 UNL     1      38.493  51.130  13.377  1.00  0.00     0.007 C
ENDROOT
BRANCH   1  10
HETATM   10  C9  UNL     1      38.910  50.528  10.936  1.00  0.00     0.183 C
BRANCH  10  11
HETATM   11  O2  UNL     1      39.909  50.759  10.119  1.00  0.00    -0.358 OA
BRANCH  11  12
HETATM   12  C8  UNL     1      40.140  50.464   8.877  1.00  0.00     0.291 C
HETATM   13  O1  UNL     1      40.287  49.140   8.520  1.00  0.00    -0.351 OA
HETATM   14  C7  UNL     1      41.571  48.813   8.857  1.00  0.00     0.156 C
HETATM   15  C23 UNL     1      42.413  50.069   8.800  1.00  0.00     0.180 C
HETATM   16  C22 UNL     1      41.416  51.086   8.282  1.00  0.00     0.204 C
BRANCH  14  17
HETATM   17  C6  UNL     1      41.739  48.147  10.203  1.00  0.00     0.035 C
BRANCH  17  18
HETATM   18  C5  UNL     1      40.695  47.099  10.405  1.00  0.00     0.003 C
BRANCH  18  19
HETATM   19  C4  UNL     1      41.330  45.737  10.617  1.00  0.00     0.004 C
BRANCH  19  20
HETATM   20  C3  UNL     1      40.723  44.669   9.733  1.00  0.00     0.026 C
BRANCH  20  21
HETATM   21  C2  UNL     1      39.833  45.302   8.725  1.00  0.00    -0.037 C
HETATM   22  C1  UNL     1      39.067  44.533   7.970  1.00  0.00     0.007 C
ENDBRANCH  20  21
ENDBRANCH  19  20
ENDBRANCH  18  19
ENDBRANCH  17  18
ENDBRANCH  14  17
BRANCH  15  23
HETATM   23  O9  UNL     1      42.880  50.388  10.072  1.00  0.00    -0.390 OA
ATOM     24  H9  UNL     1      42.963  49.599  10.595  1.00  0.00     0.210 HD
ENDBRANCH  15  23
BRANCH  16  25
HETATM   25  O8  UNL     1      41.406  51.033   6.911  1.00  0.00    -0.388 OA
ATOM     26  H8  UNL     1      41.238  51.888   6.533  1.00  0.00     0.210 HD
ENDBRANCH  16  25
ENDBRANCH  11  12
ENDBRANCH  10  11
ENDBRANCH   1  10
BRANCH   1  27
HETATM   27  C11 UNL     1      39.695  52.688  11.817  1.00  0.00     0.191 C
BRANCH  27  28
HETATM   28  O3  UNL     1      39.231  53.622  10.854  1.00  0.00    -0.321 OA
BRANCH  28  29
HETATM   29  C12 UNL     1      40.106  54.147   9.919  1.00  0.00     0.254 C
HETATM   30  C13 UNL     1      39.705  54.640   8.579  1.00  0.00     0.126 C
HETATM   31  O4  UNL     1      41.346  54.216  10.222  1.00  0.00    -0.266 OA
ENDBRANCH  28  29
ENDBRANCH  27  28
ENDBRANCH   1  27
BRANCH   5  32
HETATM   32  O5  UNL     1      35.764  51.766  15.051  1.00  0.00    -0.393 OA
ATOM     33  H5  UNL     1      35.620  51.140  14.350  1.00  0.00     0.210 HD
ENDBRANCH   5  32
BRANCH   7  34
HETATM   34  O7  UNL     1      37.811  48.380  15.168  1.00  0.00    -0.393 OA
ATOM     35  H7  UNL     1      37.195  47.657  15.203  1.00  0.00     0.210 HD
ENDBRANCH   7  34
BRANCH   6  36
HETATM   36  O6  UNL     1      37.108  50.447  17.103  1.00  0.00    -0.390 OA
ATOM     37  H6  UNL     1      37.354  49.571  17.374  1.00  0.00     0.210 HD
ENDBRANCH   6  36
TORSDOF 16
ENDMDL