MODEL 4
REMARK VINA RESULT: -6.991524426      1.604      2.392
REMARK  14 active torsions:
REMARK  status: ('A' for Active; 'I' for Inactive)
REMARK    1  A    between atoms: C4_5  and  C5_6
REMARK    2  A    between atoms: C5_6  and  O2_7
REMARK    3  A    between atoms: C7_10  and  C8_11
REMARK    4  A    between atoms: C8_11  and  C9_12
REMARK    5  A    between atoms: C9_12  and  C10_13
REMARK    6  A    between atoms: C10_13  and  O3_14
REMARK    7  A    between atoms: O3_14  and  C11_15
REMARK    8  A    between atoms: C12_17  and  C13_18
REMARK    9  A    between atoms: C13_18  and  O5_19
REMARK   10  A    between atoms: C14_21  and  O6_22
REMARK   11  A    between atoms: O6_22  and  C15_23
REMARK   12  A    between atoms: C21_29  and  O7_30
REMARK   13  A    between atoms: C22_32  and  O8_33
REMARK   14  A    between atoms: C23_35  and  O9_36
ROOT
HETATM    1  C11 UNL     1      36.395  50.979  12.917  1.00  0.00     0.291 C
HETATM    2  O4  UNL     1      36.106  52.303  12.878  1.00  0.00    -0.348 OA
HETATM    3  C12 UNL     1      34.783  52.637  12.630  1.00  0.00     0.179 C
HETATM    4  C14 UNL     1      33.978  52.088  13.784  1.00  0.00     0.184 C
HETATM    5  C21 UNL     1      33.990  50.585  13.542  1.00  0.00     0.183 C
HETATM    6  C22 UNL     1      35.388  50.097  13.580  1.00  0.00     0.204 C
ENDROOT
BRANCH   1   7
HETATM    7  O3  UNL     1      37.597  50.828  13.625  1.00  0.00    -0.359 OA
BRANCH   7   8
HETATM    8  C10 UNL     1      38.367  49.783  13.113  1.00  0.00     0.171 C
BRANCH   8   9
HETATM    9  C9  UNL     1      38.452  49.998  11.616  1.00  0.00     0.027 C
BRANCH   9  10
HETATM   10  C8  UNL     1      39.813  50.435  11.173  1.00  0.00     0.009 C
BRANCH  10  11
HETATM   11  C7  UNL     1      40.585  49.289  10.544  1.00  0.00     0.016 C
HETATM   12  C6  UNL     1      39.573  48.325   9.987  1.00  0.00     0.021 C
HETATM   13  C4  UNL     1      40.153  47.299   9.070  1.00  0.00     0.080 C
HETATM   14  C3  UNL     1      41.128  47.922   8.120  1.00  0.00     0.139 C
HETATM   15  C2  UNL     1      41.137  49.427   8.097  1.00  0.00     0.081 C
HETATM   16  O1  UNL     1      41.841  47.240   7.438  1.00  0.00    -0.297 OA
HETATM   17  C1  UNL     1      42.215  49.920   7.157  1.00  0.00     0.020 C
HETATM   18  C23 UNL     1      41.471  49.888   9.479  1.00  0.00     0.133 C
BRANCH  13  19
HETATM   19  C5  UNL     1      39.004  46.780   8.196  1.00  0.00     0.176 C
BRANCH  19  20
HETATM   20  O2  UNL     1      39.346  45.569   7.638  1.00  0.00    -0.400 OA
ATOM     21  H2  UNL     1      39.065  45.538   6.731  1.00  0.00     0.209 HD
ENDBRANCH  19  20
ENDBRANCH  13  19
BRANCH  18  22
HETATM   22  O9  UNL     1      42.805  49.543   9.728  1.00  0.00    -0.394 OA
ATOM     23  H9  UNL     1      42.919  49.500  10.671  1.00  0.00     0.210 HD
ENDBRANCH  18  22
ENDBRANCH  10  11
ENDBRANCH   9  10
ENDBRANCH   8   9
ENDBRANCH   7   8
ENDBRANCH   1   7
BRANCH   6  24
HETATM   24  O8  UNL     1      35.713  49.797  14.909  1.00  0.00    -0.388 OA
ATOM     25  H8  UNL     1      35.065  49.248  15.335  1.00  0.00     0.210 HD
ENDBRANCH   6  24
BRANCH   3  26
HETATM   26  C13 UNL     1      34.685  54.119  12.526  1.00  0.00     0.198 C
BRANCH  26  27
HETATM   27  O5  UNL     1      33.615  54.478  11.740  1.00  0.00    -0.398 OA
ATOM     28  H5  UNL     1      32.797  54.312  12.194  1.00  0.00     0.209 HD
ENDBRANCH  26  27
ENDBRANCH   3  26
BRANCH   5  29
HETATM   29  O7  UNL     1      33.192  49.874  14.398  1.00  0.00    -0.390 OA
ATOM     30  H7  UNL     1      32.688  49.187  13.979  1.00  0.00     0.210 HD
ENDBRANCH   5  29
BRANCH   4  31
HETATM   31  O6  UNL     1      32.712  52.586  13.908  1.00  0.00    -0.375 OA
BRANCH  31  32
HETATM   32  C15 UNL     1      32.440  53.272  15.066  1.00  0.00     0.122 C
HETATM   33  C16 UNL     1      33.467  52.774  16.102  1.00  0.00     0.032 C
HETATM   34  C17 UNL     1      32.891  52.881  17.500  1.00  0.00     0.002 C
HETATM   35  C18 UNL     1      31.818  51.815  17.618  1.00  0.00     0.000 C
HETATM   36  C19 UNL     1      30.952  51.768  16.381  1.00  0.00     0.002 C
HETATM   37  C20 UNL     1      31.051  53.082  15.610  1.00  0.00     0.032 C
ENDBRANCH  31  32
ENDBRANCH   4  31
TORSDOF 14
ENDMDL