MODEL 2
REMARK VINA RESULT: -8.096957170      2.355      4.311
REMARK  14 active torsions:
REMARK  status: ('A' for Active; 'I' for Inactive)
REMARK    1  A    between atoms: C2_2  and  C3_3
REMARK    2  A    between atoms: C3_3  and  C4_4
REMARK    3  A    between atoms: C5_5  and  C6_6
REMARK    4  A    between atoms: C7_7  and  C8_8
REMARK    5  A    between atoms: C9_9  and  C10_10
REMARK    6  A    between atoms: C10_10  and  C11_11
REMARK    7  A    between atoms: C13_14  and  O2_15
REMARK    8  A    between atoms: O2_15  and  C14_16
REMARK    9  A    between atoms: C15_18  and  C16_19
REMARK   10  A    between atoms: C16_19  and  O4_20
REMARK   11  A    between atoms: C17_22  and  O5_23
REMARK   12  A    between atoms: C18_25  and  O6_26
REMARK   13  A    between atoms: C20_29  and  O7_30
REMARK   14  A    between atoms: C21_32  and  O8_33
ROOT
HETATM    1  C11 UNL     1      40.991  47.515   8.042  1.00  0.00     0.195 C
HETATM    2  O1  UNL     1      40.932  48.741   7.333  1.00  0.00    -0.369 OA
HETATM    3  C12 UNL     1      41.610  49.648   8.090  1.00  0.00     0.165 C
HETATM    4  C13 UNL     1      41.395  51.074   7.797  1.00  0.00     0.157 C
HETATM    5  C19 UNL     1      40.736  51.806   8.975  1.00  0.00     0.069 C
HETATM    6  C20 UNL     1      41.514  51.592  10.254  1.00  0.00     0.150 C
HETATM    7  C21 UNL     1      41.851  50.106  10.456  1.00  0.00     0.161 C
HETATM    8  C22 UNL     1      41.020  49.353   9.483  1.00  0.00     0.121 C
HETATM    9  C23 UNL     1      41.239  47.891   9.453  1.00  0.00     0.165 C
HETATM   10  O9  UNL     1      41.546  47.199  10.380  1.00  0.00    -0.295 OA
ENDROOT
BRANCH   4  11
HETATM   11  O2  UNL     1      40.675  51.345   6.662  1.00  0.00    -0.351 OA
BRANCH  11  12
HETATM   12  C14 UNL     1      41.331  52.330   5.930  1.00  0.00     0.292 C
HETATM   13  O3  UNL     1      40.495  52.984   5.031  1.00  0.00    -0.348 OA
HETATM   14  C15 UNL     1      41.325  53.616   4.137  1.00  0.00     0.179 C
HETATM   15  C17 UNL     1      42.482  52.670   3.921  1.00  0.00     0.182 C
HETATM   16  C18 UNL     1      42.453  51.736   5.104  1.00  0.00     0.204 C
BRANCH  14  17
HETATM   17  C16 UNL     1      40.535  53.769   2.831  1.00  0.00     0.198 C
BRANCH  17  18
HETATM   18  O4  UNL     1      39.510  52.833   2.817  1.00  0.00    -0.398 OA
ATOM     19  H4  UNL     1      39.453  52.455   1.947  1.00  0.00     0.209 HD
ENDBRANCH  17  18
ENDBRANCH  14  17
BRANCH  15  20
HETATM   20  O5  UNL     1      42.209  51.929   2.772  1.00  0.00    -0.390 OA
ATOM     21  H5  UNL     1      41.660  51.198   3.027  1.00  0.00     0.210 HD
ENDBRANCH  15  20
BRANCH  16  22
HETATM   22  O6  UNL     1      42.179  50.425   4.740  1.00  0.00    -0.388 OA
ATOM     23  H6  UNL     1      41.853  50.372   3.849  1.00  0.00     0.210 HD
ENDBRANCH  16  22
ENDBRANCH  11  12
ENDBRANCH   4  11
BRANCH   6  24
HETATM   24  O7  UNL     1      40.652  51.936  11.312  1.00  0.00    -0.393 OA
ATOM     25  H7  UNL     1      40.639  51.193  11.904  1.00  0.00     0.210 HD
ENDBRANCH   6  24
BRANCH   1  26
HETATM   26  C10 UNL     1      39.631  46.856   7.966  1.00  0.00     0.067 C
BRANCH  26  27
HETATM   27  C9  UNL     1      39.564  45.797   9.002  1.00  0.00    -0.024 C
HETATM   28  C8  UNL     1      40.061  44.564   8.760  1.00  0.00    -0.004 C
BRANCH  28  29
HETATM   29  C7  UNL     1      39.993  43.549   9.763  1.00  0.00    -0.000 C
HETATM   30  C6  UNL     1      39.750  42.282   9.474  1.00  0.00    -0.000 C
BRANCH  30  31
HETATM   31  C5  UNL     1      39.528  41.768   8.150  1.00  0.00    -0.004 C
HETATM   32  C4  UNL     1      39.474  40.505   7.857  1.00  0.00    -0.027 C
BRANCH  32  33
HETATM   33  C3  UNL     1      39.634  39.419   8.833  1.00  0.00     0.027 C
BRANCH  33  34
HETATM   34  C2  UNL     1      40.032  38.183   8.031  1.00  0.00    -0.001 C
HETATM   35  C1  UNL     1      39.264  36.962   8.436  1.00  0.00     0.005 C
ENDBRANCH  33  34
ENDBRANCH  32  33
ENDBRANCH  30  31
ENDBRANCH  28  29
ENDBRANCH  26  27
ENDBRANCH   1  26
BRANCH   7  36
HETATM   36  O8  UNL     1      43.194  49.984  10.057  1.00  0.00    -0.392 OA
ATOM     37  H8  UNL     1      43.569  49.347  10.654  1.00  0.00     0.210 HD
ENDBRANCH   7  36
TORSDOF 14
ENDMDL