MODEL 3
REMARK VINA RESULT: -7.537464141      7.405     11.400
REMARK  14 active torsions:
REMARK  status: ('A' for Active; 'I' for Inactive)
REMARK    1  A    between atoms: O1_2  and  C2_3
REMARK    2  A    between atoms: C2_3  and  C3_4
REMARK    3  A    between atoms: C5_7  and  C6_8
REMARK    4  A    between atoms: C7_9  and  C8_10
REMARK    5  A    between atoms: C9_11  and  C10_12
REMARK    6  A    between atoms: C11_13  and  C12_14
REMARK    7  A    between atoms: C13_15  and  C14_16
REMARK    8  A    between atoms: C15_17  and  C16_18
REMARK    9  A    between atoms: C17_20  and  O4_21
REMARK   10  A    between atoms: C18_23  and  O5_24
REMARK   11  A    between atoms: C19_26  and  O6_27
REMARK   12  A    between atoms: C20_29  and  O7_30
REMARK   13  A    between atoms: C21_32  and  O8_33
REMARK   14  A    between atoms: C22_35  and  O9_36
ROOT
HETATM    1  C10 UNL     1      38.054  49.626  11.667  1.00  0.00     0.000 C
HETATM    2  C11 UNL     1      38.926  49.213  10.778  1.00  0.00     0.000 C
ENDROOT
BRANCH   2   3
HETATM    3  C12 UNL     1      40.317  49.057  11.092  1.00  0.00     0.000 C
HETATM    4  C13 UNL     1      41.169  48.439  10.320  1.00  0.00    -0.000 C
BRANCH   4   5
HETATM    5  C14 UNL     1      40.760  47.851   9.058  1.00  0.00    -0.001 C
HETATM    6  C15 UNL     1      40.961  48.465   7.913  1.00  0.00     0.008 C
BRANCH   6   7
HETATM    7  C16 UNL     1      41.614  49.781   7.868  1.00  0.00     0.179 C
HETATM    8  O3  UNL     1      40.737  50.752   7.359  1.00  0.00    -0.347 OA
HETATM    9  C17 UNL     1      41.349  51.992   7.295  1.00  0.00     0.289 C
HETATM   10  C18 UNL     1      42.273  51.973   6.103  1.00  0.00     0.204 C
HETATM   11  C19 UNL     1      42.907  50.628   5.886  1.00  0.00     0.183 C
HETATM   12  C20 UNL     1      42.917  49.767   7.121  1.00  0.00     0.182 C
BRANCH   9  13
HETATM   13  O4  UNL     1      40.469  53.040   7.215  1.00  0.00    -0.368 OA
ATOM     14  H4  UNL     1      40.889  53.890   7.160  1.00  0.00     0.212 HD
ENDBRANCH   9  13
BRANCH  10  15
HETATM   15  O5  UNL     1      41.466  52.231   4.973  1.00  0.00    -0.388 OA
ATOM     16  H5  UNL     1      41.955  51.922   4.220  1.00  0.00     0.210 HD
ENDBRANCH  10  15
BRANCH  11  17
HETATM   17  O6  UNL     1      42.383  49.947   4.788  1.00  0.00    -0.390 OA
ATOM     18  H6  UNL     1      43.047  49.501   4.275  1.00  0.00     0.210 HD
ENDBRANCH  11  17
BRANCH  12  19
HETATM   19  O7  UNL     1      43.219  48.467   6.687  1.00  0.00    -0.390 OA
ATOM     20  H7  UNL     1      43.421  48.467   5.759  1.00  0.00     0.210 HD
ENDBRANCH  12  19
ENDBRANCH   6   7
ENDBRANCH   4   5
ENDBRANCH   2   3
BRANCH   1  21
HETATM   21  C9  UNL     1      38.381  49.960  13.020  1.00  0.00     0.000 C
HETATM   22  C8  UNL     1      37.483  49.968  13.997  1.00  0.00    -0.000 C
BRANCH  22  23
HETATM   23  C7  UNL     1      36.112  49.645  13.798  1.00  0.00    -0.003 C
HETATM   24  C6  UNL     1      35.150  50.533  13.765  1.00  0.00    -0.017 C
BRANCH  24  25
HETATM   25  C5  UNL     1      35.371  51.982  13.933  1.00  0.00     0.063 C
HETATM   26  C4  UNL     1      34.229  52.502  14.793  1.00  0.00     0.179 C
HETATM   27  O2  UNL     1      33.144  52.714  13.979  1.00  0.00    -0.380 OA
HETATM   28  C3  UNL     1      33.324  53.889  13.306  1.00  0.00     0.176 C
HETATM   29  C22 UNL     1      34.618  53.929  12.518  1.00  0.00     0.181 C
HETATM   30  C21 UNL     1      35.333  52.598  12.549  1.00  0.00     0.159 C
BRANCH  28  31
HETATM   31  C2  UNL     1      32.132  54.202  12.447  1.00  0.00     0.201 C
BRANCH  31  32
HETATM   32  O1  UNL     1      31.699  55.483  12.417  1.00  0.00    -0.393 OA
HETATM   33  C1  UNL     1      31.864  56.256  13.518  1.00  0.00     0.201 C
ENDBRANCH  31  32
ENDBRANCH  28  31
BRANCH  29  34
HETATM   34  O9  UNL     1      34.275  54.177  11.185  1.00  0.00    -0.385 OA
HETATM   35  C23 UNL     1      35.023  55.227  10.652  1.00  0.00     0.202 C
ENDBRANCH  29  34
BRANCH  30  36
HETATM   36  O8  UNL     1      36.656  52.833  12.160  1.00  0.00    -0.392 OA
ATOM     37  H8  UNL     1      37.038  51.993  11.933  1.00  0.00     0.210 HD
ENDBRANCH  30  36
ENDBRANCH  24  25
ENDBRANCH  22  23
ENDBRANCH   1  21
TORSDOF 14
ENDMDL