MODEL 4
REMARK VINA RESULT: -8.179276350      1.316      2.666
REMARK  16 active torsions:
REMARK  status: ('A' for Active; 'I' for Inactive)
REMARK    1  A    between atoms: C2_2  and  C3_3
REMARK    2  A    between atoms: C3_3  and  C4_4
REMARK    3  A    between atoms: C4_4  and  C5_5
REMARK    4  A    between atoms: C5_5  and  C6_6
REMARK    5  A    between atoms: C6_6  and  C7_7
REMARK    6  A    between atoms: C8_9  and  C9_10
REMARK    7  A    between atoms: C10_11  and  C11_12
REMARK    8  A    between atoms: C11_12  and  O2_13
REMARK    9  A    between atoms: O2_13  and  C12_14
REMARK   10  A    between atoms: C13_16  and  C14_17
REMARK   11  A    between atoms: C14_17  and  O4_18
REMARK   12  A    between atoms: C15_20  and  O5_21
REMARK   13  A    between atoms: C16_23  and  O6_24
REMARK   14  A    between atoms: C17_26  and  N1_27
REMARK   15  A    between atoms: C22_32  and  O7_33
REMARK   16  A    between atoms: C23_35  and  O8_36
ROOT
HETATM    1  O2  UNL     1      38.737  51.721  12.820  1.00  0.00    -0.347 OA
ENDROOT
BRANCH   1   2
HETATM    2  C11 UNL     1      39.319  52.012  11.594  1.00  0.00     0.264 C
BRANCH   2   3
HETATM    3  C10 UNL     1      39.952  50.892  10.942  1.00  0.00    -0.078 C
HETATM    4  C9  UNL     1      40.490  49.980  10.399  1.00  0.00    -0.070 C
BRANCH   4   5
HETATM    5  C8  UNL     1      41.173  48.873   9.722  1.00  0.00     0.232 C
HETATM    6  O1  UNL     1      41.314  47.772  10.518  1.00  0.00    -0.363 OA
HETATM    7  C7  UNL     1      40.630  46.698   9.944  1.00  0.00     0.154 C
HETATM    8  C23 UNL     1      40.681  46.958   8.473  1.00  0.00     0.179 C
HETATM    9  C22 UNL     1      40.524  48.484   8.438  1.00  0.00     0.190 C
BRANCH   7  10
HETATM   10  C6  UNL     1      41.310  45.446  10.362  1.00  0.00     0.035 C
BRANCH  10  11
HETATM   11  C5  UNL     1      41.086  44.260   9.419  1.00  0.00     0.002 C
BRANCH  11  12
HETATM   12  C4  UNL     1      39.991  43.378   9.904  1.00  0.00     0.000 C
BRANCH  12  13
HETATM   13  C3  UNL     1      39.542  42.361   8.930  1.00  0.00    -0.000 C
BRANCH  13  14
HETATM   14  C2  UNL     1      39.176  41.010   9.409  1.00  0.00    -0.005 C
HETATM   15  C1  UNL     1      39.445  39.862   8.513  1.00  0.00     0.005 C
ENDBRANCH  13  14
ENDBRANCH  12  13
ENDBRANCH  11  12
ENDBRANCH  10  11
ENDBRANCH   7  10
BRANCH   8  16
HETATM   16  O8  UNL     1      39.635  46.438   7.753  1.00  0.00    -0.390 OA
ATOM     17  H8  UNL     1      39.554  46.765   6.865  1.00  0.00     0.210 HD
ENDBRANCH   8  16
BRANCH   9  18
HETATM   18  O7  UNL     1      41.180  48.982   7.316  1.00  0.00    -0.389 OA
ATOM     19  H7  UNL     1      40.666  48.917   6.520  1.00  0.00     0.210 HD
ENDBRANCH   9  18
ENDBRANCH   4   5
ENDBRANCH   2   3
ENDBRANCH   1   2
BRANCH   1  20
HETATM   20  C12 UNL     1      37.376  51.725  12.693  1.00  0.00     0.297 C
HETATM   21  O3  UNL     1      36.946  50.438  12.516  1.00  0.00    -0.349 OA
HETATM   22  C13 UNL     1      36.355  49.798  13.557  1.00  0.00     0.179 C
HETATM   23  C15 UNL     1      35.392  50.590  14.377  1.00  0.00     0.180 C
HETATM   24  C16 UNL     1      35.215  51.987  13.763  1.00  0.00     0.187 C
HETATM   25  C17 UNL     1      36.651  52.535  13.716  1.00  0.00     0.308 C
BRANCH  22  26
HETATM   26  C14 UNL     1      37.359  49.021  14.416  1.00  0.00     0.198 C
BRANCH  26  27
HETATM   27  O4  UNL     1      36.889  48.900  15.722  1.00  0.00    -0.398 OA
ATOM     28  H4  UNL     1      37.300  48.161  16.154  1.00  0.00     0.209 HD
ENDBRANCH  26  27
ENDBRANCH  22  26
BRANCH  23  29
HETATM   29  O5  UNL     1      34.105  50.040  14.415  1.00  0.00    -0.390 OA
ATOM     30  H5  UNL     1      33.639  50.104  13.589  1.00  0.00     0.210 HD
ENDBRANCH  23  29
BRANCH  24  31
HETATM   31  O6  UNL     1      34.738  51.881  12.460  1.00  0.00    -0.391 OA
ATOM     32  H6  UNL     1      33.987  52.451  12.339  1.00  0.00     0.210 HD
ENDBRANCH  24  31
BRANCH  25  33
HETATM   33  N1  UNL     1      37.139  52.489  15.044  1.00  0.00     0.100 N
HETATM   34  C18 UNL     1      36.249  53.279  15.874  1.00  0.00     0.273 C
HETATM   35  C19 UNL     1      37.019  53.739  17.066  1.00  0.00     0.032 C
HETATM   36  C20 UNL     1      38.462  53.478  16.738  1.00  0.00     0.032 C
HETATM   37  C21 UNL     1      38.451  52.990  15.281  1.00  0.00     0.273 C
ENDBRANCH  25  33
ENDBRANCH   1  20
TORSDOF 16
ENDMDL