MODEL 2
REMARK VINA RESULT: -5.641007301      2.309      4.793
REMARK  13 active torsions:
REMARK  status: ('A' for Active; 'I' for Inactive)
REMARK    1  A    between atoms: C3_3  and  O1_5
REMARK    2  A    between atoms: C3_3  and  C5_7
REMARK    3  A    between atoms: C6_8  and  O2_9
REMARK    4  A    between atoms: C8_12  and  C10_14
REMARK    5  A    between atoms: C12_16  and  C13_17
REMARK    6  A    between atoms: C15_19  and  O3_20
REMARK    7  A    between atoms: O3_20  and  C16_21
REMARK    8  A    between atoms: C19_25  and  O5_26
REMARK    9  A    between atoms: C20_28  and  N1_29
REMARK   10  A    between atoms: N1_29  and  O6_30
REMARK   11  A    between atoms: O6_30  and  C21_31
REMARK   12  A    between atoms: C21_31  and  C24_34
REMARK   13  A    between atoms: C24_34  and  O7_35
ROOT
HETATM    1  C1  UNL     1      38.494  50.389  11.358  1.00  0.00     0.015 C
HETATM    2  C2  UNL     1      37.821  50.140  12.328  1.00  0.00    -0.079 C
HETATM    3  C3  UNL     1      37.004  49.851  13.536  1.00  0.00     0.125 C
HETATM    4  C4  UNL     1      37.946  49.767  14.684  1.00  0.00     0.061 C
ENDROOT
BRANCH   3   5
HETATM    5  O1  UNL     1      36.391  48.610  13.239  1.00  0.00    -0.377 OA
ATOM      6  H1  UNL     1      35.774  48.486  13.952  1.00  0.00     0.211 HD
ENDBRANCH   3   5
BRANCH   3   7
HETATM    7  C5  UNL     1      35.981  50.931  13.623  1.00  0.00     0.090 C
HETATM    8  C6  UNL     1      34.995  50.562  14.698  1.00  0.00     0.129 C
HETATM    9  C7  UNL     1      34.600  51.705  15.572  1.00  0.00     0.046 C
HETATM   10  C8  UNL     1      34.303  52.967  14.802  1.00  0.00    -0.015 C
HETATM   11  C9  UNL     1      34.281  54.100  15.836  1.00  0.00     0.020 C
HETATM   12  C12 UNL     1      35.309  53.275  13.748  1.00  0.00     0.049 C
HETATM   13  C15 UNL     1      36.505  52.311  13.769  1.00  0.00     0.143 C
BRANCH   8  14
HETATM   14  O2  UNL     1      33.830  49.974  14.165  1.00  0.00    -0.395 OA
ATOM     15  H2  UNL     1      33.928  49.037  14.047  1.00  0.00     0.210 HD
ENDBRANCH   8  14
BRANCH  10  16
HETATM   16  C10 UNL     1      32.920  52.854  14.270  1.00  0.00    -0.027 C
HETATM   17  C11 UNL     1      31.847  52.843  15.048  1.00  0.00     0.007 C
ENDBRANCH  10  16
BRANCH  12  18
HETATM   18  C13 UNL     1      34.652  53.300  12.420  1.00  0.00    -0.029 C
HETATM   19  C14 UNL     1      35.017  54.192  11.518  1.00  0.00     0.007 C
ENDBRANCH  12  18
BRANCH  13  20
HETATM   20  O3  UNL     1      37.204  52.580  14.919  1.00  0.00    -0.353 OA
BRANCH  20  21
HETATM   21  C16 UNL     1      38.171  53.573  14.776  1.00  0.00     0.284 C
HETATM   22  O4  UNL     1      37.791  54.720  15.423  1.00  0.00    -0.352 OA
HETATM   23  C17 UNL     1      38.520  55.776  14.948  1.00  0.00     0.151 C
HETATM   24  C18 UNL     1      39.890  55.898  15.600  1.00  0.00     0.042 C
HETATM   25  C19 UNL     1      38.625  55.480  13.470  1.00  0.00     0.173 C
HETATM   26  C20 UNL     1      38.333  53.999  13.339  1.00  0.00     0.192 C
BRANCH  25  27
HETATM   27  O5  UNL     1      37.735  56.248  12.718  1.00  0.00    -0.391 OA
ATOM     28  H5  UNL     1      37.012  55.731  12.385  1.00  0.00     0.210 HD
ENDBRANCH  25  27
BRANCH  26  29
HETATM   29  N1  UNL     1      39.538  53.404  12.738  1.00  0.00    -0.087 NA
BRANCH  29  30
HETATM   30  O6  UNL     1      40.116  54.364  12.018  1.00  0.00    -0.273 OA
BRANCH  30  31
HETATM   31  C21 UNL     1      40.259  54.094  10.682  1.00  0.00     0.098 C
HETATM   32  C22 UNL     1      38.966  54.056   9.926  1.00  0.00     0.050 C
HETATM   33  C23 UNL     1      41.245  55.028   9.997  1.00  0.00     0.050 C
BRANCH  31  34
HETATM   34  C24 UNL     1      40.876  52.693  10.572  1.00  0.00     0.203 C
BRANCH  34  35
HETATM   35  O7  UNL     1      41.900  52.513  11.489  1.00  0.00    -0.398 OA
ATOM     36  H7  UNL     1      42.510  53.243  11.480  1.00  0.00     0.209 HD
ENDBRANCH  34  35
ENDBRANCH  31  34
ENDBRANCH  30  31
ENDBRANCH  29  30
ENDBRANCH  26  29
ENDBRANCH  20  21
ENDBRANCH  13  20
ENDBRANCH   3   7
TORSDOF 13
ENDMDL