MODEL 3
REMARK VINA RESULT: -7.400674500      5.660      7.986
REMARK  8 active torsions:
REMARK  status: ('A' for Active; 'I' for Inactive)
REMARK    1  A    between atoms: C3_3  and  N1_4
REMARK    2  A    between atoms: N1_4  and  C4_5
REMARK    3  A    between atoms: N1_4  and  C7_8
REMARK    4  A    between atoms: C4_5  and  C5_6
REMARK    5  A    between atoms: C7_8  and  C8_9
REMARK    6  A    between atoms: C7_8  and  C18_22
REMARK    7  A    between atoms: C8_9  and  N2_10
REMARK       I    between atoms: N2_10  and  C9_12
REMARK    8  A    between atoms: C9_12  and  C10_14
ROOT
HETATM    1  C1  UNL     1     -12.952   9.708  -4.724  1.00  0.00     0.013 C
HETATM    2  C2  UNL     1     -13.027   9.996  -5.898  1.00  0.00    -0.103 C
HETATM    3  C3  UNL     1     -13.092  10.344  -7.349  1.00  0.00     0.189 C
ENDROOT
BRANCH   3   4
HETATM    4  N1  UNL     1     -11.905   9.720  -7.917  1.00  0.00    -0.265 NA
BRANCH   4   5
HETATM    5  C4  UNL     1     -12.246   8.549  -8.632  1.00  0.00     0.061 C
BRANCH   5   6
HETATM    6  C5  UNL     1     -13.561   8.392  -9.216  1.00  0.00     0.001 C
HETATM    7  C6  UNL     1     -13.990   8.313 -10.421  1.00  0.00     0.012 C
ENDBRANCH   5   6
ENDBRANCH   4   5
BRANCH   4   8
HETATM    8  C7  UNL     1     -11.026  10.614  -8.613  1.00  0.00     0.169 C
BRANCH   8   9
HETATM    9  C8  UNL     1     -11.759  11.685  -9.346  1.00  0.00     0.092 C
BRANCH   9  10
HETATM   10  N2  UNL     1     -11.149  12.677 -10.100  1.00  0.00    -0.335 N
HETATM   11  C9  UNL     1     -11.180  14.067 -10.040  1.00  0.00     0.255 C
HETATM   12  O1  UNL     1     -11.823  14.647  -9.117  1.00  0.00    -0.267 OA
ATOM     13  H2  UNL     1     -10.560  12.315 -10.850  1.00  0.00     0.168 HD
BRANCH  11  14
HETATM   14  C10 UNL     1     -10.518  14.991 -10.971  1.00  0.00     0.038 A
HETATM   15  C11 UNL     1      -9.687  15.927 -10.422  1.00  0.00     0.018 A
HETATM   16  C12 UNL     1      -8.978  16.809 -11.202  1.00  0.00     0.008 A
HETATM   17  C13 UNL     1      -9.131  16.718 -12.571  1.00  0.00    -0.061 A
HETATM   18  C14 UNL     1      -8.378  17.667 -13.435  1.00  0.00     0.048 C
HETATM   19  C15 UNL     1      -9.961  15.783 -13.101  1.00  0.00     0.014 A
HETATM   20  C16 UNL     1     -10.701  14.868 -12.325  1.00  0.00    -0.046 A
HETATM   21  C17 UNL     1     -11.596  13.945 -13.020  1.00  0.00     0.049 C
ENDBRANCH  11  14
ENDBRANCH   9  10
ENDBRANCH   8   9
BRANCH   8  22
HETATM   22  C18 UNL     1      -9.948  11.080  -7.703  1.00  0.00     0.106 A
HETATM   23  N3  UNL     1      -9.025  12.026  -7.976  1.00  0.00    -0.342 N
HETATM   24  C19 UNL     1      -8.209  12.192  -6.939  1.00  0.00     0.061 A
ATOM     25  H3  UNL     1      -8.963  12.541  -8.853  1.00  0.00     0.167 HD
HETATM   26  C20 UNL     1      -7.126  13.010  -6.724  1.00  0.00     0.039 A
HETATM   27  C26 UNL     1      -8.601  11.333  -5.948  1.00  0.00     0.061 A
HETATM   28  C21 UNL     1      -6.407  13.012  -5.549  1.00  0.00    -0.054 A
HETATM   29  C22 UNL     1      -5.230  13.929  -5.386  1.00  0.00     0.049 C
HETATM   30  C23 UNL     1      -6.802  12.148  -4.549  1.00  0.00    -0.054 A
HETATM   31  C24 UNL     1      -6.028  12.147  -3.276  1.00  0.00     0.049 C
HETATM   32  C25 UNL     1      -7.885  11.331  -4.770  1.00  0.00     0.039 A
HETATM   33  N4  UNL     1      -9.662  10.663  -6.428  1.00  0.00    -0.342 N
ATOM     34  H4  UNL     1     -10.180   9.948  -5.918  1.00  0.00     0.167 HD
ENDBRANCH   8  22
ENDBRANCH   4   8
ENDBRANCH   3   4
TORSDOF 8
ENDMDL