MODEL 1
REMARK VINA RESULT: -7.443620426      0.000      0.000
REMARK  8 active torsions:
REMARK  status: ('A' for Active; 'I' for Inactive)
REMARK    1  A    between atoms: C6_6  and  S1_7
REMARK    2  A    between atoms: S1_7  and  N1_10
REMARK    3  A    between atoms: N1_10  and  C7_12
REMARK    4  A    between atoms: C7_12  and  C8_13
REMARK    5  A    between atoms: C8_13  and  C9_14
REMARK    6  A    between atoms: C9_14  and  C10_15
REMARK    7  A    between atoms: C10_15  and  C11_16
REMARK    8  A    between atoms: C11_16  and  N2_17
ROOT
HETATM    1  C7  UNL     1     -11.785  11.318  -9.677  1.00  0.00     0.132 C
ENDROOT
BRANCH   1   2
HETATM    2  N1  UNL     1     -10.691  12.178 -10.056  1.00  0.00    -0.315 N
ATOM      3  H1  UNL     1      -9.780  11.877 -10.402  1.00  0.00     0.172 HD
BRANCH   2   4
HETATM    4  S1  UNL     1     -11.200  13.808  -9.819  1.00  0.00     0.259 S
HETATM    5  O1  UNL     1     -12.696  13.944  -9.833  1.00  0.00    -0.201 OA
HETATM    6  O2  UNL     1     -10.785  14.160  -8.393  1.00  0.00    -0.201 OA
BRANCH   4   7
HETATM    7  C6  UNL     1     -10.397  14.943 -10.851  1.00  0.00     0.086 A
HETATM    8  C4  UNL     1     -10.637  14.914 -12.204  1.00  0.00    -0.038 A
HETATM    9  C3  UNL     1     -10.002  15.816 -13.061  1.00  0.00     0.015 A
HETATM   10  C5  UNL     1     -11.582  13.915 -12.753  1.00  0.00     0.050 C
HETATM   11  C2  UNL     1      -9.125  16.748 -12.563  1.00  0.00    -0.056 A
HETATM   12  C1  UNL     1      -8.471  17.687 -13.499  1.00  0.00     0.049 C
HETATM   13  C20 UNL     1      -8.867  16.799 -11.223  1.00  0.00    -0.055 A
HETATM   14  C19 UNL     1      -9.503  15.901 -10.393  1.00  0.00     0.033 A
HETATM   15  C21 UNL     1      -7.926  17.785 -10.620  1.00  0.00     0.049 C
ENDBRANCH   4   7
ENDBRANCH   2   4
ENDBRANCH   1   2
BRANCH   1  16
HETATM   16  C8  UNL     1     -11.399   9.853  -9.653  1.00  0.00     0.020 C
BRANCH  16  17
HETATM   17  C9  UNL     1     -12.200   9.219  -8.541  1.00  0.00     0.003 C
BRANCH  17  18
HETATM   18  C10 UNL     1     -12.741   7.864  -8.899  1.00  0.00     0.020 C
BRANCH  18  19
HETATM   19  C11 UNL     1     -14.214   7.743  -8.569  1.00  0.00     0.125 C
BRANCH  19  20
HETATM   20  N2  UNL     1     -15.029   8.076  -9.735  1.00  0.00    -0.358 N
HETATM   21  C12 UNL     1     -14.488   7.851 -11.072  1.00  0.00     0.136 C
HETATM   22  C13 UNL     1     -15.577   7.882 -12.086  1.00  0.00    -0.011 C
HETATM   23  C14 UNL     1     -15.258   7.011 -13.299  1.00  0.00     0.018 C
HETATM   24  C15 UNL     1     -15.803   9.311 -12.570  1.00  0.00     0.018 C
HETATM   25  C16 UNL     1     -16.868   7.369 -11.515  1.00  0.00     0.089 C
HETATM   26  C17 UNL     1     -17.886   7.168 -12.586  1.00  0.00     0.033 C
HETATM   27  N3  UNL     1     -17.301   8.373 -10.534  1.00  0.00    -0.362 N
HETATM   28  C18 UNL     1     -16.323   8.609  -9.499  1.00  0.00     0.170 C
ATOM     29  H3  UNL     1     -18.201   8.853 -10.580  1.00  0.00     0.162 HD
HETATM   30  S2  UNL     1     -16.710   9.435  -8.155  1.00  0.00    -0.041 SA
ENDBRANCH  19  20
ENDBRANCH  18  19
ENDBRANCH  17  18
ENDBRANCH  16  17
ENDBRANCH   1  16
TORSDOF 8
ENDMDL