MODEL 4
REMARK VINA RESULT: -6.027656757      3.061      6.152
REMARK  9 active torsions:
REMARK  status: ('A' for Active; 'I' for Inactive)
REMARK    1  A    between atoms: C2_2  and  C3_3
REMARK    2  A    between atoms: C3_3  and  C4_4
REMARK    3  A    between atoms: C4_4  and  N1_5
REMARK    4  A    between atoms: N1_5  and  C5_6
REMARK    5  A    between atoms: N1_5  and  S1_28
REMARK    6  A    between atoms: C5_6  and  C6_7
REMARK    7  A    between atoms: C5_6  and  C17_20
REMARK    8  A    between atoms: C6_7  and  C7_8
REMARK       I    between atoms: C17_20  and  N3_22
REMARK    9  A    between atoms: N3_22  and  C18_24
ROOT
HETATM    1  C5  UNL     1     -15.116   9.225 -10.214  1.00  0.00     0.170 C
ENDROOT
BRANCH   1   2
HETATM    2  N1  UNL     1     -14.541   8.046 -10.885  1.00  0.00    -0.197 NA
BRANCH   2   3
HETATM    3  C4  UNL     1     -14.717   8.107 -12.265  1.00  0.00     0.112 C
BRANCH   3   4
HETATM    4  C3  UNL     1     -15.508   6.943 -12.860  1.00  0.00     0.041 C
BRANCH   4   5
HETATM    5  C2  UNL     1     -16.904   7.308 -13.151  1.00  0.00    -0.036 C
HETATM    6  C1  UNL     1     -17.883   6.788 -12.428  1.00  0.00     0.007 C
ENDBRANCH   4   5
ENDBRANCH   3   4
ENDBRANCH   2   3
BRANCH   2   7
HETATM    7  S1  UNL     1     -13.034   7.733 -10.220  1.00  0.00     0.208 S
HETATM    8  C22 UNL     1     -12.173   9.199  -9.678  1.00  0.00     0.180 C
HETATM    9  O2  UNL     1     -13.244   6.897  -8.960  1.00  0.00    -0.212 OA
HETATM   10  O3  UNL     1     -12.104   6.939 -11.071  1.00  0.00    -0.212 OA
ENDBRANCH   2   7
ENDBRANCH   1   2
BRANCH   1  11
HETATM   11  C6  UNL     1     -15.672  10.168 -11.200  1.00  0.00     0.072 C
BRANCH  11  12
HETATM   12  C7  UNL     1     -16.678  11.119 -10.726  1.00  0.00    -0.021 A
HETATM   13  C8  UNL     1     -16.448  12.389 -10.268  1.00  0.00     0.013 A
HETATM   14  C9  UNL     1     -15.149  13.111 -10.028  1.00  0.00     0.068 C
HETATM   15  N2  UNL     1     -17.661  12.936  -9.976  1.00  0.00    -0.359 N
HETATM   16  C10 UNL     1     -18.641  12.073 -10.227  1.00  0.00     0.043 A
ATOM     17  H2  UNL     1     -17.799  13.880  -9.614  1.00  0.00     0.166 HD
HETATM   18  C11 UNL     1     -20.019  12.132 -10.105  1.00  0.00     0.031 A
HETATM   19  C16 UNL     1     -18.060  10.915 -10.700  1.00  0.00    -0.001 A
HETATM   20  C12 UNL     1     -20.820  11.046 -10.452  1.00  0.00     0.009 A
HETATM   21  C13 UNL     1     -20.243   9.885 -10.927  1.00  0.00    -0.061 A
HETATM   22  C14 UNL     1     -21.134   8.752 -11.287  1.00  0.00     0.048 C
HETATM   23  C15 UNL     1     -18.880   9.845 -11.040  1.00  0.00     0.021 A
ENDBRANCH  11  12
ENDBRANCH   1  11
BRANCH   1  24
HETATM   24  C17 UNL     1     -15.903   8.882  -9.070  1.00  0.00     0.237 C
HETATM   25  O1  UNL     1     -16.694   7.875  -9.180  1.00  0.00    -0.272 OA
HETATM   26  N3  UNL     1     -15.889   9.544  -7.796  1.00  0.00    -0.352 N
ATOM     27  H3  UNL     1     -15.284  10.358  -7.685  1.00  0.00     0.163 HD
BRANCH  26  28
HETATM   28  C18 UNL     1     -16.672   9.130  -6.680  1.00  0.00     0.022 C
HETATM   29  C19 UNL     1     -16.360   7.665  -6.299  1.00  0.00     0.037 C
HETATM   30  C20 UNL     1     -18.139   9.317  -6.849  1.00  0.00     0.037 C
HETATM   31  C21 UNL     1     -16.273   9.922  -5.427  1.00  0.00     0.037 C
ENDBRANCH  26  28
ENDBRANCH   1  24
TORSDOF 9
ENDMDL