MODEL 2
REMARK VINA RESULT: -7.419521159      2.724      4.319
REMARK  9 active torsions:
REMARK  status: ('A' for Active; 'I' for Inactive)
REMARK    1  A    between atoms: C2_2  and  C3_3
REMARK    2  A    between atoms: C3_3  and  C4_4
REMARK    3  A    between atoms: N2_10  and  C7_11
REMARK    4  A    between atoms: C7_11  and  C8_12
REMARK    5  A    between atoms: C8_12  and  N3_13
REMARK    6  A    between atoms: C8_12  and  C20_27
REMARK       I    between atoms: N3_13  and  C9_15
REMARK    7  A    between atoms: C9_15  and  C10_17
REMARK    8  A    between atoms: C10_17  and  C11_18
REMARK    9  A    between atoms: C11_18  and  C12_19
ROOT
HETATM    1  C8  UNL     1     -19.156  10.663  -6.174  1.00  0.00     0.110 C
ENDROOT
BRANCH   1   2
HETATM    2  C7  UNL     1     -17.725  10.682  -6.505  1.00  0.00     0.163 C
BRANCH   2   3
HETATM    3  N2  UNL     1     -16.805   9.905  -5.719  1.00  0.00    -0.266 N
HETATM    4  C6  UNL     1     -16.624   8.491  -5.771  1.00  0.00     0.326 A
HETATM    5  N1  UNL     1     -15.589   8.120  -4.922  1.00  0.00    -0.324 N
HETATM    6  O1  UNL     1     -17.351   7.736  -6.517  1.00  0.00    -0.247 OA
HETATM    7  C3  UNL     1     -15.003   9.286  -4.337  1.00  0.00     0.115 A
ATOM      8  H1  UNL     1     -15.291   7.161  -4.742  1.00  0.00     0.165 HD
HETATM    9  C24 UNL     1     -15.864  10.419  -4.817  1.00  0.00     0.256 A
HETATM   10  O3  UNL     1     -15.664  11.607  -4.396  1.00  0.00    -0.270 OA
BRANCH   7  11
HETATM   11  C2  UNL     1     -15.054   9.315  -2.855  1.00  0.00     0.037 C
HETATM   12  C1  UNL     1     -16.344   8.988  -2.190  1.00  0.00     0.008 C
ENDBRANCH   7  11
BRANCH   7  13
HETATM   13  C4  UNL     1     -13.653   9.463  -4.965  1.00  0.00     0.037 C
HETATM   14  C5  UNL     1     -12.595  10.002  -4.084  1.00  0.00     0.008 C
ENDBRANCH   7  13
ENDBRANCH   2   3
ENDBRANCH   1   2
BRANCH   1  15
HETATM   15  N3  UNL     1     -19.837  10.776  -7.504  1.00  0.00    -0.354 N
HETATM   16  C9  UNL     1     -20.473   9.677  -8.079  1.00  0.00     0.218 C
HETATM   17  O2  UNL     1     -20.483   8.548  -7.468  1.00  0.00    -0.274 OA
ATOM     18  H3  UNL     1     -19.835  11.669  -7.996  1.00  0.00     0.162 HD
BRANCH  16  19
HETATM   19  C10 UNL     1     -21.149   9.740  -9.378  1.00  0.00     0.107 C
BRANCH  19  20
HETATM   20  C11 UNL     1     -20.511  10.786 -10.269  1.00  0.00     0.048 C
BRANCH  20  21
HETATM   21  C12 UNL     1     -19.352  10.293 -11.031  1.00  0.00    -0.057 A
HETATM   22  C13 UNL     1     -18.324  11.172 -11.338  1.00  0.00     0.007 A
HETATM   23  C14 UNL     1     -17.203  10.755 -12.039  1.00  0.00     0.008 A
HETATM   24  C15 UNL     1     -17.092   9.438 -12.447  1.00  0.00    -0.056 A
HETATM   25  C16 UNL     1     -15.891   8.954 -13.202  1.00  0.00     0.049 C
HETATM   26  C17 UNL     1     -18.123   8.572 -12.135  1.00  0.00    -0.056 A
HETATM   27  C18 UNL     1     -17.991   7.154 -12.570  1.00  0.00     0.049 C
HETATM   28  C19 UNL     1     -19.225   9.000 -11.442  1.00  0.00     0.014 A
ENDBRANCH  20  21
ENDBRANCH  19  20
ENDBRANCH  16  19
ENDBRANCH   1  15
BRANCH   1  29
HETATM   29  C20 UNL     1     -19.773  11.678  -5.320  1.00  0.00    -0.029 C
HETATM   30  C21 UNL     1     -19.468  11.487  -3.835  1.00  0.00     0.016 C
HETATM   31  C22 UNL     1     -21.266  11.847  -5.447  1.00  0.00     0.016 C
HETATM   32  C23 UNL     1     -19.171  13.044  -5.750  1.00  0.00     0.016 C
ENDBRANCH   1  29
TORSDOF 9
ENDMDL