MODEL 4
REMARK VINA RESULT: -7.263433798      9.524     13.218
REMARK  9 active torsions:
REMARK  status: ('A' for Active; 'I' for Inactive)
REMARK    1  A    between atoms: C2_2  and  C4_4
REMARK    2  A    between atoms: C4_4  and  C5_5
REMARK    3  A    between atoms: C5_5  and  N1_6
REMARK    4  A    between atoms: C5_5  and  C18_27
REMARK       I    between atoms: N1_6  and  C6_8
REMARK    5  A    between atoms: C6_8  and  C7_10
REMARK       I    between atoms: N2_13  and  C10_14
REMARK    6  A    between atoms: C10_14  and  C11_16
REMARK    7  A    between atoms: C11_16  and  C12_17
REMARK    8  A    between atoms: C12_17  and  N3_18
REMARK    9  A    between atoms: C12_17  and  C13_22
ROOT
HETATM    1  N1  UNL     1     -18.346   9.808  -9.866  1.00  0.00    -0.333 N
ATOM      2  H1  UNL     1     -18.336  10.462 -10.649  1.00  0.00     0.168 HD
HETATM    3  C6  UNL     1     -19.508   9.827  -9.099  1.00  0.00     0.226 C
HETATM    4  O1  UNL     1     -19.666   9.102  -8.101  1.00  0.00    -0.273 OA
ENDROOT
BRANCH   3   5
HETATM    5  C7  UNL     1     -20.628  10.741  -9.461  1.00  0.00     0.081 C
HETATM    6  C8  UNL     1     -21.593  10.816  -8.330  1.00  0.00     0.034 C
HETATM    7  C9  UNL     1     -22.785  11.674  -8.604  1.00  0.00     0.126 C
HETATM    8  N2  UNL     1     -22.945  11.873 -10.017  1.00  0.00    -0.352 N
HETATM    9  C10 UNL     1     -23.355  13.114 -10.523  1.00  0.00     0.221 C
HETATM   10  C16 UNL     1     -22.668  10.744 -10.887  1.00  0.00     0.126 C
HETATM   11  O2  UNL     1     -23.485  13.253 -11.757  1.00  0.00    -0.273 OA
HETATM   12  C17 UNL     1     -21.260  10.255 -10.746  1.00  0.00     0.034 C
BRANCH   9  13
HETATM   13  C11 UNL     1     -23.626  14.234  -9.600  1.00  0.00     0.136 C
BRANCH  13  14
HETATM   14  C12 UNL     1     -22.879  15.448 -10.081  1.00  0.00     0.195 C
BRANCH  14  15
HETATM   15  N3  UNL     1     -23.749  16.599 -10.069  1.00  0.00    -0.074 N
ATOM     16  H33 UNL     1     -24.480  16.533 -10.778  1.00  0.00     0.274 HD
ATOM     17  H32 UNL     1     -24.345  16.620  -9.241  1.00  0.00     0.274 HD
ATOM     18  H31 UNL     1     -23.199  17.453 -10.166  1.00  0.00     0.274 HD
ENDBRANCH  14  15
BRANCH  14  19
HETATM   19  C13 UNL     1     -21.710  15.777  -9.155  1.00  0.00     0.008 C
HETATM   20  C14 UNL     1     -20.467  15.028  -9.595  1.00  0.00     0.011 C
HETATM   21  C15 UNL     1     -22.098  15.265  -7.778  1.00  0.00     0.011 C
ENDBRANCH  14  19
ENDBRANCH  13  14
ENDBRANCH   9  13
ENDBRANCH   3   5
BRANCH   1  22
HETATM   22  C5  UNL     1     -17.161   9.009  -9.724  1.00  0.00    -0.001 C
BRANCH  22  23
HETATM   23  C4  UNL     1     -16.160   9.484  -8.704  1.00  0.00     0.057 C
BRANCH  23  24
HETATM   24  C2  UNL     1     -16.203   8.614  -7.468  1.00  0.00    -0.017 C
HETATM   25  C1  UNL     1     -14.853   7.926  -7.256  1.00  0.00     0.010 C
HETATM   26  C3  UNL     1     -16.577   9.447  -6.266  1.00  0.00     0.010 C
ENDBRANCH  23  24
ENDBRANCH  22  23
BRANCH  22  27
HETATM   27  C18 UNL     1     -16.596   8.459 -10.974  1.00  0.00     0.003 C
HETATM   28  C19 UNL     1     -15.118   8.168 -10.959  1.00  0.00     0.020 C
HETATM   29  C20 UNL     1     -14.791   8.272 -12.456  1.00  0.00    -0.013 C
HETATM   30  C21 UNL     1     -15.495   7.162 -13.154  1.00  0.00     0.009 C
HETATM   31  C25 UNL     1     -15.448   9.628 -12.745  1.00  0.00     0.010 C
HETATM   32  C22 UNL     1     -16.953   7.117 -12.854  1.00  0.00    -0.013 C
HETATM   33  C23 UNL     1     -17.530   8.491 -13.227  1.00  0.00     0.010 C
HETATM   34  C26 UNL     1     -17.261   7.129 -11.366  1.00  0.00     0.020 C
HETATM   35  C24 UNL     1     -16.838   9.344 -12.182  1.00  0.00     0.000 C
ENDBRANCH  22  27
ENDBRANCH   1  22
TORSDOF 9
ENDMDL