MODEL 5
REMARK VINA RESULT: -6.866789132     11.595     14.471
REMARK  8 active torsions:
REMARK  status: ('A' for Active; 'I' for Inactive)
REMARK    1  A    between atoms: C5_5  and  C6_6
REMARK    2  A    between atoms: C10_10  and  N1_11
REMARK    3  A    between atoms: N1_11  and  S1_13
REMARK    4  A    between atoms: S1_13  and  C11_16
REMARK    5  A    between atoms: C11_16  and  C12_17
REMARK    6  A    between atoms: C12_17  and  N2_18
REMARK       I    between atoms: N2_18  and  C13_20
REMARK       I    between atoms: C13_20  and  N3_22
REMARK    7  A    between atoms: N3_22  and  C14_23
REMARK    8  A    between atoms: N3_22  and  C17_26
ROOT
HETATM    1  S1  UNL     1     -17.435   8.339 -11.668  1.00  0.00     0.228 S
HETATM    2  O1  UNL     1     -16.263   8.961 -12.432  1.00  0.00    -0.206 OA
HETATM    3  O2  UNL     1     -18.053   7.239 -12.528  1.00  0.00    -0.206 OA
ENDROOT
BRANCH   1   4
HETATM    4  N1  UNL     1     -17.017   7.835 -10.149  1.00  0.00    -0.314 N
ATOM      5  H1  UNL     1     -17.532   7.073  -9.708  1.00  0.00     0.172 HD
BRANCH   4   6
HETATM    6  C10 UNL     1     -15.922   8.473  -9.439  1.00  0.00     0.101 C
HETATM    7  C5  UNL     1     -16.134   9.912  -9.171  1.00  0.00     0.017 C
HETATM    8  C4  UNL     1     -16.988  10.208  -7.964  1.00  0.00     0.008 C
HETATM    9  C3  UNL     1     -17.151   9.049  -7.033  1.00  0.00     0.005 C
HETATM   10  C2  UNL     1     -15.952   8.182  -6.916  1.00  0.00    -0.013 C
HETATM   11  C1  UNL     1     -16.352   7.011  -6.002  1.00  0.00     0.010 C
HETATM   12  C20 UNL     1     -15.543   7.629  -8.227  1.00  0.00     0.009 C
HETATM   13  C21 UNL     1     -14.052   7.372  -8.194  1.00  0.00     0.012 C
BRANCH   7  14
HETATM   14  C6  UNL     1     -15.004  10.866  -9.351  1.00  0.00    -0.046 C
HETATM   15  C7  UNL     1     -15.512  12.163 -10.040  1.00  0.00     0.015 C
HETATM   16  C8  UNL     1     -14.357  11.374  -8.088  1.00  0.00     0.015 C
HETATM   17  C9  UNL     1     -13.900  10.410 -10.242  1.00  0.00     0.015 C
ENDBRANCH   7  14
ENDBRANCH   4   6
ENDBRANCH   1   4
BRANCH   1  18
HETATM   18  C11 UNL     1     -18.659   9.614 -11.610  1.00  0.00     0.182 C
BRANCH  18  19
HETATM   19  C12 UNL     1     -20.045   9.100 -11.261  1.00  0.00     0.141 C
BRANCH  19  20
HETATM   20  N2  UNL     1     -20.731  10.104 -10.513  1.00  0.00    -0.342 N
HETATM   21  C13 UNL     1     -20.868   9.954  -9.108  1.00  0.00     0.319 C
HETATM   22  O3  UNL     1     -20.372   8.914  -8.533  1.00  0.00    -0.247 OA
HETATM   23  N3  UNL     1     -21.536  10.906  -8.294  1.00  0.00    -0.326 N
ATOM     24  H2  UNL     1     -21.120  10.922 -10.984  1.00  0.00     0.164 HD
BRANCH  23  25
HETATM   25  C14 UNL     1     -21.596  10.609  -6.849  1.00  0.00     0.081 C
HETATM   26  C15 UNL     1     -22.874  11.154  -6.294  1.00  0.00     0.032 C
HETATM   27  C16 UNL     1     -20.438  11.302  -6.169  1.00  0.00     0.032 C
ENDBRANCH  23  25
BRANCH  23  28
HETATM   28  C17 UNL     1     -22.141  12.117  -8.804  1.00  0.00     0.089 A
HETATM   29  C18 UNL     1     -21.328  13.386  -8.791  1.00  0.00     0.027 A
HETATM   30  C19 UNL     1     -21.631  12.691 -10.075  1.00  0.00     0.027 A
ENDBRANCH  23  28
ENDBRANCH  19  20
ENDBRANCH  18  19
ENDBRANCH   1  18
TORSDOF 8
ENDMDL