MODEL 3
REMARK VINA RESULT: -6.998422662      1.751      2.715
REMARK  9 active torsions:
REMARK  status: ('A' for Active; 'I' for Inactive)
REMARK    1  A    between atoms: C8_8  and  N1_9
REMARK       I    between atoms: N1_9  and  C10_11
REMARK    2  A    between atoms: C13_15  and  C14_16
REMARK    3  A    between atoms: C14_16  and  C15_17
REMARK    4  A    between atoms: C15_17  and  C16_18
REMARK    5  A    between atoms: C16_18  and  N2_20
REMARK       I    between atoms: N2_20  and  C18_22
REMARK    6  A    between atoms: C18_22  and  C19_24
REMARK    7  A    between atoms: C19_24  and  C20_25
REMARK    8  A    between atoms: C20_25  and  N3_26
REMARK    9  A    between atoms: C20_25  and  C21_30
ROOT
HETATM    1  C1  UNL     1     -14.078   6.870 -13.737  1.00  0.00     0.012 C
HETATM    2  C2  UNL     1     -15.258   7.011 -13.561  1.00  0.00    -0.112 C
HETATM    3  C3  UNL     1     -16.677   7.187 -13.377  1.00  0.00     0.070 C
HETATM    4  C4  UNL     1     -17.123   8.641 -13.260  1.00  0.00     0.027 C
HETATM    5  C5  UNL     1     -18.075   8.182 -12.169  1.00  0.00     0.026 C
HETATM    6  C6  UNL     1     -18.005   8.955 -10.924  1.00  0.00    -0.044 A
HETATM    7  C7  UNL     1     -18.822   9.962 -10.461  1.00  0.00     0.037 A
HETATM    8  C8  UNL     1     -18.562  10.547  -9.269  1.00  0.00     0.037 A
HETATM    9  C12 UNL     1     -17.476  10.129  -8.524  1.00  0.00     0.037 A
HETATM   10  C13 UNL     1     -16.627   9.132  -8.933  1.00  0.00    -0.049 A
HETATM   11  C24 UNL     1     -16.928   8.551 -10.170  1.00  0.00    -0.045 A
HETATM   12  C25 UNL     1     -16.198   7.454 -10.882  1.00  0.00     0.046 C
HETATM   13  C26 UNL     1     -17.144   7.005 -11.944  1.00  0.00     0.014 C
ENDROOT
BRANCH  10  14
HETATM   14  C14 UNL     1     -15.461   8.674  -8.152  1.00  0.00     0.041 C
BRANCH  14  15
HETATM   15  C15 UNL     1     -15.612   7.289  -7.578  1.00  0.00     0.029 C
BRANCH  15  16
HETATM   16  C16 UNL     1     -16.404   7.318  -6.284  1.00  0.00     0.080 C
HETATM   17  C17 UNL     1     -16.860   5.907  -5.927  1.00  0.00     0.032 C
BRANCH  16  18
HETATM   18  N2  UNL     1     -15.603   7.814  -5.195  1.00  0.00    -0.357 N
HETATM   19  C18 UNL     1     -15.832   9.079  -4.561  1.00  0.00     0.219 C
HETATM   20  O2  UNL     1     -16.800   9.724  -5.033  1.00  0.00    -0.274 OA
ATOM     21  H2  UNL     1     -14.834   7.235  -4.857  1.00  0.00     0.162 HD
BRANCH  19  22
HETATM   22  C19 UNL     1     -14.961   9.489  -3.470  1.00  0.00     0.135 C
BRANCH  22  23
HETATM   23  C20 UNL     1     -13.964  10.549  -3.720  1.00  0.00     0.195 C
BRANCH  23  24
HETATM   24  N3  UNL     1     -14.480  11.689  -4.449  1.00  0.00    -0.074 N
ATOM     25  H33 UNL     1     -14.326  12.548  -3.922  1.00  0.00     0.274 HD
ATOM     26  H32 UNL     1     -13.902  11.881  -5.268  1.00  0.00     0.274 HD
ATOM     27  H31 UNL     1     -15.461  11.606  -4.717  1.00  0.00     0.274 HD
ENDBRANCH  23  24
BRANCH  23  28
HETATM   28  C21 UNL     1     -12.608  10.161  -4.156  1.00  0.00     0.008 C
HETATM   29  C22 UNL     1     -12.551   9.818  -5.647  1.00  0.00     0.011 C
HETATM   30  C23 UNL     1     -11.478  11.068  -3.855  1.00  0.00     0.011 C
ENDBRANCH  23  28
ENDBRANCH  22  23
ENDBRANCH  19  22
ENDBRANCH  16  18
ENDBRANCH  15  16
ENDBRANCH  14  15
ENDBRANCH  10  14
BRANCH   8  31
HETATM   31  N1  UNL     1     -19.395  11.603  -8.766  1.00  0.00    -0.323 N
HETATM   32  C9  UNL     1     -19.187  12.979  -9.133  1.00  0.00     0.159 C
HETATM   33  C10 UNL     1     -20.460  11.299  -7.879  1.00  0.00     0.220 C
HETATM   34  C11 UNL     1     -20.779   9.912  -7.424  1.00  0.00     0.117 C
HETATM   35  O1  UNL     1     -21.198  12.211  -7.426  1.00  0.00    -0.274 OA
ENDBRANCH   8  31
TORSDOF 9
ENDMDL