MODEL 5
REMARK VINA RESULT: -7.583106909     11.782     13.334
REMARK  8 active torsions:
REMARK  status: ('A' for Active; 'I' for Inactive)
REMARK       I    between atoms: N1_2  and  C2_3
REMARK    1  A    between atoms: C2_3  and  C3_5
REMARK    2  A    between atoms: C3_5  and  C4_6
REMARK    3  A    between atoms: C7_9  and  C8_10
REMARK    4  A    between atoms: C10_12  and  S1_13
REMARK    5  A    between atoms: S1_13  and  N2_16
REMARK    6  A    between atoms: N2_16  and  C11_18
REMARK    7  A    between atoms: C11_18  and  C12_19
REMARK    8  A    between atoms: C12_19  and  C13_20
ROOT
HETATM    1  C8  UNL     1     -18.225   9.746  -9.520  1.00  0.00    -0.036 C
HETATM    2  C9  UNL     1     -17.201   9.555  -8.508  1.00  0.00     0.092 C
HETATM    3  C10 UNL     1     -16.127   8.680  -8.916  1.00  0.00     0.062 C
HETATM    4  C16 UNL     1     -16.053   8.074 -10.142  1.00  0.00     0.028 C
HETATM    5  C17 UNL     1     -17.187   8.181 -11.032  1.00  0.00    -0.054 C
HETATM    6  C18 UNL     1     -17.182   7.484 -12.309  1.00  0.00     0.049 C
HETATM    7  C19 UNL     1     -18.148   9.015 -10.638  1.00  0.00    -0.049 C
HETATM    8  C20 UNL     1     -19.501   8.836 -11.392  1.00  0.00     0.049 C
ENDROOT
BRANCH   1   9
HETATM    9  C7  UNL     1     -19.231  10.702  -9.420  1.00  0.00    -0.023 A
HETATM   10  C6  UNL     1     -19.434  11.847 -10.123  1.00  0.00     0.013 A
HETATM   11  C5  UNL     1     -20.586  12.531 -10.011  1.00  0.00     0.008 A
HETATM   12  C4  UNL     1     -21.547  12.197  -9.186  1.00  0.00    -0.048 A
HETATM   13  C23 UNL     1     -21.475  11.105  -8.419  1.00  0.00     0.015 A
HETATM   14  C21 UNL     1     -20.343  10.350  -8.554  1.00  0.00    -0.051 A
HETATM   15  C22 UNL     1     -20.136   9.212  -7.553  1.00  0.00     0.049 C
BRANCH  12  16
HETATM   16  C3  UNL     1     -22.734  12.972  -9.087  1.00  0.00     0.157 C
BRANCH  16  17
HETATM   17  C2  UNL     1     -23.531  12.448 -10.556  1.00  0.00     0.290 C
HETATM   18  N1  UNL     1     -23.467  13.624 -11.065  1.00  0.00    -0.420 NA
HETATM   19  C1  UNL     1     -23.500  14.681 -11.978  1.00  0.00     0.263 C
HETATM   20  O1  UNL     1     -23.779  11.186 -10.471  1.00  0.00    -0.257 OA
ENDBRANCH  16  17
ENDBRANCH  12  16
ENDBRANCH   1   9
BRANCH   3  21
HETATM   21  S1  UNL     1     -15.332   8.108  -7.651  1.00  0.00     0.255 S
HETATM   22  O2  UNL     1     -16.264   6.773  -7.159  1.00  0.00    -0.201 OA
HETATM   23  O3  UNL     1     -14.130   7.096  -8.250  1.00  0.00    -0.201 OA
BRANCH  21  24
HETATM   24  N2  UNL     1     -14.846   8.434  -6.171  1.00  0.00    -0.316 N
ATOM     25  H2  UNL     1     -13.959   8.879  -5.935  1.00  0.00     0.172 HD
BRANCH  24  26
HETATM   26  C11 UNL     1     -15.830   8.014  -5.213  1.00  0.00     0.132 C
BRANCH  26  27
HETATM   27  C12 UNL     1     -16.282   9.442  -4.917  1.00  0.00     0.024 C
BRANCH  27  28
HETATM   28  C13 UNL     1     -15.632   9.796  -3.683  1.00  0.00    -0.021 C
HETATM   29  C14 UNL     1     -15.806   9.009  -2.384  1.00  0.00     0.009 C
HETATM   30  C15 UNL     1     -15.896  11.214  -3.404  1.00  0.00     0.009 C
ENDBRANCH  27  28
ENDBRANCH  26  27
ENDBRANCH  24  26
ENDBRANCH  21  24
ENDBRANCH   3  21
TORSDOF 8
ENDMDL