MODEL 2
REMARK VINA RESULT: -7.746448160      6.941      9.254
REMARK  8 active torsions:
REMARK  status: ('A' for Active; 'I' for Inactive)
REMARK    1  A    between atoms: C7_7  and  C8_8
REMARK    2  A    between atoms: C8_8  and  C9_9
REMARK    3  A    between atoms: C9_9  and  C10_10
REMARK    4  A    between atoms: C10_10  and  C11_11
REMARK    5  A    between atoms: C11_11  and  C12_12
REMARK       I    between atoms: C12_12  and  N1_14
REMARK    6  A    between atoms: N1_14  and  C13_16
REMARK    7  A    between atoms: C13_16  and  C14_17
REMARK    8  A    between atoms: C14_17  and  N2_19
ROOT
HETATM    1  C12 UNL     1     -20.531   9.710  -8.223  1.00  0.00     0.217 C
HETATM    2  O1  UNL     1     -20.656   8.625  -7.637  1.00  0.00    -0.274 OA
HETATM    3  N1  UNL     1     -19.856  10.785  -7.606  1.00  0.00    -0.359 N
ATOM      4  H1  UNL     1     -19.790  11.629  -8.176  1.00  0.00     0.162 HD
ENDROOT
BRANCH   1   5
HETATM    5  C11 UNL     1     -21.095   9.907  -9.596  1.00  0.00     0.103 C
BRANCH   5   6
HETATM    6  C10 UNL     1     -20.088   9.820 -10.693  1.00  0.00     0.010 C
BRANCH   6   7
HETATM    7  C9  UNL     1     -18.704   9.453 -10.281  1.00  0.00     0.005 C
BRANCH   7   8
HETATM    8  C8  UNL     1     -17.711  10.147 -11.224  1.00  0.00     0.040 C
BRANCH   8   9
HETATM    9  C7  UNL     1     -16.454   9.398 -11.218  1.00  0.00    -0.045 A
HETATM   10  C5  UNL     1     -16.224   8.421 -12.134  1.00  0.00    -0.049 A
HETATM   11  C3  UNL     1     -15.011   7.726 -12.100  1.00  0.00    -0.049 A
HETATM   12  C6  UNL     1     -17.199   8.050 -13.169  1.00  0.00     0.049 C
HETATM   13  C2  UNL     1     -14.053   8.020 -11.155  1.00  0.00    -0.049 A
HETATM   14  C4  UNL     1     -14.692   6.646 -13.069  1.00  0.00     0.049 C
HETATM   15  C1  UNL     1     -12.762   7.271 -11.131  1.00  0.00     0.049 C
HETATM   16  C25 UNL     1     -14.279   9.023 -10.210  1.00  0.00    -0.049 A
HETATM   17  C23 UNL     1     -15.478   9.694 -10.259  1.00  0.00    -0.049 A
HETATM   18  C26 UNL     1     -13.253   9.340  -9.184  1.00  0.00     0.049 C
HETATM   19  C24 UNL     1     -15.763  10.781  -9.287  1.00  0.00     0.049 C
ENDBRANCH   8   9
ENDBRANCH   7   8
ENDBRANCH   6   7
ENDBRANCH   5   6
ENDBRANCH   1   5
BRANCH   3  20
HETATM   20  C13 UNL     1     -19.253  10.888  -6.324  1.00  0.00     0.158 C
BRANCH  20  21
HETATM   21  C14 UNL     1     -17.852  11.307  -6.209  1.00  0.00     0.236 C
HETATM   22  C15 UNL     1     -17.511  12.643  -5.646  1.00  0.00     0.044 C
BRANCH  21  23
HETATM   23  N2  UNL     1     -17.016  10.285  -5.566  1.00  0.00     0.096 N
HETATM   24  C16 UNL     1     -15.742  10.774  -5.148  1.00  0.00     0.305 C
HETATM   25  C17 UNL     1     -15.102   9.940  -4.074  1.00  0.00     0.216 C
HETATM   26  C18 UNL     1     -15.803   8.630  -3.900  1.00  0.00     0.068 C
HETATM   27  N3  UNL     1     -13.991   9.192  -4.670  1.00  0.00    -0.064 N
HETATM   28  C19 UNL     1     -14.991   8.196  -5.070  1.00  0.00     0.193 C
HETATM   29  C20 UNL     1     -15.595   8.484  -6.402  1.00  0.00     0.040 C
HETATM   30  C21 UNL     1     -15.762   7.213  -7.236  1.00  0.00     0.014 C
HETATM   31  C22 UNL     1     -17.008   9.058  -6.280  1.00  0.00     0.279 C
ATOM     32  H32 UNL     1     -13.364   9.621  -5.352  1.00  0.00     0.278 HD
ATOM     33  H31 UNL     1     -13.169   8.932  -4.124  1.00  0.00     0.278 HD
ENDBRANCH  21  23
ENDBRANCH  20  21
ENDBRANCH   3  20
TORSDOF 8
ENDMDL