MODEL 2
REMARK VINA RESULT: -8.041535485      1.735      2.011
REMARK  8 active torsions:
REMARK  status: ('A' for Active; 'I' for Inactive)
REMARK    1  A    between atoms: N1_11  and  C10_12
REMARK    2  A    between atoms: C10_12  and  C11_13
REMARK    3  A    between atoms: C11_13  and  C12_14
REMARK    4  A    between atoms: C17_22  and  C19_24
REMARK    5  A    between atoms: C19_24  and  C20_25
REMARK       I    between atoms: C20_25  and  N3_27
REMARK    6  A    between atoms: N3_27  and  C21_29
REMARK    7  A    between atoms: C21_29  and  C22_30
REMARK    8  A    between atoms: C22_30  and  C23_31
ROOT
HETATM    1  C1  UNL     1     -17.643   7.514 -12.993  1.00  0.00     0.049 C
HETATM    2  C2  UNL     1     -16.247   7.485 -12.442  1.00  0.00    -0.046 A
HETATM    3  C3  UNL     1     -15.234   6.878 -13.148  1.00  0.00     0.008 A
HETATM    4  C4  UNL     1     -13.984   6.867 -12.614  1.00  0.00     0.008 A
HETATM    5  C5  UNL     1     -13.681   7.450 -11.366  1.00  0.00    -0.053 A
HETATM    6  C6  UNL     1     -12.309   7.363 -10.905  1.00  0.00     0.049 C
HETATM    7  C7  UNL     1     -14.690   8.065 -10.638  1.00  0.00    -0.018 A
HETATM    8  C8  UNL     1     -15.957   8.070 -11.200  1.00  0.00     0.046 A
HETATM    9  C9  UNL     1     -17.042   8.789 -10.542  1.00  0.00     0.261 C
HETATM   10  O1  UNL     1     -18.203   8.796 -11.019  1.00  0.00    -0.267 OA
HETATM   11  N1  UNL     1     -16.789   9.491  -9.344  1.00  0.00    -0.283 N
HETATM   12  C16 UNL     1     -15.476   9.459  -8.854  1.00  0.00     0.240 C
HETATM   13  O2  UNL     1     -15.261  10.322  -7.924  1.00  0.00    -0.272 OA
HETATM   14  C17 UNL     1     -14.352   8.580  -9.268  1.00  0.00     0.074 C
HETATM   15  C18 UNL     1     -13.192   9.486  -9.210  1.00  0.00     0.031 C
ENDROOT
BRANCH  14  16
HETATM   16  C19 UNL     1     -14.429   7.465  -8.271  1.00  0.00     0.126 C
BRANCH  16  17
HETATM   17  C20 UNL     1     -15.183   7.597  -7.056  1.00  0.00     0.219 C
HETATM   18  O3  UNL     1     -16.279   6.976  -6.979  1.00  0.00    -0.274 OA
HETATM   19  N3  UNL     1     -14.833   8.354  -5.924  1.00  0.00    -0.361 N
ATOM     20  H3  UNL     1     -13.957   8.876  -5.939  1.00  0.00     0.162 HD
BRANCH  19  21
HETATM   21  C21 UNL     1     -15.644   8.423  -4.761  1.00  0.00     0.123 C
BRANCH  21  22
HETATM   22  C22 UNL     1     -16.307   9.741  -4.490  1.00  0.00     0.023 C
BRANCH  22  23
HETATM   23  C23 UNL     1     -15.994  10.232  -3.076  1.00  0.00    -0.021 C
HETATM   24  C24 UNL     1     -15.812   9.064  -2.133  1.00  0.00     0.009 C
HETATM   25  C25 UNL     1     -17.114  11.087  -2.528  1.00  0.00     0.009 C
ENDBRANCH  22  23
ENDBRANCH  21  22
ENDBRANCH  19  21
ENDBRANCH  16  17
ENDBRANCH  14  16
BRANCH  11  26
HETATM   26  C10 UNL     1     -17.828  10.229  -8.649  1.00  0.00     0.140 C
BRANCH  26  27
HETATM   27  C11 UNL     1     -18.476   9.542  -7.516  1.00  0.00     0.060 C
BRANCH  27  28
HETATM   28  C12 UNL     1     -19.663  10.191  -6.930  1.00  0.00    -0.040 A
HETATM   29  C13 UNL     1     -19.660  11.104  -5.869  1.00  0.00     0.025 A
HETATM   30  C14 UNL     1     -20.950  11.478  -5.646  1.00  0.00     0.088 A
HETATM   31  N2  UNL     1     -21.750  10.844  -6.513  1.00  0.00    -0.375 N
HETATM   32  C15 UNL     1     -20.990  10.066  -7.291  1.00  0.00     0.094 A
ATOM     33  H2  UNL     1     -22.764  10.938  -6.570  1.00  0.00     0.164 HD
ENDBRANCH  27  28
ENDBRANCH  26  27
ENDBRANCH  11  26
TORSDOF 8
ENDMDL