MODEL 3
REMARK VINA RESULT: -6.546107954      1.550      2.031
REMARK  7 active torsions:
REMARK  status: ('A' for Active; 'I' for Inactive)
REMARK    1  A    between atoms: C8_8  and  N1_9
REMARK       I    between atoms: N1_9  and  C9_10
REMARK       I    between atoms: N1_9  and  C10_13
REMARK       I    between atoms: C10_13  and  N3_15
REMARK    2  A    between atoms: N3_15  and  C11_17
REMARK    3  A    between atoms: C11_17  and  C12_18
REMARK    4  A    between atoms: C12_18  and  C13_19
REMARK    5  A    between atoms: C13_19  and  S1_20
REMARK    6  A    between atoms: C18_25  and  C19_26
REMARK    7  A    between atoms: C19_26  and  C20_27
ROOT
HETATM    1  C1  UNL     1      23.918  12.337   5.702  1.00  0.00     0.014 C
HETATM    2  C2  UNL     1      23.002  12.861   6.445  1.00  0.00    -0.084 C
HETATM    3  C3  UNL     1      23.227  14.173   7.115  1.00  0.00     0.034 C
HETATM    4  C4  UNL     1      22.305  14.304   8.279  1.00  0.00     0.009 C
HETATM    5  C5  UNL     1      21.851  13.084   8.956  1.00  0.00    -0.009 C
HETATM    6  C6  UNL     1      22.551  12.761  10.242  1.00  0.00     0.007 C
HETATM    7  C7  UNL     1      21.600  11.837  10.984  1.00  0.00     0.027 C
HETATM    8  C8  UNL     1      21.150  10.665  10.172  1.00  0.00     0.103 C
HETATM    9  C15 UNL     1      20.801  10.906   8.744  1.00  0.00     0.010 C
HETATM   10  C16 UNL     1      20.725   9.550   8.070  1.00  0.00     0.012 C
HETATM   11  C17 UNL     1      21.817  11.805   8.141  1.00  0.00     0.004 C
HETATM   12  C18 UNL     1      21.704  12.242   6.739  1.00  0.00     0.022 C
ENDROOT
BRANCH   8  13
HETATM   13  N1  UNL     1      20.109   9.971  10.919  1.00  0.00    -0.249 N
HETATM   14  C9  UNL     1      20.362   8.593  11.315  1.00  0.00     0.339 C
HETATM   15  N2  UNL     1      19.393   7.855  12.000  1.00  0.00    -0.039 NA
HETATM   16  O1  UNL     1      21.473   8.037  11.043  1.00  0.00    -0.250 OA
HETATM   17  C10 UNL     1      18.882  10.535  11.326  1.00  0.00     0.326 C
HETATM   18  O2  UNL     1      18.062   9.762  11.949  1.00  0.00    -0.247 OA
HETATM   19  N3  UNL     1      18.435  11.861  11.135  1.00  0.00    -0.343 N
ATOM     20  H3  UNL     1      19.015  12.550  10.657  1.00  0.00     0.164 HD
BRANCH  19  21
HETATM   21  C11 UNL     1      17.106  12.209  11.650  1.00  0.00     0.125 C
BRANCH  21  22
HETATM   22  C12 UNL     1      16.114  12.395  10.538  1.00  0.00     0.030 C
BRANCH  22  23
HETATM   23  C13 UNL     1      14.897  11.535  10.751  1.00  0.00     0.075 C
BRANCH  23  24
HETATM   24  S1  UNL     1      15.095   9.900  10.031  1.00  0.00    -0.173 SA
HETATM   25  C14 UNL     1      14.643   8.618  11.261  1.00  0.00     0.089 C
ENDBRANCH  23  24
ENDBRANCH  22  23
ENDBRANCH  21  22
ENDBRANCH  19  21
ENDBRANCH   8  13
BRANCH  12  26
HETATM   26  C19 UNL     1      21.202  11.394   5.677  1.00  0.00     0.036 C
BRANCH  26  27
HETATM   27  C20 UNL     1      20.109  12.131   4.932  1.00  0.00    -0.024 C
HETATM   28  C21 UNL     1      18.848  11.832   4.928  1.00  0.00    -0.091 C
HETATM   29  C22 UNL     1      18.215  10.710   5.659  1.00  0.00     0.042 C
HETATM   30  C23 UNL     1      17.899  12.682   4.121  1.00  0.00     0.042 C
ENDBRANCH  26  27
ENDBRANCH  12  26
TORSDOF 7
ENDMDL