MODEL 4
REMARK VINA RESULT: -6.844724794      5.930      9.358
REMARK  11 active torsions:
REMARK  status: ('A' for Active; 'I' for Inactive)
REMARK    1  A    between atoms: C2_2  and  C3_3
REMARK    2  A    between atoms: C3_3  and  C4_4
REMARK    3  A    between atoms: C4_4  and  O1_5
REMARK    4  A    between atoms: N1_7  and  C5_9
REMARK    5  A    between atoms: C9_15  and  N3_16
REMARK    6  A    between atoms: N3_16  and  C10_17
REMARK    7  A    between atoms: C10_17  and  C11_18
REMARK    8  A    between atoms: C14_21  and  C15_22
REMARK       I    between atoms: C15_22  and  N4_24
REMARK    9  A    between atoms: N4_24  and  C17_26
REMARK   10  A    between atoms: C17_26  and  C18_27
REMARK   11  A    between atoms: C17_26  and  C20_29
ROOT
HETATM    1  N3  UNL     1      17.166  12.217  11.714  1.00  0.00    -0.399 NA
ENDROOT
BRANCH   1   2
HETATM    2  C9  UNL     1      17.606  11.108  11.856  1.00  0.00     0.194 A
HETATM    3  C8  UNL     1      18.795  10.704  11.213  1.00  0.00     0.089 A
HETATM    4  C6  UNL     1      19.310   9.446  11.303  1.00  0.00     0.027 A
HETATM    5  N2  UNL     1      18.625   8.542  12.072  1.00  0.00    -0.195 N
HETATM    6  C7  UNL     1      20.579   9.053  10.600  1.00  0.00     0.069 C
HETATM    7  C5  UNL     1      17.514   8.926  12.686  1.00  0.00     0.686 A
ATOM      8  H2  UNL     1      18.966   7.586  12.172  1.00  0.00     0.184 HD
HETATM    9  N5  UNL     1      16.991  10.159  12.593  1.00  0.00    -0.164 N
ATOM     10  H5  UNL     1      16.124  10.381  13.081  1.00  0.00     0.187 HD
BRANCH   7  11
HETATM   11  N1  UNL     1      16.865   8.076  13.418  1.00  0.00    -0.174 N
HETATM   12  C4  UNL     1      15.590   7.630  13.341  1.00  0.00     0.131 C
ATOM     13  H1  UNL     1      17.408   7.675  14.183  1.00  0.00     0.186 HD
BRANCH  12  14
HETATM   14  C3  UNL     1      15.002   6.876  12.244  1.00  0.00     0.084 C
BRANCH  14  15
HETATM   15  C2  UNL     1      13.479   6.859  12.476  1.00  0.00     0.003 C
HETATM   16  C1  UNL     1      12.734   7.147  11.195  1.00  0.00     0.005 C
ENDBRANCH  14  15
ENDBRANCH  12  14
BRANCH  12  17
HETATM   17  O1  UNL     1      14.766   7.873  14.340  1.00  0.00    -0.349 OA
ATOM     18  H1  UNL     1      14.170   7.162  14.541  1.00  0.00     0.219 HD
ENDBRANCH  12  17
ENDBRANCH   7  11
ENDBRANCH   1   2
BRANCH   1  19
HETATM   19  C10 UNL     1      16.666  13.416  11.626  1.00  0.00     0.196 C
BRANCH  19  20
HETATM   20  C11 UNL     1      15.176  13.506  11.459  1.00  0.00    -0.001 A
HETATM   21  C12 UNL     1      14.335  13.361  12.494  1.00  0.00     0.015 A
HETATM   22  C13 UNL     1      12.976  13.816  12.415  1.00  0.00     0.018 A
HETATM   23  C14 UNL     1      12.543  14.406  11.259  1.00  0.00     0.032 A
HETATM   24  C22 UNL     1      13.443  14.525  10.201  1.00  0.00     0.024 A
HETATM   25  C23 UNL     1      14.728  14.086  10.297  1.00  0.00    -0.048 A
HETATM   26  C24 UNL     1      15.639  14.021   9.080  1.00  0.00     0.049 C
BRANCH  23  27
HETATM   27  C15 UNL     1      11.168  14.896  11.156  1.00  0.00     0.253 C
HETATM   28  O2  UNL     1      10.258  14.099  10.847  1.00  0.00    -0.267 OA
HETATM   29  N4  UNL     1      10.929  16.278  11.434  1.00  0.00    -0.348 N
HETATM   30  C16 UNL     1      12.036  17.179  11.866  1.00  0.00     0.153 C
BRANCH  29  31
HETATM   31  C17 UNL     1       9.621  16.894  11.335  1.00  0.00     0.086 C
BRANCH  31  32
HETATM   32  C18 UNL     1       9.309  17.845  12.477  1.00  0.00     0.021 C
HETATM   33  C19 UNL     1       8.849  16.934  13.631  1.00  0.00     0.007 C
ENDBRANCH  31  32
BRANCH  31  34
HETATM   34  C20 UNL     1       9.364  17.440   9.966  1.00  0.00     0.021 C
HETATM   35  C21 UNL     1       8.128  16.743   9.449  1.00  0.00     0.007 C
ENDBRANCH  31  34
ENDBRANCH  29  31
ENDBRANCH  23  27
ENDBRANCH  19  20
ENDBRANCH   1  19
TORSDOF 11
ENDMDL