MODEL 5
REMARK VINA RESULT: -7.474983269      2.630      6.363
REMARK  8 active torsions:
REMARK  status: ('A' for Active; 'I' for Inactive)
REMARK    1  A    between atoms: C2_2  and  C3_3
REMARK    2  A    between atoms: C10_13  and  C11_14
REMARK    3  A    between atoms: C13_16  and  C14_17
REMARK       I    between atoms: C14_17  and  N2_19
REMARK    4  A    between atoms: N2_19  and  C15_21
REMARK    5  A    between atoms: C15_21  and  C16_22
REMARK    6  A    between atoms: C16_22  and  C17_23
REMARK    7  A    between atoms: C17_23  and  N3_24
REMARK       I    between atoms: N3_24  and  C19_26
REMARK    8  A    between atoms: C19_26  and  C20_28
ROOT
HETATM    1  C3  UNL     1      13.578   7.268  11.669  1.00  0.00    -0.019 A
HETATM    2  C4  UNL     1      13.038   6.798  12.883  1.00  0.00     0.086 A
HETATM    3  C5  UNL     1      13.821   6.719  14.010  1.00  0.00     0.246 A
HETATM    4  O1  UNL     1      13.330   6.291  15.111  1.00  0.00    -0.268 OA
HETATM    5  N1  UNL     1      15.091   7.078  13.992  1.00  0.00    -0.323 N
ATOM      6  H1  UNL     1      15.639   7.004  14.849  1.00  0.00     0.169 HD
HETATM    7  C6  UNL     1      15.691   7.545  12.861  1.00  0.00     0.047 A
HETATM    8  C7  UNL     1      17.011   7.920  12.882  1.00  0.00     0.042 A
HETATM    9  C8  UNL     1      17.602   8.400  11.746  1.00  0.00    -0.023 A
HETATM   10  C9  UNL     1      18.931   8.772  11.767  1.00  0.00     0.020 A
HETATM   11  C10 UNL     1      19.513   9.255  10.585  1.00  0.00    -0.042 A
HETATM   12  C13 UNL     1      18.758   9.347   9.455  1.00  0.00     0.039 A
HETATM   13  C22 UNL     1      17.401   8.960   9.459  1.00  0.00     0.030 A
HETATM   14  C23 UNL     1      16.835   8.488  10.608  1.00  0.00    -0.024 A
HETATM   15  C24 UNL     1      15.484   8.111  10.558  1.00  0.00     0.027 A
HETATM   16  C25 UNL     1      14.903   7.630  11.702  1.00  0.00     0.002 A
ENDROOT
BRANCH  12  17
HETATM   17  C14 UNL     1      19.224   9.900   8.209  1.00  0.00     0.252 C
HETATM   18  O2  UNL     1      19.840   9.123   7.421  1.00  0.00    -0.268 OA
HETATM   19  N2  UNL     1      19.016  11.238   7.843  1.00  0.00    -0.357 N
ATOM     20  H2  UNL     1      18.505  11.854   8.475  1.00  0.00     0.162 HD
BRANCH  19  21
HETATM   21  C15 UNL     1      19.519  11.774   6.565  1.00  0.00     0.124 C
BRANCH  21  22
HETATM   22  C16 UNL     1      18.365  12.056   5.643  1.00  0.00     0.039 C
BRANCH  22  23
HETATM   23  C17 UNL     1      17.671  10.859   5.108  1.00  0.00     0.127 C
BRANCH  23  24
HETATM   24  N3  UNL     1      16.291  11.006   4.790  1.00  0.00    -0.356 N
HETATM   25  C18 UNL     1      15.385  11.390   5.875  1.00  0.00     0.152 C
HETATM   26  C19 UNL     1      15.756  10.790   3.500  1.00  0.00     0.218 C
HETATM   27  O3  UNL     1      14.499  10.920   3.292  1.00  0.00    -0.273 OA
BRANCH  26  28
HETATM   28  C20 UNL     1      16.577  10.408   2.314  1.00  0.00     0.098 C
HETATM   29  C21 UNL     1      16.369   8.934   1.944  1.00  0.00     0.014 C
ENDBRANCH  26  28
ENDBRANCH  23  24
ENDBRANCH  22  23
ENDBRANCH  21  22
ENDBRANCH  19  21
ENDBRANCH  12  17
BRANCH  11  30
HETATM   30  C11 UNL     1      20.960   9.569  10.568  1.00  0.00     0.035 C
HETATM   31  C12 UNL     1      21.731   8.567  11.422  1.00  0.00     0.010 C
ENDBRANCH  11  30
BRANCH   1  32
HETATM   32  C2  UNL     1      12.707   7.339  10.523  1.00  0.00     0.002 C
HETATM   33  C1  UNL     1      11.736   8.182  10.281  1.00  0.00     0.012 C
ENDBRANCH   1  32
TORSDOF 8
ENDMDL