MODEL 5
REMARK VINA RESULT: -6.495816090      2.397      6.948
REMARK  12 active torsions:
REMARK  status: ('A' for Active; 'I' for Inactive)
REMARK       I    between atoms: C2_2  and  N1_4
REMARK    1  A    between atoms: N1_4  and  C3_5
REMARK    2  A    between atoms: C3_5  and  C5_7
REMARK    3  A    between atoms: C3_5  and  C22_31
REMARK    4  A    between atoms: C5_7  and  O2_8
REMARK    5  A    between atoms: C5_7  and  N2_10
REMARK    6  A    between atoms: N2_10  and  C6_11
REMARK    7  A    between atoms: N2_10  and  C19_28
REMARK    8  A    between atoms: C6_11  and  C7_12
REMARK    9  A    between atoms: C7_12  and  O3_13
REMARK   10  A    between atoms: N3_15  and  C8_17
REMARK   11  A    between atoms: C8_17  and  C9_18
REMARK   12  A    between atoms: C12_21  and  C13_22
ROOT
HETATM    1  C6  UNL     1      20.604  10.409  10.547  1.00  0.00     0.208 C
ENDROOT
BRANCH   1   2
HETATM    2  N2  UNL     1      20.980  10.518   9.192  1.00  0.00    -0.351 N
BRANCH   2   3
HETATM    3  C5  UNL     1      20.401  10.024   8.050  1.00  0.00     0.157 C
BRANCH   3   4
HETATM    4  C3  UNL     1      19.381  10.529   7.048  1.00  0.00     0.160 C
HETATM    5  C4  UNL     1      18.435   9.310   6.822  1.00  0.00     0.064 C
BRANCH   4   6
HETATM    6  N1  UNL     1      18.624  11.539   7.777  1.00  0.00    -0.395 NA
HETATM    7  C2  UNL     1      17.969  12.452   8.403  1.00  0.00     0.283 C
HETATM    8  C1  UNL     1      17.171  11.515   9.669  1.00  0.00     0.134 C
HETATM    9  O1  UNL     1      17.533  13.493   8.735  1.00  0.00    -0.258 OA
ENDBRANCH   4   6
BRANCH   4  10
HETATM   10  C22 UNL     1      19.879  10.957   5.745  1.00  0.00     0.027 C
HETATM   11  C23 UNL     1      20.459  12.377   5.678  1.00  0.00     0.014 C
HETATM   12  C24 UNL     1      18.555  11.183   4.884  1.00  0.00     0.014 C
ENDBRANCH   4  10
ENDBRANCH   3   4
BRANCH   3  13
HETATM   13  O2  UNL     1      20.843   8.838   7.701  1.00  0.00    -0.347 OA
ATOM     14  H2  UNL     1      20.887   8.263   8.455  1.00  0.00     0.219 HD
ENDBRANCH   3  13
ENDBRANCH   2   3
BRANCH   2  15
HETATM   15  C19 UNL     1      22.016  11.616   8.868  1.00  0.00     0.078 C
HETATM   16  C20 UNL     1      23.379  11.254   9.248  1.00  0.00     0.032 C
HETATM   17  C21 UNL     1      21.428  12.902   9.271  1.00  0.00     0.032 C
ENDBRANCH   2  15
ENDBRANCH   1   2
BRANCH   1  18
HETATM   18  C7  UNL     1      20.176   9.062  11.060  1.00  0.00     0.130 C
HETATM   19  N3  UNL     1      19.212   8.575  11.596  1.00  0.00    -0.369 N
ATOM     20  H3  UNL     1      18.540   9.343  11.601  1.00  0.00     0.161 HD
BRANCH  18  21
HETATM   21  O3  UNL     1      21.291   8.231  10.779  1.00  0.00    -0.348 OA
ATOM     22  H3  UNL     1      21.986   8.607  11.306  1.00  0.00     0.219 HD
ENDBRANCH  18  21
BRANCH  19  23
HETATM   23  C8  UNL     1      18.469   7.484  12.247  1.00  0.00     0.160 C
BRANCH  23  24
HETATM   24  C9  UNL     1      17.059   7.556  11.756  1.00  0.00    -0.041 A
HETATM   25  C10 UNL     1      16.829   7.943  10.450  1.00  0.00     0.009 A
HETATM   26  C11 UNL     1      15.497   8.048  10.032  1.00  0.00     0.008 A
HETATM   27  C12 UNL     1      14.408   7.793  10.817  1.00  0.00    -0.051 A
HETATM   28  C17 UNL     1      14.693   7.397  12.130  1.00  0.00     0.008 A
HETATM   29  C18 UNL     1      15.995   7.297  12.550  1.00  0.00     0.009 A
BRANCH  27  30
HETATM   30  C13 UNL     1      13.069   7.914  10.266  1.00  0.00    -0.024 C
HETATM   31  C14 UNL     1      13.032   7.158   8.927  1.00  0.00     0.019 C
HETATM   32  C15 UNL     1      12.700   9.333   9.935  1.00  0.00     0.019 C
HETATM   33  C16 UNL     1      11.965   7.357  11.135  1.00  0.00     0.019 C
ENDBRANCH  27  30
ENDBRANCH  23  24
ENDBRANCH  19  23
ENDBRANCH   1  18
TORSDOF 12
ENDMDL