MODEL 5
REMARK VINA RESULT: -6.338252276      1.998      4.190
REMARK  9 active torsions:
REMARK  status: ('A' for Active; 'I' for Inactive)
REMARK    1  A    between atoms: C2_2  and  N1_3
REMARK    2  A    between atoms: N1_3  and  C3_4
REMARK    3  A    between atoms: N1_3  and  C5_6
REMARK    4  A    between atoms: C5_6  and  C6_7
REMARK    5  A    between atoms: C5_6  and  C20_28
REMARK    6  A    between atoms: C6_7  and  N2_8
REMARK    7  A    between atoms: N2_8  and  C7_10
REMARK    8  A    between atoms: C7_10  and  C10_18
REMARK       I    between atoms: N3_11  and  C8_13
REMARK       I    between atoms: C8_13  and  N4_15
REMARK    9  A    between atoms: C20_28  and  N5_29
ROOT
HETATM    1  C7  UNL     1      18.429   9.792   7.314  1.00  0.00     0.090 C
HETATM    2  N3  UNL     1      17.813   9.473   8.325  1.00  0.00    -0.298 N
ATOM      3  H3  UNL     1      16.992   8.925   8.067  1.00  0.00     0.172 HD
HETATM    4  C8  UNL     1      17.864   9.610   9.687  1.00  0.00     0.321 C
HETATM    5  O1  UNL     1      18.455   8.674  10.340  1.00  0.00    -0.247 OA
HETATM    6  N4  UNL     1      17.337  10.672  10.454  1.00  0.00    -0.347 N
ATOM      7  H4  UNL     1      16.856  11.448   9.999  1.00  0.00     0.163 HD
HETATM    8  C9  UNL     1      17.486  10.646  11.890  1.00  0.00     0.151 C
ENDROOT
BRANCH   1   9
HETATM    9  N2  UNL     1      17.844   9.317   6.047  1.00  0.00    -0.374 N
ATOM     10  H2  UNL     1      18.270   8.546   5.532  1.00  0.00     0.161 HD
BRANCH   9  11
HETATM   11  C6  UNL     1      16.659   9.967   5.554  1.00  0.00     0.173 C
BRANCH  11  12
HETATM   12  C5  UNL     1      15.528   9.036   5.224  1.00  0.00     0.016 C
BRANCH  12  13
HETATM   13  N1  UNL     1      14.870   9.239   4.016  1.00  0.00    -0.285 NA
BRANCH  13  14
HETATM   14  C2  UNL     1      15.802   9.931   3.068  1.00  0.00     0.091 C
HETATM   15  C1  UNL     1      16.210   9.047   1.944  1.00  0.00     0.021 C
ENDBRANCH  13  14
BRANCH  13  16
HETATM   16  C3  UNL     1      13.614   9.871   3.876  1.00  0.00     0.091 C
HETATM   17  C4  UNL     1      13.537  11.350   4.120  1.00  0.00     0.021 C
ENDBRANCH  13  16
ENDBRANCH  12  13
BRANCH  12  18
HETATM   18  C20 UNL     1      14.758   8.441   6.308  1.00  0.00     0.080 C
BRANCH  18  19
HETATM   19  N5  UNL     1      14.903   8.602   7.666  1.00  0.00    -0.291 NA
HETATM   20  C21 UNL     1      14.003   9.298   8.497  1.00  0.00     0.095 C
HETATM   21  C22 UNL     1      12.777   8.373   8.626  1.00  0.00     0.016 C
HETATM   22  C23 UNL     1      13.428   7.018   8.494  1.00  0.00     0.016 C
HETATM   23  C24 UNL     1      14.927   7.287   8.316  1.00  0.00     0.095 C
ENDBRANCH  18  19
ENDBRANCH  12  18
ENDBRANCH  11  12
ENDBRANCH   9  11
ENDBRANCH   1   9
BRANCH   1  24
HETATM   24  C10 UNL     1      19.656  10.578   7.223  1.00  0.00     0.019 C
HETATM   25  C11 UNL     1      19.403  11.964   7.821  1.00  0.00     0.022 C
HETATM   26  C12 UNL     1      20.610  12.825   7.680  1.00  0.00    -0.013 C
HETATM   27  C13 UNL     1      20.926  12.986   6.208  1.00  0.00     0.009 C
HETATM   28  C17 UNL     1      21.816  12.218   8.391  1.00  0.00     0.009 C
HETATM   29  C14 UNL     1      21.187  11.641   5.576  1.00  0.00    -0.013 C
HETATM   30  C15 UNL     1      22.368  11.028   6.283  1.00  0.00     0.009 C
HETATM   31  C19 UNL     1      19.975  10.777   5.757  1.00  0.00     0.022 C
HETATM   32  C16 UNL     1      22.059  10.900   7.739  1.00  0.00    -0.013 C
HETATM   33  C18 UNL     1      20.842  10.008   7.945  1.00  0.00     0.022 C
ENDBRANCH   1  24
TORSDOF 9
ENDMDL