MODEL 5
REMARK VINA RESULT: -5.616946406      2.577      5.952
REMARK  12 active torsions:
REMARK  status: ('A' for Active; 'I' for Inactive)
REMARK    1  A    between atoms: C2_2  and  C3_3
REMARK    2  A    between atoms: C3_3  and  C4_4
REMARK    3  A    between atoms: C4_4  and  N1_5
REMARK    4  A    between atoms: N1_5  and  C5_7
REMARK    5  A    between atoms: C5_7  and  N2_9
REMARK    6  A    between atoms: N2_9  and  C6_11
REMARK    7  A    between atoms: N3_14  and  C9_15
REMARK    8  A    between atoms: C9_15  and  C10_16
REMARK    9  A    between atoms: C10_16  and  C11_17
REMARK   10  A    between atoms: C11_17  and  N4_18
REMARK       I    between atoms: N4_18  and  C13_20
REMARK   11  A    between atoms: C13_20  and  C14_22
REMARK   12  A    between atoms: C14_22  and  C17_25
ROOT
HETATM    1  C6  UNL     1      19.131  10.724   5.804  1.00  0.00     0.087 C
HETATM    2  C7  UNL     1      20.521  11.112   6.348  1.00  0.00     0.055 C
HETATM    3  C8  UNL     1      21.021   9.982   7.262  1.00  0.00     0.274 C
HETATM    4  N3  UNL     1      20.195  10.113   8.462  1.00  0.00     0.088 N
HETATM    5  C21 UNL     1      18.799   9.933   8.118  1.00  0.00     0.274 C
HETATM    6  C22 UNL     1      18.560   9.616   6.680  1.00  0.00     0.055 C
ENDROOT
BRANCH   4   7
HETATM    7  C9  UNL     1      20.659   9.277   9.526  1.00  0.00     0.274 C
BRANCH   7   8
HETATM    8  C10 UNL     1      20.031   9.719  10.817  1.00  0.00     0.050 C
BRANCH   8   9
HETATM    9  C11 UNL     1      19.409   8.545  11.564  1.00  0.00     0.127 C
BRANCH   9  10
HETATM   10  N4  UNL     1      18.029   8.943  11.811  1.00  0.00    -0.356 N
HETATM   11  C12 UNL     1      17.739  10.353  11.837  1.00  0.00     0.152 C
HETATM   12  C13 UNL     1      17.070   7.921  12.016  1.00  0.00     0.228 C
HETATM   13  O1  UNL     1      17.492   6.707  11.974  1.00  0.00    -0.273 OA
BRANCH  12  14
HETATM   14  C14 UNL     1      15.634   8.150  12.272  1.00  0.00     0.040 C
HETATM   15  C15 UNL     1      15.471   9.327  13.172  1.00  0.00     0.026 C
HETATM   16  C16 UNL     1      15.055   6.894  12.902  1.00  0.00     0.026 C
BRANCH  14  17
HETATM   17  C17 UNL     1      14.908   8.364  10.961  1.00  0.00    -0.036 C
HETATM   18  C18 UNL     1      13.684   7.474  10.895  1.00  0.00     0.015 C
HETATM   19  C19 UNL     1      15.767   8.024   9.768  1.00  0.00     0.015 C
HETATM   20  C20 UNL     1      14.460   9.800  10.826  1.00  0.00     0.015 C
ENDBRANCH  14  17
ENDBRANCH  12  14
ENDBRANCH   9  10
ENDBRANCH   8   9
ENDBRANCH   7   8
ENDBRANCH   4   7
BRANCH   1  21
HETATM   21  N2  UNL     1      18.328  11.893   5.886  1.00  0.00    -0.362 N
ATOM     22  H2  UNL     1      18.801  12.716   6.261  1.00  0.00     0.162 HD
BRANCH  21  23
HETATM   23  C5  UNL     1      17.009  12.085   5.536  1.00  0.00     0.171 C
HETATM   24  S1  UNL     1      16.012  12.489   6.912  1.00  0.00    -0.041 SA
BRANCH  23  25
HETATM   25  N1  UNL     1      16.318  12.025   4.357  1.00  0.00    -0.347 N
ATOM     26  H1  UNL     1      16.431  12.863   3.787  1.00  0.00     0.167 HD
BRANCH  25  27
HETATM   27  C4  UNL     1      15.484  11.060   3.755  1.00  0.00     0.063 C
BRANCH  27  28
HETATM   28  C3  UNL     1      16.246  10.029   2.925  1.00  0.00     0.044 C
BRANCH  28  29
HETATM   29  C2  UNL     1      15.570   8.697   3.112  1.00  0.00     0.001 C
HETATM   30  C1  UNL     1      15.499   8.363   4.577  1.00  0.00     0.005 C
ENDBRANCH  28  29
ENDBRANCH  27  28
ENDBRANCH  25  27
ENDBRANCH  23  25
ENDBRANCH  21  23
ENDBRANCH   1  21
TORSDOF 12
ENDMDL