MODEL 4
REMARK VINA RESULT: -6.288292060     12.914     15.411
REMARK  11 active torsions:
REMARK  status: ('A' for Active; 'I' for Inactive)
REMARK    1  A    between atoms: C2_2  and  C3_3
REMARK    2  A    between atoms: C3_3  and  N1_4
REMARK    3  A    between atoms: N1_4  and  C4_5
REMARK    4  A    between atoms: N1_4  and  C17_22
REMARK    5  A    between atoms: C4_5  and  C5_6
REMARK    6  A    between atoms: C5_6  and  C6_7
REMARK    7  A    between atoms: C12_13  and  C13_14
REMARK    8  A    between atoms: C13_14  and  N2_15
REMARK       I    between atoms: N2_15  and  C14_17
REMARK       I    between atoms: C14_17  and  N3_19
REMARK    9  A    between atoms: C17_22  and  O2_23
REMARK   10  A    between atoms: C17_22  and  C18_25
REMARK   11  A    between atoms: C25_32  and  O3_33
ROOT
HETATM    1  N1  UNL     1       7.809  22.356  12.960  1.00  0.00    -0.361 N
ENDROOT
BRANCH   1   2
HETATM    2  C3  UNL     1       8.088  23.554  13.849  1.00  0.00     0.124 C
BRANCH   2   3
HETATM    3  C2  UNL     1       8.969  24.555  13.212  1.00  0.00     0.015 C
HETATM    4  C1  UNL     1      10.418  24.003  13.288  1.00  0.00     0.006 C
ENDBRANCH   2   3
ENDBRANCH   1   2
BRANCH   1   5
HETATM    5  C4  UNL     1       7.271  22.732  11.691  1.00  0.00     0.129 C
BRANCH   5   6
HETATM    6  C5  UNL     1       8.252  22.670  10.539  1.00  0.00     0.059 C
BRANCH   6   7
HETATM    7  C6  UNL     1       8.558  21.322  10.046  1.00  0.00    -0.044 A
HETATM    8  C7  UNL     1       7.510  20.559   9.586  1.00  0.00     0.008 A
HETATM    9  C8  UNL     1       7.666  19.276   9.131  1.00  0.00     0.001 A
HETATM   10  C9  UNL     1       8.910  18.709   9.124  1.00  0.00     0.007 A
HETATM   11  C10 UNL     1      10.028  19.456   9.588  1.00  0.00    -0.050 A
HETATM   12  C11 UNL     1      11.356  18.806   9.451  1.00  0.00     0.049 C
HETATM   13  C12 UNL     1       9.853  20.738  10.042  1.00  0.00    -0.008 A
BRANCH  13  14
HETATM   14  C13 UNL     1      10.892  21.653  10.455  1.00  0.00     0.105 C
BRANCH  14  15
HETATM   15  N2  UNL     1      11.642  22.412   9.535  1.00  0.00    -0.318 N
HETATM   16  C14 UNL     1      13.064  22.242   9.416  1.00  0.00     0.321 C
HETATM   17  O1  UNL     1      13.655  21.408  10.139  1.00  0.00    -0.247 OA
HETATM   18  N3  UNL     1      13.859  22.989   8.495  1.00  0.00    -0.343 N
HETATM   19  C15 UNL     1      15.291  22.782   8.402  1.00  0.00     0.154 C
HETATM   20  C16 UNL     1      13.262  23.977   7.622  1.00  0.00     0.154 C
ATOM     21  H2  UNL     1      11.167  23.093   8.943  1.00  0.00     0.170 HD
ENDBRANCH  14  15
ENDBRANCH  13  14
ENDBRANCH   6   7
ENDBRANCH   5   6
ENDBRANCH   1   5
BRANCH   1  22
HETATM   22  C17 UNL     1       8.146  21.171  13.570  1.00  0.00     0.151 C
BRANCH  22  23
HETATM   23  O2  UNL     1       8.127  21.316  14.917  1.00  0.00    -0.345 OA
ATOM     24  H2  UNL     1       7.264  21.112  15.257  1.00  0.00     0.219 HD
ENDBRANCH  22  23
BRANCH  22  25
HETATM   25  C18 UNL     1       8.520  19.840  13.229  1.00  0.00     0.054 A
HETATM   26  C19 UNL     1       7.755  18.800  12.781  1.00  0.00    -0.044 A
HETATM   27  C20 UNL     1       6.287  18.914  12.621  1.00  0.00     0.049 C
HETATM   28  C21 UNL     1       8.283  17.518  12.555  1.00  0.00     0.014 A
HETATM   29  C22 UNL     1       9.605  17.244  12.781  1.00  0.00    -0.059 A
HETATM   30  C23 UNL     1      10.156  15.881  12.534  1.00  0.00     0.048 C
HETATM   31  C24 UNL     1      10.412  18.264  13.239  1.00  0.00     0.044 A
HETATM   32  C25 UNL     1       9.884  19.502  13.450  1.00  0.00     0.081 A
BRANCH  32  33
HETATM   33  O3  UNL     1      10.731  20.490  13.908  1.00  0.00    -0.360 OA
ATOM     34  H3  UNL     1      10.447  21.016  14.646  1.00  0.00     0.217 HD
ENDBRANCH  32  33
ENDBRANCH  22  25
ENDBRANCH   1  22
TORSDOF 11
ENDMDL