MODEL 3
REMARK VINA RESULT: -6.903603019     11.474     13.913
REMARK  10 active torsions:
REMARK  status: ('A' for Active; 'I' for Inactive)
REMARK    1  A    between atoms: C2_2  and  C3_3
REMARK    2  A    between atoms: C3_3  and  C4_4
REMARK    3  A    between atoms: C4_4  and  N1_5
REMARK    4  A    between atoms: C6_7  and  O1_8
REMARK    5  A    between atoms: C6_7  and  C7_10
REMARK    6  A    between atoms: N2_13  and  N3_14
REMARK       I    between atoms: N3_14  and  C10_16
REMARK    7  A    between atoms: C10_16  and  C11_18
REMARK    8  A    between atoms: C16_26  and  C17_27
REMARK    9  A    between atoms: C17_27  and  C18_28
REMARK   10  A    between atoms: C19_29  and  C20_30
ROOT
HETATM    1  C7  UNL     1      10.279  21.116  12.131  1.00  0.00     0.030 C
HETATM    2  C8  UNL     1      10.722  20.055  12.731  1.00  0.00     0.045 C
HETATM    3  C9  UNL     1      10.759  19.693  14.178  1.00  0.00     0.071 C
HETATM    4  N2  UNL     1      11.448  19.194  11.805  1.00  0.00    -0.225 N
HETATM    5  C15 UNL     1      11.426  19.837  10.543  1.00  0.00     0.252 C
HETATM    6  O3  UNL     1      12.249  19.580   9.605  1.00  0.00    -0.270 OA
HETATM    7  C16 UNL     1      10.317  20.772  10.625  1.00  0.00     0.122 C
ENDROOT
BRANCH   4   8
HETATM    8  N3  UNL     1      12.054  17.967  12.093  1.00  0.00    -0.255 N
HETATM    9  C10 UNL     1      11.424  16.753  11.765  1.00  0.00     0.287 C
HETATM   10  O2  UNL     1      10.299  16.757  11.203  1.00  0.00    -0.264 OA
ATOM     11  H3  UNL     1      12.966  17.952  12.548  1.00  0.00     0.191 HD
BRANCH   9  12
HETATM   12  C11 UNL     1      12.041  15.466  12.058  1.00  0.00     0.102 A
HETATM   13  C12 UNL     1      11.444  14.344  12.587  1.00  0.00     0.036 A
HETATM   14  C13 UNL     1      12.395  13.356  12.697  1.00  0.00     0.019 A
HETATM   15  C14 UNL     1      13.583  13.879  12.231  1.00  0.00     0.088 A
HETATM   16  N4  UNL     1      13.344  15.139  11.856  1.00  0.00    -0.361 N
ATOM     17  H4  UNL     1      14.046  15.770  11.470  1.00  0.00     0.165 HD
ENDBRANCH   9  12
ENDBRANCH   4   8
BRANCH   1  18
HETATM   18  C6  UNL     1       9.687  22.336  12.588  1.00  0.00     0.146 C
HETATM   19  N1  UNL     1       8.730  22.809  13.432  1.00  0.00    -0.366 N
HETATM   20  C5  UNL     1       7.877  22.100  14.326  1.00  0.00     0.151 C
BRANCH  19  21
HETATM   21  C4  UNL     1       8.492  24.300  13.503  1.00  0.00     0.124 C
BRANCH  21  22
HETATM   22  C3  UNL     1       7.113  24.639  13.078  1.00  0.00     0.019 C
BRANCH  22  23
HETATM   23  C2  UNL     1       7.021  24.692  11.588  1.00  0.00    -0.003 C
HETATM   24  C1  UNL     1       5.874  23.869  11.042  1.00  0.00     0.005 C
ENDBRANCH  22  23
ENDBRANCH  21  22
ENDBRANCH  19  21
BRANCH  18  25
HETATM   25  O1  UNL     1      10.320  23.364  11.938  1.00  0.00    -0.346 OA
ATOM     26  H1  UNL     1      11.015  23.036  11.380  1.00  0.00     0.219 HD
ENDBRANCH  18  25
ENDBRANCH   1  18
BRANCH   7  27
HETATM   27  C17 UNL     1       9.066  20.017  10.222  1.00  0.00     0.046 C
BRANCH  27  28
HETATM   28  C18 UNL     1       7.806  20.583  10.681  1.00  0.00    -0.029 C
HETATM   29  C19 UNL     1       6.774  20.013  11.246  1.00  0.00    -0.022 C
BRANCH  29  30
HETATM   30  C20 UNL     1       6.699  18.573  11.545  1.00  0.00    -0.034 C
HETATM   31  C21 UNL     1       5.293  18.207  11.947  1.00  0.00     0.018 C
HETATM   32  C22 UNL     1       7.593  18.227  12.745  1.00  0.00     0.018 C
HETATM   33  C23 UNL     1       7.151  17.710  10.401  1.00  0.00     0.018 C
ENDBRANCH  29  30
ENDBRANCH  27  28
ENDBRANCH   7  27
TORSDOF 10
ENDMDL