MODEL 4
REMARK VINA RESULT: -6.404483925      2.091      5.573
REMARK  8 active torsions:
REMARK  status: ('A' for Active; 'I' for Inactive)
REMARK    1  A    between atoms: C5_5  and  C6_6
REMARK    2  A    between atoms: C11_13  and  S1_14
REMARK    3  A    between atoms: S1_14  and  N2_17
REMARK    4  A    between atoms: N2_17  and  C12_19
REMARK    5  A    between atoms: C12_19  and  C13_20
REMARK    6  A    between atoms: C12_19  and  C18_25
REMARK    7  A    between atoms: C13_20  and  C14_21
REMARK    8  A    between atoms: C14_21  and  C15_22
REMARK       I    between atoms: C18_25  and  N3_27
ROOT
HETATM    1  S1  UNL     1      18.979   9.942   7.330  1.00  0.00     0.262 S
HETATM    2  O1  UNL     1      20.033  11.046   7.587  1.00  0.00    -0.200 OA
HETATM    3  O2  UNL     1      19.822   8.661   7.229  1.00  0.00    -0.200 OA
ENDROOT
BRANCH   1   4
HETATM    4  C11 UNL     1      18.210  10.290   5.816  1.00  0.00     0.114 A
HETATM    5  C6  UNL     1      16.995   9.676   5.446  1.00  0.00     0.022 A
HETATM    6  C7  UNL     1      16.768  10.061   4.144  1.00  0.00     0.018 A
HETATM    7  C8  UNL     1      15.607   9.584   3.359  1.00  0.00     0.069 C
HETATM    8  N1  UNL     1      17.767  10.862   3.743  1.00  0.00    -0.361 N
HETATM    9  C9  UNL     1      18.664  11.020   4.742  1.00  0.00     0.030 A
ATOM     10  H1  UNL     1      17.839  11.288   2.819  1.00  0.00     0.165 HD
HETATM   11  C10 UNL     1      19.893  11.868   4.667  1.00  0.00     0.070 C
BRANCH   5  12
HETATM   12  C5  UNL     1      16.134   8.875   6.288  1.00  0.00    -0.022 A
HETATM   13  C4  UNL     1      16.300   7.540   6.558  1.00  0.00     0.013 A
HETATM   14  C3  UNL     1      15.347   6.927   7.375  1.00  0.00     0.007 A
HETATM   15  C2  UNL     1      14.282   7.632   7.892  1.00  0.00    -0.062 A
HETATM   16  C1  UNL     1      13.262   6.959   8.768  1.00  0.00     0.048 C
HETATM   17  C22 UNL     1      14.112   8.997   7.618  1.00  0.00     0.007 A
HETATM   18  C21 UNL     1      15.039   9.587   6.823  1.00  0.00     0.013 A
ENDBRANCH   5  12
ENDBRANCH   1   4
BRANCH   1  19
HETATM   19  N2  UNL     1      18.006   9.828   8.675  1.00  0.00    -0.301 N
ATOM     20  H2  UNL     1      17.106   9.349   8.639  1.00  0.00     0.173 HD
BRANCH  19  21
HETATM   21  C12 UNL     1      18.480  10.430   9.887  1.00  0.00     0.185 C
BRANCH  21  22
HETATM   22  C13 UNL     1      17.488  11.148  10.692  1.00  0.00     0.036 C
BRANCH  22  23
HETATM   23  C14 UNL     1      16.094  11.152  10.087  1.00  0.00     0.006 C
BRANCH  23  24
HETATM   24  C15 UNL     1      15.082  10.523  10.973  1.00  0.00    -0.023 C
HETATM   25  C16 UNL     1      13.689  11.003  10.583  1.00  0.00     0.009 C
HETATM   26  C17 UNL     1      15.145   9.062  11.224  1.00  0.00     0.009 C
ENDBRANCH  23  24
ENDBRANCH  22  23
ENDBRANCH  21  22
BRANCH  21  27
HETATM   27  C18 UNL     1      19.248   9.396  10.607  1.00  0.00     0.242 C
HETATM   28  O3  UNL     1      18.663   8.381  11.094  1.00  0.00    -0.271 OA
HETATM   29  N3  UNL     1      20.672   9.432  10.841  1.00  0.00    -0.359 N
HETATM   30  C19 UNL     1      21.549  10.528  10.647  1.00  0.00     0.152 C
HETATM   31  C20 UNL     1      21.274   8.185  11.312  1.00  0.00     0.152 C
ENDBRANCH  21  27
ENDBRANCH  19  21
ENDBRANCH   1  19
TORSDOF 8
ENDMDL