MODEL 2
REMARK VINA RESULT: -7.220306994      3.004      6.064
REMARK  13 active torsions:
REMARK  status: ('A' for Active; 'I' for Inactive)
REMARK    1  A    between atoms: C2_2  and  C3_3
REMARK    2  A    between atoms: C3_3  and  C4_4
REMARK    3  A    between atoms: C4_4  and  C5_5
REMARK    4  A    between atoms: C5_5  and  C6_6
REMARK    5  A    between atoms: C6_6  and  O1_7
REMARK    6  A    between atoms: O1_7  and  C7_8
REMARK    7  A    between atoms: C12_14  and  O3_15
REMARK    8  A    between atoms: C21_26  and  C22_27
REMARK    9  A    between atoms: C22_27  and  O5_28
REMARK   10  A    between atoms: C22_27  and  O6_30
REMARK   11  A    between atoms: C22_27  and  C23_32
REMARK   12  A    between atoms: C23_32  and  C24_33
REMARK   13  A    between atoms: C24_33  and  C25_34
ROOT
HETATM    1  C7  UNL     1      19.907  38.288  22.896  1.00  0.00     0.048 C
HETATM    2  C8  UNL     1      19.605  38.914  24.026  1.00  0.00     0.019 C
HETATM    3  C9  UNL     1      18.527  39.922  24.165  1.00  0.00     0.089 C
HETATM    4  C10 UNL     1      17.747  39.740  25.413  1.00  0.00     0.137 C
HETATM    5  O2  UNL     1      18.049  38.958  26.292  1.00  0.00    -0.297 OA
HETATM    6  C11 UNL     1      16.525  40.564  25.595  1.00  0.00     0.110 C
HETATM    7  C12 UNL     1      16.395  41.478  24.399  1.00  0.00     0.126 C
HETATM    8  C13 UNL     1      16.480  40.771  23.088  1.00  0.00     0.042 C
HETATM    9  C14 UNL     1      17.528  39.692  23.021  1.00  0.00    -0.023 C
HETATM   10  C15 UNL     1      16.828  38.373  23.202  1.00  0.00     0.016 C
HETATM   11  C16 UNL     1      18.356  39.775  21.773  1.00  0.00     0.013 C
HETATM   12  C17 UNL     1      19.177  41.045  21.877  1.00  0.00     0.084 C
HETATM   13  C18 UNL     1      19.365  41.558  20.481  1.00  0.00     0.127 C
HETATM   14  O4  UNL     1      19.378  42.763  20.313  1.00  0.00    -0.298 OA
HETATM   15  C19 UNL     1      19.535  40.668  19.298  1.00  0.00     0.084 C
HETATM   16  C20 UNL     1      20.506  39.589  19.716  1.00  0.00     0.011 C
HETATM   17  C21 UNL     1      21.232  39.014  18.531  1.00  0.00     0.053 C
HETATM   18  C26 UNL     1      21.499  37.570  18.862  1.00  0.00     0.011 C
HETATM   19  C27 UNL     1      21.081  37.443  20.353  1.00  0.00     0.011 C
HETATM   20  C28 UNL     1      19.901  38.395  20.359  1.00  0.00    -0.030 C
HETATM   21  C29 UNL     1      18.937  37.775  19.316  1.00  0.00     0.016 C
HETATM   22  C30 UNL     1      19.195  38.527  21.630  1.00  0.00     0.056 C
ENDROOT
BRANCH  17  23
HETATM   23  C22 UNL     1      22.573  39.662  18.289  1.00  0.00     0.163 C
BRANCH  23  24
HETATM   24  O5  UNL     1      22.587  40.420  17.118  1.00  0.00    -0.365 OA
ATOM     25  H5  UNL     1      23.459  40.490  16.748  1.00  0.00     0.213 HD
ENDBRANCH  23  24
BRANCH  23  26
HETATM   26  O6  UNL     1      23.004  40.465  19.323  1.00  0.00    -0.365 OA
ATOM     27  H6  UNL     1      23.504  41.223  19.043  1.00  0.00     0.213 HD
ENDBRANCH  23  26
BRANCH  23  28
HETATM   28  C23 UNL     1      23.569  38.541  18.052  1.00  0.00     0.079 C
BRANCH  28  29
HETATM   29  C24 UNL     1      24.131  38.590  16.648  1.00  0.00     0.118 C
BRANCH  29  30
HETATM   30  C25 UNL     1      23.948  37.251  16.032  1.00  0.00     0.172 C
HETATM   31  O7  UNL     1      23.863  36.202  16.739  1.00  0.00    -0.648 OA
HETATM   32  O8  UNL     1      23.861  37.083  14.668  1.00  0.00    -0.648 OA
ENDBRANCH  29  30
ENDBRANCH  28  29
ENDBRANCH  23  28
ENDBRANCH  17  23
BRANCH   1  33
HETATM   33  O1  UNL     1      20.938  37.385  22.975  1.00  0.00    -0.355 OA
BRANCH  33  34
HETATM   34  C6  UNL     1      20.879  36.021  23.218  1.00  0.00     0.175 C
BRANCH  34  35
HETATM   35  C5  UNL     1      19.486  35.482  23.436  1.00  0.00     0.027 C
BRANCH  35  36
HETATM   36  C4  UNL     1      19.332  34.157  22.708  1.00  0.00     0.006 C
BRANCH  36  37
HETATM   37  C3  UNL     1      20.301  34.046  21.558  1.00  0.00     0.026 C
BRANCH  37  38
HETATM   38  C2  UNL     1      19.574  33.643  20.334  1.00  0.00    -0.037 C
HETATM   39  C1  UNL     1      19.954  34.071  19.149  1.00  0.00     0.007 C
ENDBRANCH  37  38
ENDBRANCH  36  37
ENDBRANCH  35  36
ENDBRANCH  34  35
ENDBRANCH  33  34
ENDBRANCH   1  33
BRANCH   7  40
HETATM   40  O3  UNL     1      15.117  42.079  24.460  1.00  0.00    -0.395 OA
ATOM     41  H3  UNL     1      15.098  42.632  25.232  1.00  0.00     0.210 HD
ENDBRANCH   7  40
TORSDOF 13
ENDMDL