MODEL 4
REMARK VINA RESULT: -7.428254741      2.124      2.887
REMARK  12 active torsions:
REMARK  status: ('A' for Active; 'I' for Inactive)
REMARK    1  A    between atoms: C5_5  and  O1_6
REMARK    2  A    between atoms: C7_8  and  C8_9
REMARK    3  A    between atoms: C8_9  and  C9_10
REMARK    4  A    between atoms: C10_11  and  C12_13
REMARK    5  A    between atoms: C13_14  and  C14_15
REMARK    6  A    between atoms: C18_19  and  O2_21
REMARK    7  A    between atoms: C20_23  and  C21_24
REMARK       I    between atoms: C21_24  and  N1_26
REMARK    8  A    between atoms: N1_26  and  C22_28
REMARK    9  A    between atoms: C22_28  and  C23_29
REMARK   10  A    between atoms: C22_28  and  C26_36
REMARK   11  A    between atoms: C23_29  and  C24_30
REMARK       I    between atoms: C24_30  and  N2_32
REMARK   12  A    between atoms: N2_32  and  O5_34
ROOT
HETATM    1  C14 UNL     1      20.635  36.961  22.956  1.00  0.00     0.014 C
HETATM    2  C15 UNL     1      20.797  37.825  21.977  1.00  0.00    -0.021 C
HETATM    3  C16 UNL     1      20.236  39.178  21.994  1.00  0.00     0.049 C
HETATM    4  C17 UNL     1      21.208  40.130  21.307  1.00  0.00     0.044 C
HETATM    5  C18 UNL     1      21.230  39.884  19.807  1.00  0.00     0.076 C
HETATM    6  C19 UNL     1      19.851  39.749  19.247  1.00  0.00     0.047 C
HETATM    7  C20 UNL     1      22.173  38.772  19.552  1.00  0.00     0.178 C
HETATM    8  S1  UNL     1      21.743  37.328  20.524  1.00  0.00    -0.117 SA
ENDROOT
BRANCH   1   9
HETATM    9  C13 UNL     1      19.891  37.212  24.164  1.00  0.00     0.002 C
HETATM   10  C12 UNL     1      18.740  36.655  24.390  1.00  0.00     0.006 C
BRANCH  10  11
HETATM   11  C10 UNL     1      17.988  36.915  25.599  1.00  0.00    -0.066 C
HETATM   12  C9  UNL     1      16.753  37.362  25.650  1.00  0.00    -0.019 C
HETATM   13  C11 UNL     1      18.744  36.675  26.891  1.00  0.00     0.048 C
BRANCH  12  14
HETATM   14  C8  UNL     1      15.926  37.626  24.509  1.00  0.00     0.039 C
BRANCH  14  15
HETATM   15  C7  UNL     1      15.538  38.991  24.149  1.00  0.00     0.046 C
HETATM   16  C2  UNL     1      16.100  39.644  22.982  1.00  0.00    -0.082 C
HETATM   17  C1  UNL     1      16.932  39.269  22.071  1.00  0.00     0.015 C
HETATM   18  C3  UNL     1      15.438  41.004  23.015  1.00  0.00     0.036 C
HETATM   19  C4  UNL     1      15.469  41.329  24.491  1.00  0.00     0.037 C
HETATM   20  C5  UNL     1      15.855  40.031  25.217  1.00  0.00     0.129 C
BRANCH  20  21
HETATM   21  O1  UNL     1      15.138  39.824  26.361  1.00  0.00    -0.390 OA
HETATM   22  C6  UNL     1      13.798  40.178  26.253  1.00  0.00     0.202 C
ENDBRANCH  20  21
ENDBRANCH  14  15
ENDBRANCH  12  14
ENDBRANCH  10  11
ENDBRANCH   1   9
BRANCH   7  23
HETATM   23  C21 UNL     1      22.335  38.390  18.125  1.00  0.00     0.235 C
HETATM   24  O3  UNL     1      21.444  38.743  17.283  1.00  0.00    -0.272 OA
HETATM   25  N1  UNL     1      23.438  37.658  17.704  1.00  0.00    -0.345 N
ATOM     26  H1  UNL     1      24.161  37.370  18.363  1.00  0.00     0.163 HD
BRANCH  25  27
HETATM   27  C22 UNL     1      23.528  37.304  16.251  1.00  0.00     0.194 C
BRANCH  27  28
HETATM   28  C23 UNL     1      24.134  35.930  16.254  1.00  0.00     0.141 C
BRANCH  28  29
HETATM   29  C24 UNL     1      23.345  34.861  15.653  1.00  0.00     0.243 C
HETATM   30  O4  UNL     1      23.026  33.836  16.277  1.00  0.00    -0.271 OA
HETATM   31  N2  UNL     1      22.931  35.007  14.304  1.00  0.00    -0.235 N
ATOM     32  H2  UNL     1      23.181  35.841  13.772  1.00  0.00     0.197 HD
BRANCH  31  33
HETATM   33  O5  UNL     1      22.205  34.026  13.739  1.00  0.00    -0.283 OA
HETATM   34  C25 UNL     1      21.515  34.453  12.600  1.00  0.00     0.237 C
ENDBRANCH  31  33
ENDBRANCH  28  29
ENDBRANCH  27  28
BRANCH  27  35
HETATM   35  C26 UNL     1      24.341  38.345  15.600  1.00  0.00     0.197 C
HETATM   36  O6  UNL     1      23.776  39.349  15.106  1.00  0.00    -0.646 OA
HETATM   37  O7  UNL     1      25.695  38.262  15.509  1.00  0.00    -0.646 OA
ENDBRANCH  27  35
ENDBRANCH  25  27
ENDBRANCH   7  23
BRANCH   5  38
HETATM   38  O2  UNL     1      21.812  41.044  19.233  1.00  0.00    -0.389 OA
ATOM     39  H2  UNL     1      22.160  40.769  18.393  1.00  0.00     0.210 HD
ENDBRANCH   5  38
TORSDOF 12
ENDMDL