MODEL 1
REMARK VINA RESULT: -7.841693430      0.000      0.000
REMARK  11 active torsions:
REMARK  status: ('A' for Active; 'I' for Inactive)
REMARK    1  A    between atoms: C2_2  and  C25_37
REMARK    2  A    between atoms: C3_3  and  C4_4
REMARK    3  A    between atoms: C4_4  and  C6_6
REMARK    4  A    between atoms: C6_6  and  C7_7
REMARK    5  A    between atoms: C8_8  and  C9_9
REMARK    6  A    between atoms: C9_9  and  O1_10
REMARK    7  A    between atoms: O1_10  and  C10_11
REMARK    8  A    between atoms: C12_13  and  C13_14
REMARK    9  A    between atoms: C20_25  and  O6_26
REMARK   10  A    between atoms: C21_29  and  O8_30
REMARK   11  A    between atoms: C22_32  and  C24_34
ROOT
HETATM    1  C9  UNL     1      20.610  40.907  23.440  1.00  0.00     0.126 A
HETATM    2  C21 UNL     1      19.891  40.618  24.754  1.00  0.00     0.180 A
HETATM    3  C22 UNL     1      21.340  40.182  24.604  1.00  0.00     0.111 A
HETATM    4  C23 UNL     1      22.431  40.986  25.326  1.00  0.00     0.033 C
ENDROOT
BRANCH   1   5
HETATM    5  C8  UNL     1      20.227  40.026  22.313  1.00  0.00     0.011 C
HETATM    6  C7  UNL     1      21.009  39.749  21.135  1.00  0.00    -0.027 C
BRANCH   6   7
HETATM    7  C6  UNL     1      21.435  40.785  20.178  1.00  0.00     0.035 C
BRANCH   7   8
HETATM    8  C4  UNL     1      21.320  40.283  18.721  1.00  0.00     0.008 C
HETATM    9  C5  UNL     1      19.904  39.884  18.456  1.00  0.00     0.014 C
BRANCH   8  10
HETATM   10  C3  UNL     1      22.314  39.259  18.419  1.00  0.00    -0.020 C
HETATM   11  C2  UNL     1      23.037  39.306  17.309  1.00  0.00    -0.084 C
HETATM   12  C1  UNL     1      22.874  40.401  16.315  1.00  0.00     0.043 C
BRANCH  11  13
HETATM   13  C25 UNL     1      24.063  38.250  16.998  1.00  0.00     0.005 C
HETATM   14  C26 UNL     1      24.452  38.311  15.527  1.00  0.00     0.014 C
HETATM   15  C27 UNL     1      23.566  36.876  17.364  1.00  0.00     0.014 C
ENDBRANCH  11  13
ENDBRANCH   8  10
ENDBRANCH   7   8
ENDBRANCH   6   7
ENDBRANCH   1   5
BRANCH   1  16
HETATM   16  O1  UNL     1      21.150  42.160  23.343  1.00  0.00    -0.361 OA
BRANCH  16  17
HETATM   17  C10 UNL     1      20.610  43.170  22.678  1.00  0.00     0.191 C
HETATM   18  C11 UNL     1      21.574  44.332  22.724  1.00  0.00     0.087 C
HETATM   19  C12 UNL     1      21.152  45.045  23.999  1.00  0.00     0.157 C
HETATM   20  C14 UNL     1      20.751  46.447  23.586  1.00  0.00     0.084 C
HETATM   21  O7  UNL     1      20.024  44.406  24.461  1.00  0.00    -0.328 OA
HETATM   22  C15 UNL     1      19.487  46.396  22.810  1.00  0.00     0.163 C
HETATM   23  O4  UNL     1      19.720  46.989  21.550  1.00  0.00    -0.348 OA
HETATM   24  C19 UNL     1      18.996  45.052  22.449  1.00  0.00     0.219 C
HETATM   25  C16 UNL     1      18.968  46.227  20.657  1.00  0.00     0.158 C
HETATM   26  C17 UNL     1      17.503  46.557  20.843  1.00  0.00     0.078 C
HETATM   27  C18 UNL     1      19.369  46.445  19.241  1.00  0.00     0.078 C
HETATM   28  O5  UNL     1      19.258  44.914  21.104  1.00  0.00    -0.343 OA
HETATM   29  C20 UNL     1      19.423  43.905  23.316  1.00  0.00     0.219 C
BRANCH  19  30
HETATM   30  C13 UNL     1      22.218  45.101  25.004  1.00  0.00     0.209 C
HETATM   31  O2  UNL     1      22.101  45.867  25.973  1.00  0.00    -0.646 OA
HETATM   32  O3  UNL     1      23.339  44.293  24.845  1.00  0.00    -0.646 OA
ENDBRANCH  19  30
BRANCH  29  33
HETATM   33  O6  UNL     1      18.352  43.138  23.627  1.00  0.00    -0.361 OA
ATOM     34  H6  UNL     1      17.502  43.549  23.516  1.00  0.00     0.213 HD
ENDBRANCH  29  33
ENDBRANCH  16  17
ENDBRANCH   1  16
BRANCH   2  35
HETATM   35  O8  UNL     1      19.731  41.475  25.784  1.00  0.00    -0.391 OA
ATOM     36  H8  UNL     1      20.301  41.561  26.539  1.00  0.00     0.210 HD
ENDBRANCH   2  35
BRANCH   3  37
HETATM   37  C24 UNL     1      21.523  38.770  24.700  1.00  0.00     0.187 C
HETATM   38  O9  UNL     1      22.587  38.169  24.445  1.00  0.00    -0.647 OA
HETATM   39  O10 UNL     1      20.471  37.922  25.105  1.00  0.00    -0.647 OA
ENDBRANCH   3  37
TORSDOF 11
ENDMDL