MODEL 4
REMARK VINA RESULT: -7.785359148      2.371      4.084
REMARK  17 active torsions:
REMARK  status: ('A' for Active; 'I' for Inactive)
REMARK    1  A    between atoms: C2_2  and  O1_3
REMARK    2  A    between atoms: O1_3  and  C3_4
REMARK    3  A    between atoms: C3_4  and  O2_5
REMARK    4  A    between atoms: C3_4  and  C4_7
REMARK    5  A    between atoms: C4_7  and  C5_8
REMARK    6  A    between atoms: C5_8  and  C6_9
REMARK    7  A    between atoms: C6_9  and  C8_11
REMARK    8  A    between atoms: C8_11  and  C9_12
REMARK    9  A    between atoms: C9_12  and  O3_13
REMARK   10  A    between atoms: C9_12  and  C10_15
REMARK   11  A    between atoms: C13_18  and  C14_19
REMARK   12  A    between atoms: C19_24  and  C20_25
REMARK   13  A    between atoms: C20_25  and  C21_26
REMARK   14  A    between atoms: C21_26  and  O4_27
REMARK   15  A    between atoms: C24_31  and  O5_32
REMARK   16  A    between atoms: O5_32  and  C25_33
REMARK   17  A    between atoms: C26_36  and  O7_38
ROOT
HETATM    1  C14 UNL     1      18.958  37.219  24.522  1.00  0.00     0.065 C
HETATM    2  C15 UNL     1      18.117  38.437  24.805  1.00  0.00     0.046 C
HETATM    3  C16 UNL     1      18.218  36.064  23.897  1.00  0.00     0.076 C
HETATM    4  C17 UNL     1      17.953  35.745  25.281  1.00  0.00     0.069 A
HETATM    5  C18 UNL     1      16.674  35.678  25.984  1.00  0.00     0.046 A
HETATM    6  C19 UNL     1      17.551  34.492  25.907  1.00  0.00     0.026 A
HETATM    7  O8  UNL     1      19.026  36.493  25.750  1.00  0.00    -0.369 OA
ENDROOT
BRANCH   1   8
HETATM    8  C13 UNL     1      20.352  37.418  24.051  1.00  0.00     0.020 C
HETATM    9  C12 UNL     1      20.596  38.855  23.596  1.00  0.00     0.008 C
HETATM   10  C11 UNL     1      21.002  38.787  22.164  1.00  0.00     0.007 C
HETATM   11  C10 UNL     1      20.670  37.386  21.707  1.00  0.00     0.015 C
HETATM   12  C29 UNL     1      20.812  36.555  22.918  1.00  0.00     0.014 C
BRANCH  11  13
HETATM   13  C9  UNL     1      21.736  37.042  20.635  1.00  0.00     0.122 C
BRANCH  13  14
HETATM   14  C8  UNL     1      22.109  38.305  19.957  1.00  0.00     0.040 C
BRANCH  14  15
HETATM   15  C6  UNL     1      22.099  38.297  18.439  1.00  0.00     0.006 C
HETATM   16  C7  UNL     1      21.074  39.132  17.805  1.00  0.00     0.014 C
BRANCH  15  17
HETATM   17  C5  UNL     1      23.486  38.383  17.997  1.00  0.00    -0.018 C
BRANCH  17  18
HETATM   18  C4  UNL     1      24.164  38.625  16.957  1.00  0.00     0.060 C
BRANCH  18  19
HETATM   19  C3  UNL     1      24.279  38.010  15.684  1.00  0.00     0.177 C
BRANCH  19  20
HETATM   20  O1  UNL     1      23.449  37.110  15.090  1.00  0.00    -0.331 OA
BRANCH  20  21
HETATM   21  C2  UNL     1      23.714  35.731  14.945  1.00  0.00     0.173 C
HETATM   22  C1  UNL     1      24.064  35.027  16.208  1.00  0.00     0.034 C
ENDBRANCH  20  21
ENDBRANCH  19  20
BRANCH  19  23
HETATM   23  O2  UNL     1      25.306  38.314  14.933  1.00  0.00    -0.341 OA
ATOM     24  H2  UNL     1      26.131  38.041  15.318  1.00  0.00     0.220 HD
ENDBRANCH  19  23
ENDBRANCH  18  19
ENDBRANCH  17  18
ENDBRANCH  15  17
ENDBRANCH  14  15
ENDBRANCH  13  14
BRANCH  13  25
HETATM   25  O3  UNL     1      21.126  36.178  19.721  1.00  0.00    -0.395 OA
ATOM     26  H3  UNL     1      20.329  35.821  20.098  1.00  0.00     0.210 HD
ENDBRANCH  13  25
ENDBRANCH  11  13
ENDBRANCH   1   8
BRANCH   6  27
HETATM   27  C20 UNL     1      17.200  33.214  25.314  1.00  0.00     0.050 C
BRANCH  27  28
HETATM   28  C21 UNL     1      18.217  32.166  25.015  1.00  0.00     0.079 C
HETATM   29  C22 UNL     1      17.525  31.217  24.129  1.00  0.00     0.009 C
HETATM   30  C23 UNL     1      17.660  31.184  22.829  1.00  0.00     0.007 C
HETATM   31  C24 UNL     1      18.590  32.185  22.190  1.00  0.00     0.190 C
HETATM   32  C26 UNL     1      19.836  32.111  23.048  1.00  0.00     0.087 C
HETATM   33  C27 UNL     1      20.964  32.919  22.479  1.00  0.00     0.049 C
HETATM   34  C28 UNL     1      19.463  32.651  24.400  1.00  0.00     0.082 C
BRANCH  28  35
HETATM   35  O4  UNL     1      18.515  31.383  26.166  1.00  0.00    -0.386 OA
ATOM     36  H4  UNL     1      19.012  30.606  25.940  1.00  0.00     0.211 HD
ENDBRANCH  28  35
BRANCH  31  37
HETATM   37  O5  UNL     1      18.881  31.798  20.858  1.00  0.00    -0.294 OA
BRANCH  37  38
HETATM   38  C25 UNL     1      18.727  32.601  19.752  1.00  0.00     0.373 C
HETATM   39  N1  UNL     1      19.793  33.280  19.119  1.00  0.00    -0.032 NA
HETATM   40  O6  UNL     1      17.564  32.751  19.258  1.00  0.00    -0.242 OA
ENDBRANCH  37  38
ENDBRANCH  31  37
BRANCH  32  41
HETATM   41  O7  UNL     1      20.277  30.775  23.137  1.00  0.00    -0.387 OA
ATOM     42  H7  UNL     1      20.362  30.524  24.049  1.00  0.00     0.210 HD
ENDBRANCH  32  41
ENDBRANCH  27  28
ENDBRANCH   6  27
TORSDOF 17
ENDMDL