MODEL 3
REMARK VINA RESULT: -8.303327642      2.703      4.165
REMARK  12 active torsions:
REMARK  status: ('A' for Active; 'I' for Inactive)
REMARK    1  A    between atoms: C2_2  and  C3_3
REMARK    2  A    between atoms: C4_4  and  C5_5
REMARK    3  A    between atoms: C6_6  and  C7_7
REMARK    4  A    between atoms: C14_14  and  C15_15
REMARK    5  A    between atoms: C15_15  and  C16_16
REMARK    6  A    between atoms: C16_16  and  C17_17
REMARK    7  A    between atoms: C18_18  and  O1_19
REMARK    8  A    between atoms: O1_19  and  C19_20
REMARK    9  A    between atoms: C21_23  and  O3_24
REMARK   10  A    between atoms: C22_26  and  O4_27
REMARK   11  A    between atoms: C23_29  and  O5_30
REMARK   12  A    between atoms: C28_37  and  C29_38
ROOT
HETATM    1  C5  UNL     1      19.508  36.198  23.049  1.00  0.00     0.079 C
HETATM    2  C6  UNL     1      19.298  35.054  22.094  1.00  0.00     0.005 C
HETATM    3  C10 UNL     1      20.284  35.074  20.960  1.00  0.00     0.007 C
HETATM    4  C11 UNL     1      20.779  36.292  20.394  1.00  0.00     0.011 C
HETATM    5  C12 UNL     1      20.639  37.545  21.183  1.00  0.00    -0.025 C
HETATM    6  C13 UNL     1      21.948  38.297  20.991  1.00  0.00     0.016 C
HETATM    7  C14 UNL     1      19.450  38.357  20.629  1.00  0.00     0.064 C
HETATM    8  C24 UNL     1      18.609  38.630  21.821  1.00  0.00     0.132 C
HETATM    9  O6  UNL     1      17.394  38.740  21.821  1.00  0.00    -0.298 OA
HETATM   10  C25 UNL     1      19.593  38.709  22.882  1.00  0.00     0.090 C
HETATM   11  C26 UNL     1      20.335  37.366  22.645  1.00  0.00    -0.015 C
HETATM   12  C27 UNL     1      21.596  37.579  23.485  1.00  0.00     0.018 C
ENDROOT
BRANCH   7  13
HETATM   13  C15 UNL     1      19.752  39.609  19.925  1.00  0.00     0.017 C
BRANCH  13  14
HETATM   14  C16 UNL     1      20.193  39.502  18.496  1.00  0.00     0.030 C
BRANCH  14  15
HETATM   15  C17 UNL     1      21.442  40.218  18.143  1.00  0.00    -0.003 C
HETATM   16  C18 UNL     1      22.128  40.157  16.879  1.00  0.00     0.134 C
BRANCH  16  17
HETATM   17  O1  UNL     1      22.700  39.032  16.356  1.00  0.00    -0.330 OA
BRANCH  17  18
HETATM   18  C19 UNL     1      23.951  38.740  16.883  1.00  0.00     0.296 C
HETATM   19  O2  UNL     1      23.869  38.032  18.031  1.00  0.00    -0.356 OA
HETATM   20  C20 UNL     1      23.391  36.769  18.018  1.00  0.00     0.205 C
HETATM   21  C21 UNL     1      23.959  35.846  16.950  1.00  0.00     0.173 C
HETATM   22  C22 UNL     1      23.952  36.612  15.603  1.00  0.00     0.182 C
HETATM   23  C23 UNL     1      24.698  37.848  15.843  1.00  0.00     0.205 C
BRANCH  21  24
HETATM   24  O3  UNL     1      23.109  34.743  16.810  1.00  0.00    -0.391 OA
ATOM     25  H3  UNL     1      23.514  33.992  17.226  1.00  0.00     0.210 HD
ENDBRANCH  21  24
BRANCH  22  26
HETATM   26  O4  UNL     1      24.705  35.831  14.683  1.00  0.00    -0.390 OA
ATOM     27  H4  UNL     1      25.429  36.373  14.393  1.00  0.00     0.210 HD
ENDBRANCH  22  26
BRANCH  23  28
HETATM   28  O5  UNL     1      25.021  38.568  14.709  1.00  0.00    -0.388 OA
ATOM     29  H5  UNL     1      25.883  38.960  14.785  1.00  0.00     0.210 HD
ENDBRANCH  23  28
ENDBRANCH  17  18
ENDBRANCH  16  17
ENDBRANCH  14  15
ENDBRANCH  13  14
ENDBRANCH   7  13
BRANCH   1  30
HETATM   30  C4  UNL     1      18.854  36.114  24.307  1.00  0.00    -0.095 C
HETATM   31  C3  UNL     1      18.292  36.043  25.316  1.00  0.00    -0.071 C
BRANCH  31  32
HETATM   32  C2  UNL     1      17.603  35.956  26.584  1.00  0.00    -0.002 C
HETATM   33  C1  UNL     1      18.099  36.168  27.907  1.00  0.00     0.058 C
HETATM   34  C28 UNL     1      16.275  35.683  26.478  1.00  0.00     0.100 C
BRANCH  34  35
HETATM   35  C29 UNL     1      15.360  35.595  27.549  1.00  0.00     0.199 C
HETATM   36  O7  UNL     1      15.034  34.627  28.251  1.00  0.00    -0.644 OA
HETATM   37  O8  UNL     1      14.667  36.846  27.900  1.00  0.00    -0.644 OA
ENDBRANCH  34  35
ENDBRANCH  31  32
ENDBRANCH   1  30
BRANCH   2  38
HETATM   38  C7  UNL     1      19.312  33.705  22.789  1.00  0.00    -0.017 C
HETATM   39  C8  UNL     1      18.272  32.729  22.284  1.00  0.00     0.010 C
HETATM   40  C9  UNL     1      20.631  32.957  22.681  1.00  0.00     0.010 C
ENDBRANCH   2  38
TORSDOF 12
ENDMDL