MODEL 2
REMARK VINA RESULT: -7.250485524      3.026      8.389
REMARK  13 active torsions:
REMARK  status: ('A' for Active; 'I' for Inactive)
REMARK    1  A    between atoms: C2_2  and  C3_3
REMARK    2  A    between atoms: C2_2  and  C15_19
REMARK    3  A    between atoms: C5_5  and  C7_7
REMARK    4  A    between atoms: C9_10  and  C10_11
REMARK    5  A    between atoms: C10_11  and  C11_12
REMARK    6  A    between atoms: C12_13  and  C14_15
REMARK    7  A    between atoms: C14_15  and  O2_16
REMARK    8  A    between atoms: C18_26  and  N2_27
REMARK       I    between atoms: N2_27  and  C19_29
REMARK    9  A    between atoms: C19_29  and  C20_31
REMARK   10  A    between atoms: C20_31  and  C21_32
REMARK   11  A    between atoms: C20_31  and  C23_34
REMARK   12  A    between atoms: C23_34  and  C25_36
REMARK   13  A    between atoms: C29_40  and  O7_41
ROOT
HETATM    1  C15 UNL     1      21.667  38.244  23.498  1.00  0.00     0.194 C
HETATM    2  O4  UNL     1      21.686  37.892  22.139  1.00  0.00    -0.322 OA
HETATM    3  C16 UNL     1      21.031  36.713  21.935  1.00  0.00     0.155 A
HETATM    4  N1  UNL     1      20.951  35.925  20.826  1.00  0.00    -0.302 N
ATOM      5  H1  UNL     1      21.432  36.193  19.968  1.00  0.00     0.171 HD
HETATM    6  C17 UNL     1      20.243  34.811  20.874  1.00  0.00     0.274 A
HETATM    7  O5  UNL     1      20.151  34.057  19.859  1.00  0.00    -0.266 OA
HETATM    8  C18 UNL     1      19.566  34.398  22.027  1.00  0.00     0.104 A
HETATM    9  C27 UNL     1      19.635  35.177  23.155  1.00  0.00     0.049 A
HETATM   10  C28 UNL     1      20.388  36.353  23.082  1.00  0.00     0.027 A
HETATM   11  C29 UNL     1      20.635  37.400  24.109  1.00  0.00     0.189 C
ENDROOT
BRANCH   1  12
HETATM   12  C2  UNL     1      21.358  39.747  23.472  1.00  0.00    -0.029 C
HETATM   13  C1  UNL     1      21.614  40.466  24.420  1.00  0.00     0.019 C
BRANCH  12  14
HETATM   14  C3  UNL     1      20.656  40.131  22.224  1.00  0.00     0.154 C
HETATM   15  C4  UNL     1      19.469  40.975  22.443  1.00  0.00     0.056 C
HETATM   16  C5  UNL     1      19.377  41.750  21.141  1.00  0.00     0.045 C
HETATM   17  C6  UNL     1      18.030  41.437  20.552  1.00  0.00     0.026 C
HETATM   18  C9  UNL     1      20.547  41.277  20.342  1.00  0.00     0.141 C
HETATM   19  O3  UNL     1      21.446  40.703  21.250  1.00  0.00    -0.375 OA
BRANCH  16  20
HETATM   20  C7  UNL     1      19.431  43.215  21.375  1.00  0.00     0.134 C
HETATM   21  C8  UNL     1      20.196  43.674  22.576  1.00  0.00     0.091 C
HETATM   22  O1  UNL     1      18.909  44.055  20.673  1.00  0.00    -0.297 OA
ENDBRANCH  16  20
BRANCH  18  23
HETATM   23  C10 UNL     1      20.173  40.290  19.241  1.00  0.00     0.060 C
BRANCH  23  24
HETATM   24  C11 UNL     1      21.217  40.352  18.197  1.00  0.00    -0.020 C
HETATM   25  C12 UNL     1      22.060  39.447  17.816  1.00  0.00    -0.064 C
HETATM   26  C13 UNL     1      22.999  39.903  16.679  1.00  0.00     0.045 C
BRANCH  25  27
HETATM   27  C14 UNL     1      22.267  38.084  18.285  1.00  0.00     0.197 C
BRANCH  27  28
HETATM   28  O2  UNL     1      22.989  37.892  19.422  1.00  0.00    -0.397 OA
ATOM     29  H2  UNL     1      23.258  37.007  19.644  1.00  0.00     0.209 HD
ENDBRANCH  27  28
ENDBRANCH  25  27
ENDBRANCH  23  24
ENDBRANCH  18  23
ENDBRANCH  12  14
ENDBRANCH   1  12
BRANCH  11  30
HETATM   30  O7  UNL     1      19.482  37.970  24.560  1.00  0.00    -0.388 OA
ATOM     31  H7  UNL     1      19.139  37.724  25.411  1.00  0.00     0.210 HD
ENDBRANCH  11  30
BRANCH   8  32
HETATM   32  N2  UNL     1      18.780  33.215  21.992  1.00  0.00    -0.322 N
HETATM   33  C19 UNL     1      19.144  31.919  22.372  1.00  0.00     0.226 C
HETATM   34  O6  UNL     1      20.259  31.626  22.788  1.00  0.00    -0.273 OA
ATOM     35  H2  UNL     1      17.828  33.324  21.644  1.00  0.00     0.169 HD
BRANCH  33  36
HETATM   36  C20 UNL     1      18.144  30.822  22.278  1.00  0.00     0.081 C
BRANCH  36  37
HETATM   37  C21 UNL     1      17.891  30.368  20.876  1.00  0.00     0.010 C
HETATM   38  C22 UNL     1      16.902  31.141  20.084  1.00  0.00     0.006 C
ENDBRANCH  36  37
BRANCH  36  39
HETATM   39  C23 UNL     1      18.436  29.719  23.245  1.00  0.00    -0.006 C
HETATM   40  C24 UNL     1      18.775  28.420  22.556  1.00  0.00     0.011 C
BRANCH  39  41
HETATM   41  C25 UNL     1      17.274  29.514  24.223  1.00  0.00     0.000 C
HETATM   42  C26 UNL     1      17.188  30.685  25.198  1.00  0.00     0.005 C
ENDBRANCH  39  41
ENDBRANCH  36  39
ENDBRANCH  33  36
ENDBRANCH   8  32
TORSDOF 13
ENDMDL