MODEL 4
REMARK VINA RESULT: -7.120925198      2.031      2.251
REMARK  11 active torsions:
REMARK  status: ('A' for Active; 'I' for Inactive)
REMARK    1  A    between atoms: C2_2  and  C4_4
REMARK    2  A    between atoms: C4_4  and  C5_5
REMARK       I    between atoms: C5_5  and  N1_7
REMARK    3  A    between atoms: N1_7  and  C6_9
REMARK    4  A    between atoms: C6_9  and  C7_10
REMARK    5  A    between atoms: C6_9  and  C18_29
REMARK    6  A    between atoms: C7_10  and  C8_11
REMARK    7  A    between atoms: C7_10  and  N2_13
REMARK       I    between atoms: N2_13  and  C9_15
REMARK    8  A    between atoms: C9_15  and  C10_17
REMARK    9  A    between atoms: C12_20  and  C13_21
REMARK   10  A    between atoms: C18_29  and  O4_30
REMARK   11  A    between atoms: C18_29  and  C19_32
ROOT
HETATM    1  C6  UNL     1      19.687  40.678  22.265  1.00  0.00     0.137 C
ENDROOT
BRANCH   1   2
HETATM    2  N1  UNL     1      18.289  40.431  22.373  1.00  0.00    -0.352 N
HETATM    3  C5  UNL     1      17.617  39.213  22.530  1.00  0.00     0.218 C
HETATM    4  O1  UNL     1      18.208  38.113  22.607  1.00  0.00    -0.274 OA
ATOM      5  H1  UNL     1      17.693  41.257  22.329  1.00  0.00     0.163 HD
BRANCH   3   6
HETATM    6  C4  UNL     1      16.127  39.152  22.616  1.00  0.00     0.106 C
BRANCH   6   7
HETATM    7  C2  UNL     1      15.620  39.466  23.990  1.00  0.00    -0.014 C
HETATM    8  C1  UNL     1      14.777  40.707  23.984  1.00  0.00     0.010 C
HETATM    9  C3  UNL     1      14.762  38.312  24.447  1.00  0.00     0.010 C
ENDBRANCH   6   7
ENDBRANCH   3   6
ENDBRANCH   1   2
BRANCH   1  10
HETATM   10  C7  UNL     1      20.158  41.701  23.244  1.00  0.00     0.120 C
BRANCH  10  11
HETATM   11  C8  UNL     1      19.659  41.483  24.664  1.00  0.00     0.113 C
HETATM   12  S1  UNL     1      20.848  40.785  25.787  1.00  0.00    -0.096 SA
ENDBRANCH  10  11
BRANCH  10  13
HETATM   13  N2  UNL     1      19.945  43.080  22.872  1.00  0.00    -0.348 N
HETATM   14  C9  UNL     1      20.840  44.120  23.237  1.00  0.00     0.269 C
HETATM   15  O2  UNL     1      21.848  43.814  23.915  1.00  0.00    -0.266 OA
ATOM     16  H2  UNL     1      19.118  43.317  22.325  1.00  0.00     0.163 HD
BRANCH  14  17
HETATM   17  C10 UNL     1      20.559  45.522  22.808  1.00  0.00     0.107 A
HETATM   18  C11 UNL     1      20.440  46.549  23.709  1.00  0.00     0.086 A
HETATM   19  S2  UNL     1      20.126  47.878  22.690  1.00  0.00    -0.086 SA
HETATM   20  C12 UNL     1      20.163  47.058  21.194  1.00  0.00     0.055 A
HETATM   21  N3  UNL     1      20.413  45.815  21.547  1.00  0.00    -0.349 N
ATOM     22  H3  UNL     1      20.492  45.086  20.838  1.00  0.00     0.166 HD
BRANCH  20  23
HETATM   23  C13 UNL     1      19.949  47.630  19.810  1.00  0.00     0.047 C
HETATM   24  C14 UNL     1      18.852  48.656  19.961  1.00  0.00     0.037 C
HETATM   25  C15 UNL     1      18.193  49.045  18.677  1.00  0.00     0.168 C
HETATM   26  O3  UNL     1      18.025  47.978  17.824  1.00  0.00    -0.391 OA
HETATM   27  C16 UNL     1      18.048  46.741  18.472  1.00  0.00     0.168 C
HETATM   28  C17 UNL     1      19.447  46.466  18.973  1.00  0.00     0.037 C
ENDBRANCH  20  23
ENDBRANCH  14  17
ENDBRANCH  10  13
ENDBRANCH   1  10
BRANCH   1  29
HETATM   29  C18 UNL     1      20.146  40.849  20.864  1.00  0.00     0.151 C
BRANCH  29  30
HETATM   30  O4  UNL     1      21.387  41.607  21.015  1.00  0.00    -0.393 OA
ATOM     31  H4  UNL     1      21.081  42.474  21.250  1.00  0.00     0.210 HD
ENDBRANCH  29  30
BRANCH  29  32
HETATM   32  C19 UNL     1      20.611  39.675  20.093  1.00  0.00    -0.008 C
HETATM   33  C20 UNL     1      21.327  38.648  21.000  1.00  0.00     0.017 C
HETATM   34  C21 UNL     1      21.360  37.457  20.042  1.00  0.00    -0.013 C
HETATM   35  C22 UNL     1      22.378  37.784  18.984  1.00  0.00     0.009 C
HETATM   36  C26 UNL     1      19.933  37.480  19.540  1.00  0.00     0.010 C
HETATM   37  C23 UNL     1      22.013  39.079  18.298  1.00  0.00    -0.013 C
HETATM   38  C24 UNL     1      20.603  38.947  17.769  1.00  0.00     0.010 C
HETATM   39  C27 UNL     1      21.823  40.218  19.269  1.00  0.00     0.017 C
HETATM   40  C25 UNL     1      19.832  38.968  19.119  1.00  0.00    -0.003 C
ENDBRANCH  29  32
ENDBRANCH   1  29
TORSDOF 11
ENDMDL