MODEL 4
REMARK VINA RESULT: -7.505158739      1.622      2.385
REMARK  14 active torsions:
REMARK  status: ('A' for Active; 'I' for Inactive)
REMARK    1  A    between atoms: O1_2  and  C2_3
REMARK    2  A    between atoms: C2_3  and  C4_5
REMARK    3  A    between atoms: C2_3  and  C12_17
REMARK    4  A    between atoms: C4_5  and  C5_6
REMARK    5  A    between atoms: C5_6  and  C6_7
REMARK    6  A    between atoms: C6_7  and  C7_8
REMARK    7  A    between atoms: C7_8  and  C8_9
REMARK    8  A    between atoms: C8_9  and  C9_10
REMARK    9  A    between atoms: C9_10  and  C10_12
REMARK   10  A    between atoms: C10_12  and  C11_14
REMARK   11  A    between atoms: C11_14  and  O4_15
REMARK   12  A    between atoms: C17_22  and  O5_23
REMARK   13  A    between atoms: C21_28  and  O6_29
REMARK   14  A    between atoms: C23_32  and  O7_33
ROOT
HETATM    1  C12 UNL     1      19.941  39.085  20.651  1.00  0.00     0.028 C
HETATM    2  C13 UNL     1      18.536  38.841  21.228  1.00  0.00     0.009 C
HETATM    3  C14 UNL     1      18.417  39.905  22.268  1.00  0.00     0.006 C
HETATM    4  C15 UNL     1      19.206  41.038  21.556  1.00  0.00     0.001 C
HETATM    5  C16 UNL     1      19.147  42.178  22.467  1.00  0.00     0.024 C
HETATM    6  C17 UNL     1      19.186  43.561  21.902  1.00  0.00     0.127 C
HETATM    7  C18 UNL     1      18.462  44.437  22.966  1.00  0.00     0.067 C
HETATM    8  C19 UNL     1      19.517  44.433  24.063  1.00  0.00    -0.068 C
HETATM    9  C20 UNL     1      20.057  45.568  24.359  1.00  0.00     0.008 C
HETATM   10  C21 UNL     1      21.097  45.746  25.397  1.00  0.00     0.143 C
HETATM   11  C22 UNL     1      21.885  44.450  25.404  1.00  0.00     0.068 C
HETATM   12  C23 UNL     1      20.927  43.279  25.681  1.00  0.00     0.133 C
HETATM   13  C24 UNL     1      19.837  43.142  24.693  1.00  0.00     0.009 C
HETATM   14  C25 UNL     1      18.557  42.903  25.569  1.00  0.00     0.023 C
HETATM   15  C26 UNL     1      19.923  42.002  23.755  1.00  0.00     0.007 C
HETATM   16  C27 UNL     1      21.268  41.486  23.396  1.00  0.00     0.007 C
HETATM   17  C28 UNL     1      21.262  40.257  22.529  1.00  0.00     0.010 C
HETATM   18  C29 UNL     1      20.489  40.305  21.292  1.00  0.00    -0.034 C
HETATM   19  C30 UNL     1      21.336  41.023  20.234  1.00  0.00     0.016 C
ENDROOT
BRANCH   1  20
HETATM   20  C2  UNL     1      20.618  37.810  20.499  1.00  0.00     0.061 C
HETATM   21  C3  UNL     1      19.896  37.026  19.308  1.00  0.00     0.046 C
BRANCH  20  22
HETATM   22  O1  UNL     1      20.291  36.952  21.531  1.00  0.00    -0.385 OA
HETATM   23  C1  UNL     1      20.468  35.637  21.428  1.00  0.00     0.202 C
ENDBRANCH  20  22
BRANCH  20  24
HETATM   24  C4  UNL     1      22.016  37.607  20.156  1.00  0.00     0.038 C
BRANCH  24  25
HETATM   25  C5  UNL     1      22.470  37.402  18.755  1.00  0.00     0.003 C
BRANCH  25  26
HETATM   26  C6  UNL     1      23.574  38.327  18.274  1.00  0.00     0.001 C
BRANCH  26  27
HETATM   27  C7  UNL     1      23.495  38.580  16.807  1.00  0.00     0.008 C
BRANCH  27  28
HETATM   28  C8  UNL     1      24.644  37.939  16.099  1.00  0.00     0.087 C
BRANCH  28  29
HETATM   29  C9  UNL     1      24.259  37.102  14.943  1.00  0.00     0.197 C
HETATM   30  O2  UNL     1      24.349  37.437  13.738  1.00  0.00    -0.289 OA
BRANCH  29  31
HETATM   31  C10 UNL     1      23.719  35.750  15.174  1.00  0.00     0.217 C
HETATM   32  O3  UNL     1      22.865  35.296  14.390  1.00  0.00    -0.287 OA
BRANCH  31  33
HETATM   33  C11 UNL     1      24.154  34.924  16.298  1.00  0.00     0.251 C
BRANCH  33  34
HETATM   34  O4  UNL     1      23.192  33.998  16.663  1.00  0.00    -0.393 OA
ATOM     35  H4  UNL     1      23.040  33.995  17.601  1.00  0.00     0.210 HD
ENDBRANCH  33  34
ENDBRANCH  31  33
ENDBRANCH  29  31
ENDBRANCH  28  29
ENDBRANCH  27  28
ENDBRANCH  26  27
ENDBRANCH  25  26
ENDBRANCH  24  25
ENDBRANCH  20  24
ENDBRANCH   1  20
BRANCH   6  36
HETATM   36  O5  UNL     1      20.432  44.165  21.850  1.00  0.00    -0.395 OA
ATOM     37  H5  UNL     1      20.450  45.062  21.536  1.00  0.00     0.210 HD
ENDBRANCH   6  36
BRANCH  12  38
HETATM   38  O7  UNL     1      20.435  43.592  26.982  1.00  0.00    -0.394 OA
ATOM     39  H7  UNL     1      21.237  43.745  27.469  1.00  0.00     0.210 HD
ENDBRANCH  12  38
BRANCH  10  40
HETATM   40  O6  UNL     1      20.602  46.079  26.627  1.00  0.00    -0.392 OA
ATOM     41  H6  UNL     1      20.990  46.863  26.999  1.00  0.00     0.210 HD
ENDBRANCH  10  40
TORSDOF 14
ENDMDL