MODEL 5
REMARK VINA RESULT: -6.959235757      4.290      7.676
REMARK  12 active torsions:
REMARK  status: ('A' for Active; 'I' for Inactive)
REMARK    1  A    between atoms: C2_2  and  C3_3
REMARK    2  A    between atoms: C3_3  and  N1_4
REMARK    3  A    between atoms: N1_4  and  C4_7
REMARK    4  A    between atoms: C4_7  and  C5_8
REMARK    5  A    between atoms: C5_8  and  C7_10
REMARK    6  A    between atoms: C8_11  and  O1_12
REMARK    7  A    between atoms: C14_19  and  C15_20
REMARK    8  A    between atoms: C15_20  and  C16_21
REMARK    9  A    between atoms: C16_21  and  C17_22
REMARK   10  A    between atoms: C19_24  and  O2_25
REMARK   11  A    between atoms: O2_25  and  S1_26
REMARK   12  A    between atoms: C24_35  and  O7_36
ROOT
HETATM    1  C7  UNL     1      19.584  42.819  22.644  1.00  0.00     0.028 C
HETATM    2  C8  UNL     1      18.347  43.044  21.834  1.00  0.00     0.123 C
HETATM    3  C9  UNL     1      18.339  41.878  20.799  1.00  0.00     0.037 C
HETATM    4  C10 UNL     1      19.001  40.834  21.668  1.00  0.00    -0.003 C
HETATM    5  C11 UNL     1      19.151  39.516  21.060  1.00  0.00     0.015 C
HETATM    6  C12 UNL     1      18.792  38.475  22.089  1.00  0.00    -0.033 A
HETATM    7  C13 UNL     1      17.316  38.561  22.497  1.00  0.00     0.016 C
HETATM    8  C14 UNL     1      19.521  37.271  22.388  1.00  0.00     0.001 A
HETATM    9  C23 UNL     1      19.802  38.517  23.160  1.00  0.00     0.028 A
HETATM   10  C24 UNL     1      21.033  39.322  22.915  1.00  0.00     0.124 C
HETATM   11  C25 UNL     1      20.883  40.787  23.182  1.00  0.00     0.042 C
HETATM   12  C26 UNL     1      20.257  41.586  22.071  1.00  0.00    -0.032 C
HETATM   13  C27 UNL     1      21.148  41.870  20.921  1.00  0.00     0.016 C
ENDROOT
BRANCH   8  14
HETATM   14  C15 UNL     1      20.523  36.609  21.516  1.00  0.00     0.008 C
BRANCH  14  15
HETATM   15  C16 UNL     1      20.431  36.914  20.060  1.00  0.00     0.032 C
BRANCH  15  16
HETATM   16  C17 UNL     1      21.552  37.697  19.485  1.00  0.00     0.124 C
HETATM   17  C18 UNL     1      22.516  36.686  18.857  1.00  0.00     0.065 C
HETATM   18  C19 UNL     1      23.445  37.354  17.870  1.00  0.00     0.150 C
HETATM   19  C20 UNL     1      23.620  38.791  18.306  1.00  0.00     0.065 C
HETATM   20  C21 UNL     1      22.297  39.514  18.390  1.00  0.00     0.120 C
HETATM   21  C22 UNL     1      22.086  40.506  17.294  1.00  0.00     0.039 C
HETATM   22  O6  UNL     1      21.229  38.593  18.503  1.00  0.00    -0.381 OA
BRANCH  18  23
HETATM   23  O2  UNL     1      22.961  37.294  16.581  1.00  0.00    -0.251 OA
BRANCH  23  24
HETATM   24  S1  UNL     1      24.126  36.659  15.579  1.00  0.00     0.251 S
HETATM   25  O3  UNL     1      25.397  37.420  15.587  1.00  0.00    -0.572 OA
HETATM   26  O4  UNL     1      24.391  35.247  16.026  1.00  0.00    -0.572 OA
HETATM   27  O5  UNL     1      23.523  36.654  14.006  1.00  0.00    -0.572 OA
ENDBRANCH  23  24
ENDBRANCH  18  23
ENDBRANCH  15  16
ENDBRANCH  14  15
ENDBRANCH   8  14
BRANCH  10  28
HETATM   28  O7  UNL     1      21.981  38.846  23.863  1.00  0.00    -0.395 OA
ATOM     29  H7  UNL     1      22.816  38.869  23.410  1.00  0.00     0.210 HD
ENDBRANCH  10  28
BRANCH   2  30
HETATM   30  O1  UNL     1      17.159  42.848  22.543  1.00  0.00    -0.395 OA
ATOM     31  H1  UNL     1      16.376  42.903  22.009  1.00  0.00     0.210 HD
ENDBRANCH   2  30
BRANCH   1  32
HETATM   32  C5  UNL     1      20.360  44.007  22.850  1.00  0.00     0.014 C
HETATM   33  C6  UNL     1      20.481  44.520  24.269  1.00  0.00     0.012 C
BRANCH  32  34
HETATM   34  C4  UNL     1      19.862  45.172  22.055  1.00  0.00     0.237 C
BRANCH  34  35
HETATM   35  N1  UNL     1      20.792  46.032  21.431  1.00  0.00    -0.075 N
ATOM     36  H12 UNL     1      21.568  45.547  20.981  1.00  0.00     0.277 HD
ATOM     37  H11 UNL     1      21.358  46.574  22.084  1.00  0.00     0.277 HD
BRANCH  35  38
HETATM   38  C3  UNL     1      19.982  46.860  20.505  1.00  0.00     0.231 C
BRANCH  38  39
HETATM   39  C2  UNL     1      19.106  45.990  19.654  1.00  0.00     0.023 C
HETATM   40  C1  UNL     1      18.432  46.754  18.550  1.00  0.00     0.007 C
ENDBRANCH  38  39
ENDBRANCH  35  38
ENDBRANCH  34  35
ENDBRANCH  32  34
ENDBRANCH   1  32
TORSDOF 12
ENDMDL