MODEL 3
REMARK VINA RESULT: -9.754579052      1.161      2.012
REMARK  5 active torsions:
REMARK  status: ('A' for Active; 'I' for Inactive)
REMARK    1  A    between atoms: C8_8  and  N1_9
REMARK    2  A    between atoms: N1_9  and  C9_11
REMARK    3  A    between atoms: C9_11  and  C10_12
REMARK    4  A    between atoms: C10_12  and  C11_13
REMARK    5  A    between atoms: N2_16  and  C14_17
ROOT
HETATM    1  C11 UNL     1      12.234  17.126 -18.692  1.00  0.00    -0.010 C
HETATM    2  C12 UNL     1      12.563  16.245 -17.530  1.00  0.00     0.024 C
HETATM    3  C13 UNL     1      12.375  14.796 -18.008  1.00  0.00     0.123 C
HETATM    4  N2  UNL     1      11.114  14.811 -18.782  1.00  0.00    -0.381 N
HETATM    5  C23 UNL     1      10.161  15.858 -18.496  1.00  0.00     0.123 C
HETATM    6  C24 UNL     1      10.742  17.231 -18.856  1.00  0.00     0.024 C
ENDROOT
BRANCH   4   7
HETATM    7  C14 UNL     1      10.934  13.798 -19.741  1.00  0.00     0.032 A
HETATM    8  C15 UNL     1      10.683  12.503 -19.373  1.00  0.00     0.030 A
HETATM    9  C16 UNL     1      10.510  11.500 -20.324  1.00  0.00     0.016 A
HETATM   10  C17 UNL     1      10.584  11.771 -21.660  1.00  0.00    -0.008 A
HETATM   11  C18 UNL     1      10.410  10.762 -22.589  1.00  0.00     0.036 A
HETATM   12  C21 UNL     1      10.837  13.076 -22.033  1.00  0.00     0.045 A
HETATM   13  C19 UNL     1      10.493  11.087 -23.912  1.00  0.00     0.050 A
HETATM   14 BR1  UNL     1      10.265   9.751 -25.254  1.00  0.00    -0.048 Br
HETATM   15  C20 UNL     1      10.748  12.400 -24.256  1.00  0.00     0.121 A
HETATM   16 CL1  UNL     1      10.858  12.826 -25.961  1.00  0.00    -0.063 Cl
HETATM   17  N3  UNL     1      10.918  13.380 -23.356  1.00  0.00    -0.345 N
ATOM     18  H3  UNL     1      11.104  14.335 -23.659  1.00  0.00     0.167 HD
HETATM   19  C22 UNL     1      11.010  14.073 -21.095  1.00  0.00     0.059 A
ENDBRANCH   4   7
BRANCH   1  20
HETATM   20  C10 UNL     1      12.927  18.451 -18.677  1.00  0.00     0.024 C
BRANCH  20  21
HETATM   21  C9  UNL     1      14.398  18.360 -18.989  1.00  0.00     0.114 C
BRANCH  21  22
HETATM   22  N1  UNL     1      14.539  17.984 -20.356  1.00  0.00    -0.417 N
ATOM     23  H1  UNL     1      14.192  18.562 -21.122  1.00  0.00     0.153 HD
BRANCH  22  24
HETATM   24  C8  UNL     1      15.211  16.720 -20.577  1.00  0.00     0.080 C
HETATM   25  C2  UNL     1      14.200  15.806 -21.238  1.00  0.00     0.004 C
HETATM   26  C1  UNL     1      13.575  16.542 -22.382  1.00  0.00     0.012 C
HETATM   27  C3  UNL     1      14.698  14.448 -21.552  1.00  0.00     0.006 C
HETATM   28  C4  UNL     1      16.159  14.320 -21.829  1.00  0.00     0.000 C
HETATM   29  C5  UNL     1      17.049  14.732 -20.702  1.00  0.00     0.000 C
HETATM   30  C6  UNL     1      17.593  16.125 -20.983  1.00  0.00     0.002 C
HETATM   31  C7  UNL     1      16.402  16.970 -21.447  1.00  0.00     0.025 C
ENDBRANCH  22  24
ENDBRANCH  21  22
ENDBRANCH  20  21
ENDBRANCH   1  20
TORSDOF 5
ENDMDL