MODEL 1
REMARK VINA RESULT: -11.320617374      0.000      0.000
REMARK  6 active torsions:
REMARK  status: ('A' for Active; 'I' for Inactive)
REMARK    1  A    between atoms: C14_14  and  C15_15
REMARK    2  A    between atoms: C15_15  and  C16_16
REMARK    3  A    between atoms: C16_16  and  O1_17
REMARK    4  A    between atoms: O1_17  and  C17_18
REMARK    5  A    between atoms: C17_18  and  C18_20
REMARK    6  A    between atoms: C19_21  and  C20_22
ROOT
HETATM    1  C1  UNL     1      16.619  12.944 -21.486  1.00  0.00     0.010 C
HETATM    2  C2  UNL     1      16.691  14.483 -21.407  1.00  0.00    -0.013 C
HETATM    3  C3  UNL     1      17.765  14.877 -20.498  1.00  0.00     0.005 C
HETATM    4  C4  UNL     1      17.502  16.001 -19.547  1.00  0.00     0.001 C
HETATM    5  C5  UNL     1      15.997  16.120 -19.239  1.00  0.00     0.014 C
HETATM    6  C6  UNL     1      15.226  16.331 -20.503  1.00  0.00    -0.015 C
HETATM    7  C7  UNL     1      16.059  17.248 -21.433  1.00  0.00     0.020 C
HETATM    8  C8  UNL     1      15.316  14.981 -21.238  1.00  0.00     0.005 C
HETATM    9  C9  UNL     1      14.671  15.170 -22.628  1.00  0.00     0.033 C
HETATM   10  C10 UNL     1      13.332  15.759 -22.506  1.00  0.00    -0.019 C
HETATM   11  C11 UNL     1      12.967  16.493 -21.522  1.00  0.00    -0.058 C
HETATM   12  C12 UNL     1      11.596  17.103 -21.379  1.00  0.00     0.039 C
HETATM   13  C13 UNL     1      10.876  16.639 -20.134  1.00  0.00     0.015 C
HETATM   14  C14 UNL     1      11.794  16.058 -19.150  1.00  0.00    -0.027 C
HETATM   15  C26 UNL     1      11.819  16.431 -17.703  1.00  0.00     0.012 C
HETATM   16  C27 UNL     1      13.363  16.317 -17.871  1.00  0.00     0.015 C
HETATM   17  C28 UNL     1      13.078  16.879 -19.183  1.00  0.00    -0.011 C
HETATM   18  C29 UNL     1      12.668  18.352 -18.877  1.00  0.00     0.021 C
HETATM   19  C30 UNL     1      13.870  16.854 -20.398  1.00  0.00    -0.056 C
ENDROOT
BRANCH  14  20
HETATM   20  C15 UNL     1      11.830  14.581 -19.244  1.00  0.00     0.037 C
BRANCH  20  21
HETATM   21  C16 UNL     1      10.489  13.924 -19.250  1.00  0.00     0.180 C
BRANCH  21  22
HETATM   22  O1  UNL     1      10.487  12.541 -19.072  1.00  0.00    -0.318 OA
BRANCH  22  23
HETATM   23  C17 UNL     1      10.988  11.653 -20.073  1.00  0.00     0.282 C
HETATM   24  O2  UNL     1      12.221  11.523 -20.009  1.00  0.00    -0.260 OA
BRANCH  23  25
HETATM   25  C18 UNL     1      10.030  11.072 -20.958  1.00  0.00     0.083 C
HETATM   26  C19 UNL     1       9.767  11.059 -22.194  1.00  0.00     0.024 C
BRANCH  26  27
HETATM   27  C20 UNL     1      10.334  11.630 -23.368  1.00  0.00     0.041 A
HETATM   28  C21 UNL     1      10.666  12.917 -23.575  1.00  0.00     0.129 A
HETATM   29  F1  UNL     1      10.756  13.862 -22.595  1.00  0.00    -0.205 F
HETATM   30  C22 UNL     1      11.075  13.354 -24.834  1.00  0.00     0.043 A
HETATM   31  C23 UNL     1      11.167  12.515 -25.914  1.00  0.00     0.006 A
HETATM   32  C24 UNL     1      10.833  11.203 -25.701  1.00  0.00     0.043 A
HETATM   33  C25 UNL     1      10.429  10.755 -24.484  1.00  0.00     0.129 A
HETATM   34  F2  UNL     1      10.116   9.438 -24.354  1.00  0.00    -0.205 F
ENDBRANCH  26  27
ENDBRANCH  23  25
ENDBRANCH  22  23
ENDBRANCH  21  22
ENDBRANCH  20  21
ENDBRANCH  14  20
TORSDOF 6
ENDMDL