MODEL 5
REMARK VINA RESULT: -7.321213588      2.051      3.344
REMARK  8 active torsions:
REMARK  status: ('A' for Active; 'I' for Inactive)
REMARK    1  A    between atoms: C2_2  and  C3_3
REMARK    2  A    between atoms: C5_5  and  O1_6
REMARK    3  A    between atoms: C9_11  and  C10_12
REMARK    4  A    between atoms: C16_20  and  C18_22
REMARK    5  A    between atoms: C18_22  and  C19_23
REMARK    6  A    between atoms: C19_23  and  C20_24
REMARK    7  A    between atoms: C20_24  and  O2_25
REMARK    8  A    between atoms: O2_25  and  C21_26
ROOT
HETATM    1  C3  UNL     1      14.969  16.705 -19.790  1.00  0.00     0.004 C
HETATM    2  C4  UNL     1      15.391  17.246 -18.473  1.00  0.00     0.022 C
HETATM    3  C5  UNL     1      14.355  17.852 -20.565  1.00  0.00     0.130 C
HETATM    4  C6  UNL     1      13.455  18.712 -19.732  1.00  0.00     0.033 C
HETATM    5  C7  UNL     1      12.326  18.024 -19.056  1.00  0.00     0.004 C
HETATM    6  C8  UNL     1      11.987  16.802 -19.784  1.00  0.00     0.016 C
HETATM    7  C9  UNL     1      12.714  15.513 -19.401  1.00  0.00     0.006 C
HETATM    8  C12 UNL     1      11.851  14.415 -19.975  1.00  0.00     0.005 C
HETATM    9  C13 UNL     1      11.747  13.170 -19.095  1.00  0.00     0.007 C
HETATM   10  C14 UNL     1      11.050  12.130 -19.947  1.00  0.00     0.021 C
HETATM   11  C15 UNL     1      10.133  12.727 -21.010  1.00  0.00     0.090 C
HETATM   12 CL2  UNL     1       9.142  11.387 -21.575  1.00  0.00    -0.124 Cl
HETATM   13  C16 UNL     1      10.868  13.497 -22.036  1.00  0.00    -0.023 C
HETATM   14  C17 UNL     1      10.039  14.777 -22.254  1.00  0.00     0.017 C
HETATM   15  C23 UNL     1      12.185  13.907 -21.321  1.00  0.00     0.000 C
HETATM   16  C24 UNL     1      13.075  14.758 -22.120  1.00  0.00     0.006 C
HETATM   17  C25 UNL     1      14.313  15.000 -21.299  1.00  0.00     0.007 C
HETATM   18  C26 UNL     1      14.117  15.493 -19.884  1.00  0.00     0.014 C
ENDROOT
BRANCH  13  19
HETATM   19  C18 UNL     1      11.181  12.839 -23.306  1.00  0.00     0.013 C
BRANCH  19  20
HETATM   20  C19 UNL     1      11.156  13.560 -24.590  1.00  0.00     0.028 C
BRANCH  20  21
HETATM   21  C20 UNL     1      10.463  12.590 -25.591  1.00  0.00     0.178 C
BRANCH  21  22
HETATM   22  O2  UNL     1      11.302  11.538 -25.967  1.00  0.00    -0.322 OA
BRANCH  22  23
HETATM   23  C21 UNL     1      11.120  10.206 -25.706  1.00  0.00     0.254 C
HETATM   24  C22 UNL     1      10.330   9.742 -24.511  1.00  0.00     0.126 C
HETATM   25  O3  UNL     1      11.609   9.332 -26.457  1.00  0.00    -0.266 OA
ENDBRANCH  22  23
ENDBRANCH  21  22
ENDBRANCH  20  21
ENDBRANCH  19  20
ENDBRANCH  13  19
BRANCH   7  26
HETATM   26  C10 UNL     1      12.532  15.378 -17.935  1.00  0.00     0.012 C
HETATM   27  C11 UNL     1      13.340  14.889 -17.031  1.00  0.00     0.033 C
HETATM   28 CL1  UNL     1      10.948  15.910 -17.302  1.00  0.00    -0.089 Cl
ENDBRANCH   7  26
BRANCH   1  29
HETATM   29  C2  UNL     1      16.290  16.281 -20.366  1.00  0.00    -0.025 C
HETATM   30  C1  UNL     1      17.342  15.906 -19.695  1.00  0.00     0.008 C
ENDBRANCH   1  29
BRANCH   3  31
HETATM   31  O1  UNL     1      15.278  18.718 -21.140  1.00  0.00    -0.394 OA
ATOM     32  H1  UNL     1      15.279  18.718 -22.091  1.00  0.00     0.210 HD
ENDBRANCH   3  31
TORSDOF 8
ENDMDL