MODEL 5
REMARK VINA RESULT: -7.735196127      0.608      1.155
REMARK  6 active torsions:
REMARK  status: ('A' for Active; 'I' for Inactive)
REMARK    1  A    between atoms: C2_2  and  C3_3
REMARK    2  A    between atoms: C3_3  and  C4_4
REMARK    3  A    between atoms: C7_7  and  C8_8
REMARK    4  A    between atoms: C8_8  and  N1_9
REMARK    5  A    between atoms: C9_12  and  C10_13
REMARK    6  A    between atoms: C26_31  and  O1_32
ROOT
HETATM    1  N1  UNL     1      10.945  13.303 -20.243  1.00  0.00    -0.291 N
HETATM    2  N2  UNL     1      10.462  14.518 -20.120  1.00  0.00    -0.293 N
ATOM      3  H2  UNL     1       9.484  14.765 -20.279  1.00  0.00     0.187 HD
HETATM    4  C9  UNL     1      11.431  15.411 -19.752  1.00  0.00     0.125 A
HETATM    5  C11 UNL     1      12.582  14.698 -19.644  1.00  0.00     0.008 A
HETATM    6  C12 UNL     1      12.251  13.367 -19.958  1.00  0.00     0.038 A
HETATM    7  C13 UNL     1      13.308  12.301 -19.905  1.00  0.00     0.060 C
HETATM    8  C14 UNL     1      14.589  12.748 -20.494  1.00  0.00     0.012 C
HETATM    9  C15 UNL     1      14.842  14.237 -20.375  1.00  0.00     0.004 C
HETATM   10  C16 UNL     1      16.291  14.420 -20.211  1.00  0.00     0.003 C
HETATM   11  C17 UNL     1      16.775  15.264 -19.095  1.00  0.00    -0.001 C
HETATM   12  C18 UNL     1      15.902  16.362 -18.666  1.00  0.00     0.007 C
HETATM   13  C19 UNL     1      14.480  16.306 -19.195  1.00  0.00     0.015 C
HETATM   14  C20 UNL     1      13.995  14.917 -19.323  1.00  0.00    -0.008 C
HETATM   15  C21 UNL     1      14.280  14.229 -18.002  1.00  0.00     0.021 C
HETATM   16  C22 UNL     1      17.948  15.608 -19.984  1.00  0.00    -0.034 C
HETATM   17  C23 UNL     1      18.586  16.907 -19.875  1.00  0.00     0.016 C
HETATM   18  C24 UNL     1      18.933  14.460 -20.049  1.00  0.00     0.012 C
HETATM   19  C25 UNL     1      18.873  13.893 -21.431  1.00  0.00     0.033 C
HETATM   20  C26 UNL     1      17.865  14.683 -22.206  1.00  0.00     0.123 C
HETATM   21  C27 UNL     1      17.007  15.374 -21.163  1.00  0.00     0.028 C
ENDROOT
BRANCH   1  22
HETATM   22  C8  UNL     1      10.189  12.130 -20.645  1.00  0.00     0.187 C
BRANCH  22  23
HETATM   23  C7  UNL     1      10.251  11.831 -22.066  1.00  0.00    -0.038 A
HETATM   24  C6  UNL     1      10.390  12.818 -22.999  1.00  0.00     0.009 A
HETATM   25  C5  UNL     1      10.444  12.521 -24.345  1.00  0.00     0.007 A
HETATM   26  C4  UNL     1      10.358  11.214 -24.726  1.00  0.00    -0.058 A
HETATM   27  C29 UNL     1      10.218  10.203 -23.822  1.00  0.00     0.007 A
HETATM   28  C28 UNL     1      10.166  10.514 -22.482  1.00  0.00     0.009 A
BRANCH  26  29
HETATM   29  C3  UNL     1      10.417  10.908 -26.177  1.00  0.00     0.038 C
BRANCH  29  30
HETATM   30  C2  UNL     1      11.223  12.018 -26.831  1.00  0.00     0.000 C
HETATM   31  C1  UNL     1      11.112  11.988 -28.340  1.00  0.00     0.005 C
ENDBRANCH  29  30
ENDBRANCH  26  29
ENDBRANCH  22  23
ENDBRANCH   1  22
BRANCH   4  32
HETATM   32  C10 UNL     1      11.215  16.848 -19.501  1.00  0.00     0.295 C
HETATM   33  F1  UNL     1      11.263  17.645 -20.629  1.00  0.00    -0.170 F
HETATM   34  F2  UNL     1      10.288  17.184 -18.575  1.00  0.00    -0.170 F
ENDBRANCH   4  32
BRANCH  20  35
HETATM   35  O1  UNL     1      17.130  13.869 -23.039  1.00  0.00    -0.395 OA
ATOM     36  H1  UNL     1      16.800  14.353 -23.787  1.00  0.00     0.210 HD
ENDBRANCH  20  35
TORSDOF 6
ENDMDL