MODEL 3
REMARK VINA RESULT: -8.287064500      2.575      8.719
REMARK  5 active torsions:
REMARK  status: ('A' for Active; 'I' for Inactive)
REMARK    1  A    between atoms: C5_6  and  C6_7
REMARK    2  A    between atoms: N2_17  and  C13_18
REMARK    3  A    between atoms: N3_21  and  C16_22
REMARK    4  A    between atoms: C16_22  and  C17_23
REMARK    5  A    between atoms: C17_23  and  C18_24
ROOT
HETATM    1 CL1  UNL     1      17.031  16.205 -20.392  1.00  0.00    -0.082 Cl
HETATM    2  C1  UNL     1      15.572  15.777 -21.214  1.00  0.00     0.058 A
HETATM    3  C2  UNL     1      15.645  15.236 -22.485  1.00  0.00     0.026 A
HETATM    4  C3  UNL     1      14.463  14.909 -23.103  1.00  0.00     0.016 A
HETATM    5  C4  UNL     1      13.260  15.121 -22.462  1.00  0.00     0.004 A
HETATM    6  C5  UNL     1      12.003  14.868 -22.900  1.00  0.00    -0.007 A
HETATM    7  C12 UNL     1      11.182  15.266 -21.872  1.00  0.00     0.109 A
HETATM    8  N2  UNL     1      11.872  15.761 -20.803  1.00  0.00    -0.327 N
HETATM    9  C26 UNL     1      13.165  15.667 -21.177  1.00  0.00     0.073 A
HETATM   10  C27 UNL     1      14.359  15.985 -20.580  1.00  0.00     0.083 A
HETATM   11 CL2  UNL     1      14.382  16.663 -18.984  1.00  0.00    -0.080 Cl
ENDROOT
BRANCH   8  12
HETATM   12  C13 UNL     1      11.334  16.283 -19.539  1.00  0.00    -0.003 C
HETATM   13  C14 UNL     1      10.846  17.656 -19.483  1.00  0.00     0.072 C
HETATM   14  C15 UNL     1      11.092  18.200 -18.051  1.00  0.00     0.122 C
HETATM   15  N3  UNL     1      10.646  17.277 -17.046  1.00  0.00    -0.412 N
HETATM   16  C24 UNL     1      11.232  15.966 -17.119  1.00  0.00     0.122 C
HETATM   17  C25 UNL     1      10.979  15.305 -18.498  1.00  0.00     0.072 C
BRANCH  15  18
HETATM   18  C16 UNL     1       9.252  17.311 -16.746  1.00  0.00     0.117 C
BRANCH  18  19
HETATM   19  C17 UNL     1       8.960  17.386 -15.269  1.00  0.00     0.024 C
BRANCH  19  20
HETATM   20  C18 UNL     1       7.812  16.536 -14.835  1.00  0.00    -0.013 C
HETATM   21  C19 UNL     1       6.501  17.141 -15.316  1.00  0.00     0.005 C
HETATM   22  C20 UNL     1       5.702  17.734 -14.200  1.00  0.00     0.000 C
HETATM   23  C21 UNL     1       6.567  18.491 -13.213  1.00  0.00     0.000 C
HETATM   24  C22 UNL     1       7.640  17.616 -12.603  1.00  0.00     0.000 C
HETATM   25  C23 UNL     1       7.774  16.308 -13.361  1.00  0.00     0.005 C
ENDBRANCH  19  20
ENDBRANCH  18  19
ENDBRANCH  15  18
ENDBRANCH   8  12
BRANCH   6  26
HETATM   26  C6  UNL     1      11.646  14.316 -24.199  1.00  0.00     0.018 C
HETATM   27  C7  UNL     1      11.073  13.160 -24.428  1.00  0.00    -0.054 C
HETATM   28  C8  UNL     1      10.791  12.791 -25.844  1.00  0.00     0.037 C
HETATM   29  C11 UNL     1      10.689  12.199 -23.375  1.00  0.00     0.266 C
HETATM   30  C9  UNL     1      10.986  11.329 -26.068  1.00  0.00     0.032 C
HETATM   31  C10 UNL     1      10.370  10.458 -24.998  1.00  0.00     0.233 C
HETATM   32  N1  UNL     1      10.946  10.812 -23.720  1.00  0.00    -0.072 N
ATOM     33  H12 UNL     1      10.629  10.181 -22.984  1.00  0.00     0.277 HD
ATOM     34  H11 UNL     1      11.944  10.601 -23.693  1.00  0.00     0.277 HD
ENDBRANCH   6  26
TORSDOF 5
ENDMDL