MODEL 5
REMARK VINA RESULT: -8.776242099      3.974      7.194
REMARK  6 active torsions:
REMARK  status: ('A' for Active; 'I' for Inactive)
REMARK    1  A    between atoms: C2_2  and  C4_4
REMARK    2  A    between atoms: C8_8  and  C9_9
REMARK    3  A    between atoms: C10_10  and  C11_11
REMARK    4  A    between atoms: C18_22  and  C19_23
REMARK    5  A    between atoms: C19_23  and  C20_24
REMARK    6  A    between atoms: C20_24  and  N2_25
ROOT
HETATM    1  N2  UNL     1      10.141  13.815 -19.729  1.00  0.00    -0.302 N
HETATM    2  C21 UNL     1       9.424  14.839 -19.227  1.00  0.00     0.134 A
HETATM    3  C22 UNL     1      10.105  15.408 -18.171  1.00  0.00     0.078 A
HETATM    4  C23 UNL     1       9.701  16.517 -17.358  1.00  0.00     0.102 C
HETATM    5  N3  UNL     1       9.365  17.419 -16.718  1.00  0.00    -0.191 NA
HETATM    6  C24 UNL     1      11.267  14.687 -18.053  1.00  0.00     0.131 A
HETATM    7  N4  UNL     1      11.241  13.756 -18.999  1.00  0.00    -0.309 N
ATOM      8  H4  UNL     1      11.985  13.073 -19.145  1.00  0.00     0.186 HD
ENDROOT
BRANCH   1   9
HETATM    9  C20 UNL     1       9.750  12.961 -20.860  1.00  0.00     0.153 C
BRANCH   9  10
HETATM   10  C19 UNL     1      11.036  12.552 -21.536  1.00  0.00     0.063 C
BRANCH  10  11
HETATM   11  C18 UNL     1      11.079  12.857 -22.966  1.00  0.00    -0.017 A
HETATM   12  C11 UNL     1      11.351  14.110 -23.531  1.00  0.00     0.039 A
HETATM   13  N1  UNL     1      11.282  13.914 -24.857  1.00  0.00    -0.353 N
HETATM   14  C12 UNL     1      10.991  12.646 -25.179  1.00  0.00     0.083 A
ATOM     15  H1  UNL     1      11.434  14.651 -25.546  1.00  0.00     0.166 HD
HETATM   16  C13 UNL     1      10.824  12.002 -26.403  1.00  0.00     0.146 A
HETATM   17  C17 UNL     1      10.860  11.967 -23.987  1.00  0.00     0.005 A
HETATM   18  F1  UNL     1      10.958  12.695 -27.550  1.00  0.00    -0.204 F
HETATM   19  C14 UNL     1      10.524  10.677 -26.443  1.00  0.00     0.086 A
HETATM   20  C15 UNL     1      10.388   9.972 -25.271  1.00  0.00     0.120 A
HETATM   21  F2  UNL     1      10.085   8.629 -25.295  1.00  0.00    -0.206 F
HETATM   22  C16 UNL     1      10.558  10.627 -24.071  1.00  0.00     0.056 A
BRANCH  12  23
HETATM   23  C10 UNL     1      11.643  15.338 -22.809  1.00  0.00     0.026 C
HETATM   24  C9  UNL     1      12.855  15.606 -22.411  1.00  0.00    -0.019 C
BRANCH  24  25
HETATM   25  C8  UNL     1      13.228  16.828 -21.675  1.00  0.00     0.017 C
HETATM   26  C7  UNL     1      13.168  16.596 -20.204  1.00  0.00     0.006 C
HETATM   27  C6  UNL     1      14.237  15.694 -19.686  1.00  0.00     0.007 C
HETATM   28  C28 UNL     1      13.370  17.884 -19.415  1.00  0.00    -0.018 C
HETATM   29  C5  UNL     1      14.533  16.076 -18.264  1.00  0.00     0.006 C
HETATM   30  C4  UNL     1      13.777  17.374 -18.091  1.00  0.00     0.001 C
HETATM   31  C27 UNL     1      14.296  18.798 -20.097  1.00  0.00    -0.021 C
HETATM   32  C29 UNL     1      12.011  18.566 -19.266  1.00  0.00     0.020 C
HETATM   33  C26 UNL     1      14.846  18.579 -21.283  1.00  0.00    -0.029 C
HETATM   34  C25 UNL     1      14.585  17.352 -22.088  1.00  0.00     0.035 C
BRANCH  30  35
HETATM   35  C2  UNL     1      14.445  18.312 -17.154  1.00  0.00    -0.018 C
HETATM   36  C1  UNL     1      15.919  18.359 -17.599  1.00  0.00     0.010 C
HETATM   37  C3  UNL     1      13.940  19.711 -17.167  1.00  0.00     0.010 C
ENDBRANCH  30  35
ENDBRANCH  24  25
ENDBRANCH  12  23
ENDBRANCH  10  11
ENDBRANCH   9  10
ENDBRANCH   1   9
TORSDOF 6
ENDMDL