MODEL 3
REMARK VINA RESULT: -9.494027784      0.632      1.209
REMARK  6 active torsions:
REMARK  status: ('A' for Active; 'I' for Inactive)
REMARK    1  A    between atoms: C2_2  and  C3_3
REMARK    2  A    between atoms: C8_8  and  O1_9
REMARK    3  A    between atoms: O1_9  and  C9_10
REMARK    4  A    between atoms: C9_10  and  O2_11
REMARK    5  A    between atoms: C9_10  and  C10_13
REMARK    6  A    between atoms: C9_10  and  C16_21
ROOT
HETATM    1  C9  UNL     1      13.389  16.764 -20.166  1.00  0.00     0.237 C
ENDROOT
BRANCH   1   2
HETATM    2  O1  UNL     1      14.409  16.038 -19.623  1.00  0.00    -0.341 OA
BRANCH   2   3
HETATM    3  C8  UNL     1      15.091  15.179 -20.470  1.00  0.00     0.127 C
HETATM    4  C7  UNL     1      15.000  13.739 -19.986  1.00  0.00     0.032 C
HETATM    5  C6  UNL     1      15.781  12.760 -20.798  1.00  0.00     0.004 C
HETATM    6  C5  UNL     1      16.595  13.520 -21.822  1.00  0.00     0.013 C
HETATM    7  C3  UNL     1      17.440  14.517 -21.070  1.00  0.00    -0.025 C
HETATM    8  C4  UNL     1      18.488  15.155 -21.963  1.00  0.00     0.019 C
HETATM    9  C29 UNL     1      16.545  15.546 -20.420  1.00  0.00     0.045 C
BRANCH   7  10
HETATM   10  C2  UNL     1      18.174  13.782 -20.005  1.00  0.00    -0.028 C
HETATM   11  C1  UNL     1      19.480  13.568 -20.061  1.00  0.00     0.007 C
ENDBRANCH   7  10
ENDBRANCH   2   3
ENDBRANCH   1   2
BRANCH   1  12
HETATM   12  O2  UNL     1      13.892  18.020 -20.519  1.00  0.00    -0.357 OA
ATOM     13  H2  UNL     1      13.249  18.449 -21.072  1.00  0.00     0.214 HD
ENDBRANCH   1  12
BRANCH   1  14
HETATM   14  C10 UNL     1      12.268  17.043 -19.212  1.00  0.00     0.013 A
HETATM   15  C11 UNL     1      11.514  18.218 -19.312  1.00  0.00     0.016 A
HETATM   16  C12 UNL     1      10.471  18.490 -18.457  1.00  0.00     0.046 A
HETATM   17  C13 UNL     1      10.195  17.550 -17.488  1.00  0.00     0.154 A
HETATM   18  F1  UNL     1       9.176  17.799 -16.639  1.00  0.00    -0.203 F
HETATM   19  C14 UNL     1      10.933  16.375 -17.374  1.00  0.00     0.155 A
HETATM   20  F2  UNL     1      10.634  15.458 -16.398  1.00  0.00    -0.203 F
HETATM   21  C15 UNL     1      11.975  16.117 -18.236  1.00  0.00     0.058 A
ENDBRANCH   1  14
BRANCH   1  22
HETATM   22  C16 UNL     1      12.897  16.031 -21.356  1.00  0.00     0.083 A
HETATM   23  N1  UNL     1      12.049  14.999 -21.263  1.00  0.00    -0.357 N
HETATM   24  C17 UNL     1      11.553  14.288 -22.284  1.00  0.00     0.020 A
ATOM     25  H1  UNL     1      11.753  14.729 -20.324  1.00  0.00     0.166 HD
HETATM   26  C18 UNL     1      11.932  14.629 -23.558  1.00  0.00    -0.034 A
HETATM   27  C28 UNL     1      10.618  13.137 -22.404  1.00  0.00     0.040 C
HETATM   28  C19 UNL     1      12.804  15.684 -23.733  1.00  0.00     0.018 A
HETATM   29  C22 UNL     1      11.271  13.706 -24.552  1.00  0.00     0.046 C
HETATM   30  C20 UNL     1      13.288  16.389 -22.616  1.00  0.00    -0.033 A
HETATM   31  C21 UNL     1      14.218  17.514 -22.801  1.00  0.00     0.050 C
HETATM   32  C23 UNL     1      11.144  12.465 -23.653  1.00  0.00    -0.000 C
HETATM   33  C24 UNL     1      10.127  11.493 -24.146  1.00  0.00     0.005 C
HETATM   34  C25 UNL     1       9.644  10.693 -22.938  1.00  0.00     0.000 C
HETATM   35  C26 UNL     1      10.616  10.792 -21.779  1.00  0.00     0.001 C
HETATM   36  C27 UNL     1      10.637  12.221 -21.218  1.00  0.00     0.011 C
ENDBRANCH   1  22
TORSDOF 6
ENDMDL