MODEL 1
REMARK VINA RESULT: -8.959924113      0.000      0.000
REMARK  5 active torsions:
REMARK  status: ('A' for Active; 'I' for Inactive)
REMARK    1  A    between atoms: C16_17  and  C17_18
REMARK       I    between atoms: C17_18  and  N2_20
REMARK    2  A    between atoms: N2_20  and  C19_22
REMARK    3  A    between atoms: C19_22  and  C20_23
REMARK    4  A    between atoms: C20_23  and  N3_24
REMARK    5  A    between atoms: N3_24  and  C21_26
ROOT
HETATM    1  C1  UNL     1      15.366  11.001 -19.611  1.00  0.00     0.309 C
HETATM    2  N1  UNL     1      14.725  12.297 -19.400  1.00  0.00     0.084 N
HETATM    3  C2  UNL     1      13.436  12.166 -18.822  1.00  0.00     0.271 C
HETATM    4  C3  UNL     1      12.319  12.815 -19.548  1.00  0.00     0.030 C
HETATM    5  C4  UNL     1      11.007  12.269 -19.060  1.00  0.00     0.002 C
HETATM    6  C5  UNL     1      10.651  10.942 -19.659  1.00  0.00     0.000 C
HETATM    7  C6  UNL     1      10.470  10.971 -21.146  1.00  0.00     0.000 C
HETATM    8  C7  UNL     1       9.314  11.779 -21.605  1.00  0.00     0.000 C
HETATM    9  C8  UNL     1       9.658  13.050 -22.314  1.00  0.00     0.000 C
HETATM   10  C9  UNL     1      10.473  12.881 -23.541  1.00  0.00     0.000 C
HETATM   11  C10 UNL     1      10.991  14.236 -23.979  1.00  0.00     0.000 C
HETATM   12  C11 UNL     1      12.273  14.529 -23.229  1.00  0.00     0.000 C
HETATM   13  C12 UNL     1      13.241  15.365 -24.045  1.00  0.00     0.000 C
HETATM   14  C13 UNL     1      13.696  16.597 -23.346  1.00  0.00     0.000 C
HETATM   15  C14 UNL     1      14.563  16.420 -22.156  1.00  0.00     0.001 C
HETATM   16  C15 UNL     1      15.734  15.512 -22.392  1.00  0.00     0.014 C
HETATM   17  C16 UNL     1      16.388  14.969 -21.182  1.00  0.00     0.080 C
HETATM   18  C27 UNL     1      16.165  13.497 -20.948  1.00  0.00     0.044 C
HETATM   19  C28 UNL     1      14.774  13.091 -20.608  1.00  0.00     0.272 C
ENDROOT
BRANCH  17  20
HETATM   20  C17 UNL     1      16.215  15.738 -19.935  1.00  0.00     0.223 C
HETATM   21  O1  UNL     1      17.295  16.077 -19.356  1.00  0.00    -0.273 OA
HETATM   22  N2  UNL     1      15.015  16.128 -19.327  1.00  0.00    -0.355 N
HETATM   23  C18 UNL     1      15.036  16.860 -18.078  1.00  0.00     0.152 C
BRANCH  22  24
HETATM   24  C19 UNL     1      13.727  15.849 -19.909  1.00  0.00     0.145 C
BRANCH  24  25
HETATM   25  C20 UNL     1      12.658  16.825 -19.477  1.00  0.00     0.139 C
BRANCH  25  26
HETATM   26  N3  UNL     1      11.375  16.185 -19.585  1.00  0.00    -0.386 N
ATOM     27  H3  UNL     1      11.168  15.627 -20.414  1.00  0.00     0.159 HD
BRANCH  26  28
HETATM   28  C21 UNL     1      10.383  16.306 -18.567  1.00  0.00     0.067 A
HETATM   29  C22 UNL     1      10.546  17.160 -17.512  1.00  0.00     0.035 A
HETATM   30  C23 UNL     1       9.577  17.268 -16.532  1.00  0.00     0.044 A
HETATM   31  C24 UNL     1       8.425  16.528 -16.588  1.00  0.00     0.119 A
HETATM   32  F1  UNL     1       7.471  16.637 -15.619  1.00  0.00    -0.206 F
HETATM   33  C25 UNL     1       8.261  15.666 -17.653  1.00  0.00     0.086 A
HETATM   34  C26 UNL     1       9.242  15.557 -18.643  1.00  0.00     0.145 A
HETATM   35  F2  UNL     1       9.034  14.702 -19.664  1.00  0.00    -0.204 F
ENDBRANCH  26  28
ENDBRANCH  25  26
ENDBRANCH  24  25
ENDBRANCH  22  24
ENDBRANCH  17  20
TORSDOF 5
ENDMDL