MODEL 5
REMARK VINA RESULT: -8.015638084      1.287      1.641
REMARK  7 active torsions:
REMARK  status: ('A' for Active; 'I' for Inactive)
REMARK    1  A    between atoms: C3_4  and  C4_5
REMARK    2  A    between atoms: C4_5  and  O2_7
REMARK    3  A    between atoms: O2_7  and  C5_8
REMARK    4  A    between atoms: C14_17  and  C15_18
REMARK    5  A    between atoms: C15_18  and  C16_19
REMARK    6  A    between atoms: C16_19  and  C17_20
REMARK    7  A    between atoms: C25_29  and  O3_31
ROOT
HETATM    1  C5  UNL     1      14.568  17.033 -20.154  1.00  0.00     0.166 C
HETATM    2  C6  UNL     1      14.043  17.991 -19.155  1.00  0.00     0.036 C
HETATM    3  C7  UNL     1      13.072  17.459 -18.157  1.00  0.00     0.008 C
HETATM    4  C8  UNL     1      12.236  16.431 -18.821  1.00  0.00    -0.003 C
HETATM    5  C9  UNL     1      11.074  16.099 -17.947  1.00  0.00     0.006 C
HETATM    6  C10 UNL     1      10.103  15.415 -18.928  1.00  0.00     0.006 C
HETATM    7  C11 UNL     1      10.749  14.085 -19.142  1.00  0.00    -0.005 C
HETATM    8  C12 UNL     1       9.802  13.215 -19.890  1.00  0.00    -0.001 C
HETATM    9  C13 UNL     1       9.761  13.298 -21.370  1.00  0.00     0.011 C
HETATM   10  C14 UNL     1      10.488  11.957 -21.465  1.00  0.00    -0.006 C
HETATM   11  C18 UNL     1      10.371  11.832 -19.997  1.00  0.00    -0.036 C
HETATM   12  C19 UNL     1       9.330  10.826 -19.494  1.00  0.00     0.016 C
HETATM   13  C20 UNL     1      11.596  11.697 -19.182  1.00  0.00     0.010 C
HETATM   14  C21 UNL     1      12.682  12.715 -19.459  1.00  0.00     0.007 C
HETATM   15  C22 UNL     1      12.127  14.104 -19.719  1.00  0.00     0.001 C
HETATM   16  C23 UNL     1      13.004  15.224 -19.317  1.00  0.00    -0.003 C
HETATM   17  C24 UNL     1      14.037  14.780 -18.291  1.00  0.00     0.019 C
HETATM   18  C25 UNL     1      13.806  15.819 -20.478  1.00  0.00     0.089 C
HETATM   19  C26 UNL     1      14.725  14.856 -21.152  1.00  0.00     0.049 C
ENDROOT
BRANCH   1  20
HETATM   20  O2  UNL     1      15.920  16.755 -19.805  1.00  0.00    -0.310 OA
BRANCH  20  21
HETATM   21  C4  UNL     1      16.910  16.400 -20.677  1.00  0.00     0.284 C
HETATM   22  O1  UNL     1      17.087  17.192 -21.664  1.00  0.00    -0.260 OA
BRANCH  21  23
HETATM   23  C3  UNL     1      17.762  15.239 -20.596  1.00  0.00     0.101 C
HETATM   24  C2  UNL     1      18.455  14.879 -19.537  1.00  0.00     0.013 C
HETATM   25  C1  UNL     1      18.385  15.699 -18.306  1.00  0.00     0.062 C
HETATM   26 CL1  UNL     1      19.439  13.440 -19.611  1.00  0.00    -0.089 Cl
ENDBRANCH  21  23
ENDBRANCH  20  21
ENDBRANCH   1  20
BRANCH  18  27
HETATM   27  O3  UNL     1      12.804  16.121 -21.439  1.00  0.00    -0.387 OA
ATOM     28  H3  UNL     1      12.448  16.985 -21.270  1.00  0.00     0.210 HD
ENDBRANCH  18  27
BRANCH  10  29
HETATM   29  C15 UNL     1       9.713  11.027 -22.334  1.00  0.00     0.006 C
BRANCH  29  30
HETATM   30  C16 UNL     1      10.469  10.591 -23.566  1.00  0.00     0.015 C
BRANCH  30  31
HETATM   31  C17 UNL     1      10.528  11.716 -24.593  1.00  0.00     0.114 C
HETATM   32 CL2  UNL     1      11.218  11.164 -26.120  1.00  0.00    -0.130 Cl
ENDBRANCH  30  31
ENDBRANCH  29  30
ENDBRANCH  10  29
TORSDOF 7
ENDMDL