MODEL 1
REMARK VINA RESULT: -8.670869229      0.000      0.000
REMARK  5 active torsions:
REMARK  status: ('A' for Active; 'I' for Inactive)
REMARK    1  A    between atoms: C2_2  and  C3_3
REMARK    2  A    between atoms: C4_4  and  C5_5
REMARK    3  A    between atoms: C10_14  and  C11_15
REMARK    4  A    between atoms: C13_17  and  C15_19
REMARK    5  A    between atoms: C15_19  and  C16_20
ROOT
HETATM    1  C11 UNL     1      11.426  15.558 -18.827  1.00  0.00     0.069 C
HETATM    2  C12 UNL     1      12.239  14.432 -18.324  1.00  0.00     0.031 C
HETATM    3  C13 UNL     1      13.099  13.792 -19.480  1.00  0.00    -0.002 C
HETATM    4  C14 UNL     1      13.480  12.433 -18.768  1.00  0.00     0.024 C
HETATM    5  C24 UNL     1      12.213  13.397 -20.529  1.00  0.00    -0.071 C
HETATM    6  C25 UNL     1      12.242  12.035 -21.197  1.00  0.00     0.044 C
HETATM    7  C26 UNL     1      11.195  14.203 -20.926  1.00  0.00     0.037 C
HETATM    8  C27 UNL     1      10.990  15.508 -20.263  1.00  0.00     0.204 C
HETATM    9  F1  UNL     1       9.596  15.748 -20.260  1.00  0.00    -0.220 F
HETATM   10 CL1  UNL     1      11.605  16.871 -21.230  1.00  0.00    -0.077 Cl
ENDROOT
BRANCH   1  11
HETATM   11  C10 UNL     1      10.245  15.774 -17.950  1.00  0.00    -0.011 C
HETATM   12  C2  UNL     1       9.887  16.937 -17.447  1.00  0.00    -0.066 C
HETATM   13  C1  UNL     1      10.733  18.109 -17.788  1.00  0.00     0.048 C
BRANCH  12  14
HETATM   14  C3  UNL     1       8.704  17.004 -16.600  1.00  0.00     0.005 C
HETATM   15  C4  UNL     1       8.697  17.383 -15.344  1.00  0.00     0.008 C
BRANCH  15  16
HETATM   16  C5  UNL     1       7.455  17.419 -14.569  1.00  0.00     0.184 C
HETATM   17  O1  UNL     1       7.046  18.764 -14.279  1.00  0.00    -0.292 OA
HETATM   18  C6  UNL     1       6.193  18.631 -13.167  1.00  0.00     0.362 C
HETATM   19  O2  UNL     1       5.263  19.411 -12.841  1.00  0.00    -0.238 OA
HETATM   20  N1  UNL     1       6.548  17.455 -12.449  1.00  0.00    -0.326 N
HETATM   21  C7  UNL     1       7.663  16.870 -13.164  1.00  0.00     0.058 C
ATOM     22  H1  UNL     1       6.107  17.097 -11.602  1.00  0.00     0.165 HD
HETATM   23  C8  UNL     1       7.620  15.366 -13.143  1.00  0.00     0.041 C
HETATM   24  C9  UNL     1       8.939  17.412 -12.562  1.00  0.00     0.041 C
ENDBRANCH  15  16
ENDBRANCH  12  14
ENDBRANCH   1  11
BRANCH   3  25
HETATM   25  C15 UNL     1      14.331  14.540 -19.523  1.00  0.00    -0.005 C
BRANCH  25  26
HETATM   26  C16 UNL     1      15.385  14.575 -20.492  1.00  0.00    -0.045 A
HETATM   27  C17 UNL     1      16.489  13.843 -20.159  1.00  0.00     0.062 A
HETATM   28  C18 UNL     1      17.661  13.752 -20.988  1.00  0.00     0.172 A
HETATM   29  O3  UNL     1      18.671  13.041 -20.654  1.00  0.00    -0.289 OA
HETATM   30  C19 UNL     1      17.690  14.492 -22.238  1.00  0.00     0.052 A
HETATM   31  C20 UNL     1      16.673  15.217 -22.545  1.00  0.00    -0.009 A
HETATM   32  C21 UNL     1      15.461  15.366 -21.705  1.00  0.00    -0.003 A
HETATM   33  C22 UNL     1      14.317  15.321 -22.673  1.00  0.00     0.024 C
HETATM   34  C23 UNL     1      15.535  16.882 -21.298  1.00  0.00     0.024 C
ENDBRANCH  25  26
ENDBRANCH   3  25
TORSDOF 5
ENDMDL