MODEL 2
REMARK VINA RESULT: -9.020962505      1.115      1.525
REMARK  6 active torsions:
REMARK  status: ('A' for Active; 'I' for Inactive)
REMARK    1  A    between atoms: C4_8  and  C5_9
REMARK       I    between atoms: N3_14  and  C10_15
REMARK    2  A    between atoms: C10_15  and  C11_17
REMARK    3  A    between atoms: C11_17  and  C12_18
REMARK    4  A    between atoms: C12_18  and  C13_19
REMARK    5  A    between atoms: C13_19  and  N4_20
REMARK    6  A    between atoms: C26_38  and  C27_39
ROOT
HETATM    1  C5  UNL     1      10.290  29.326  58.709  1.00  0.00     0.155 C
HETATM    2  C6  UNL     1       9.655  28.467  57.654  1.00  0.00     0.033 C
HETATM    3  C7  UNL     1       8.346  29.040  57.152  1.00  0.00     0.004 C
HETATM    4  C8  UNL     1       7.403  29.345  58.285  1.00  0.00     0.020 C
HETATM    5  C9  UNL     1       8.020  30.093  59.414  1.00  0.00     0.127 C
HETATM    6  N3  UNL     1       9.381  29.765  59.724  1.00  0.00    -0.340 N
HETATM    7  C10 UNL     1       9.848  29.889  61.068  1.00  0.00     0.224 C
HETATM    8  O1  UNL     1      11.041  29.620  61.301  1.00  0.00    -0.273 OA
ENDROOT
BRANCH   1   9
HETATM    9  C4  UNL     1      11.032  30.456  58.052  1.00  0.00     0.106 A
HETATM   10  N2  UNL     1      10.793  31.768  58.225  1.00  0.00    -0.328 N
HETATM   11  C3  UNL     1      11.649  32.491  57.478  1.00  0.00     0.134 A
ATOM     12  H2  UNL     1      10.072  32.158  58.832  1.00  0.00     0.169 HD
HETATM   13  N1  UNL     1      11.831  33.823  57.291  1.00  0.00    -0.344 N
HETATM   14  C24 UNL     1      12.462  31.610  56.806  1.00  0.00     0.078 A
HETATM   15  C2  UNL     1      12.785  34.285  56.466  1.00  0.00     0.013 A
ATOM     16  H1  UNL     1      11.233  34.484  57.786  1.00  0.00     0.167 HD
HETATM   17  C1  UNL     1      12.965  35.759  56.271  1.00  0.00     0.068 C
HETATM   18  C26 UNL     1      13.640  33.446  55.756  1.00  0.00    -0.030 A
HETATM   19  C25 UNL     1      13.435  32.099  55.964  1.00  0.00     0.043 A
HETATM   20  N7  UNL     1      12.053  30.380  57.183  1.00  0.00    -0.341 N
ATOM     21  H7  UNL     1      12.465  29.508  56.851  1.00  0.00     0.167 HD
BRANCH  18  22
HETATM   22  C27 UNL     1      14.691  33.971  54.847  1.00  0.00     0.012 C
HETATM   23  C28 UNL     1      14.822  33.027  53.695  1.00  0.00     0.015 C
HETATM   24  C29 UNL     1      16.013  34.136  55.532  1.00  0.00     0.015 C
ENDBRANCH  18  22
ENDBRANCH   1   9
BRANCH   7  25
HETATM   25  C11 UNL     1       8.950  30.322  62.151  1.00  0.00     0.131 C
BRANCH  25  26
HETATM   26  C12 UNL     1       9.300  31.556  62.869  1.00  0.00    -0.000 C
BRANCH  26  27
HETATM   27  C13 UNL     1       9.042  32.884  62.313  1.00  0.00     0.087 C
BRANCH  27  28
HETATM   28  N4  UNL     1       7.835  33.553  62.459  1.00  0.00    -0.362 N
HETATM   29  C14 UNL     1       7.612  34.600  63.340  1.00  0.00     0.084 C
HETATM   30  C15 UNL     1       6.169  34.719  63.821  1.00  0.00     0.175 C
HETATM   31  N5  UNL     1       5.317  34.824  62.678  1.00  0.00    -0.329 N
HETATM   32  C16 UNL     1       5.643  34.160  61.557  1.00  0.00     0.103 A
HETATM   33  C22 UNL     1       4.169  35.512  62.475  1.00  0.00     0.063 A
HETATM   34  N6  UNL     1       4.669  34.450  60.646  1.00  0.00    -0.343 N
HETATM   35  C23 UNL     1       6.851  33.305  61.445  1.00  0.00     0.204 C
HETATM   36  C17 UNL     1       3.757  35.274  61.183  1.00  0.00     0.060 A
ATOM     37  H6  UNL     1       4.638  34.091  59.692  1.00  0.00     0.167 HD
HETATM   38  C18 UNL     1       2.595  35.852  60.681  1.00  0.00     0.032 A
HETATM   39  C19 UNL     1       1.841  36.674  61.485  1.00  0.00     0.002 A
HETATM   40  C20 UNL     1       2.260  36.906  62.773  1.00  0.00     0.002 A
HETATM   41  C21 UNL     1       3.411  36.344  63.295  1.00  0.00     0.032 A
ENDBRANCH  27  28
ENDBRANCH  26  27
ENDBRANCH  25  26
ENDBRANCH   7  25
TORSDOF 6
ENDMDL