MODEL 3
REMARK VINA RESULT: -7.743315875      3.552      6.843
REMARK  6 active torsions:
REMARK  status: ('A' for Active; 'I' for Inactive)
REMARK    1  A    between atoms: C4_4  and  C5_5
REMARK    2  A    between atoms: C10_13  and  N3_14
REMARK       I    between atoms: N3_14  and  C12_16
REMARK    3  A    between atoms: C12_16  and  C13_18
REMARK    4  A    between atoms: C21_32  and  N7_34
REMARK    5  A    between atoms: N7_34  and  C23_36
REMARK    6  A    between atoms: C23_36  and  C24_37
ROOT
HETATM    1  C13 UNL     1       8.384  30.206  60.428  1.00  0.00     0.228 A
HETATM    2  N4  UNL     1       9.822  30.248  60.426  1.00  0.00    -0.318 N
ATOM      3  H4  UNL     1      10.370  30.960  59.943  1.00  0.00     0.181 HD
HETATM    4  N5  UNL     1      10.307  29.335  61.067  1.00  0.00    -0.307 N
ATOM      5  H5  UNL     1      11.308  29.183  61.196  1.00  0.00     0.186 HD
HETATM    6  C14 UNL     1       9.267  28.493  61.623  1.00  0.00     0.039 A
HETATM    7  C15 UNL     1       8.118  28.966  61.263  1.00  0.00     0.026 A
HETATM    8  C16 UNL     1       6.906  28.240  61.640  1.00  0.00     0.051 A
HETATM    9  N6  UNL     1       5.688  28.764  61.309  1.00  0.00    -0.365 N
ATOM     10  H6  UNL     1       5.653  29.631  60.772  1.00  0.00     0.165 HD
HETATM   11  C17 UNL     1       4.535  28.172  61.668  1.00  0.00     0.088 A
HETATM   12  C18 UNL     1       4.582  27.007  62.389  1.00  0.00     0.018 A
HETATM   13  C19 UNL     1       5.801  26.472  62.725  1.00  0.00     0.013 A
HETATM   14  C20 UNL     1       7.015  27.077  62.357  1.00  0.00    -0.003 A
HETATM   15  C21 UNL     1       8.289  26.422  62.715  1.00  0.00     0.060 C
HETATM   16  C22 UNL     1       8.195  26.169  64.226  1.00  0.00     0.044 C
HETATM   17  C29 UNL     1       9.430  27.353  62.525  1.00  0.00     0.095 C
ENDROOT
BRANCH   1  18
HETATM   18  C12 UNL     1       7.856  31.389  61.179  1.00  0.00     0.253 C
HETATM   19  N3  UNL     1       7.601  32.649  60.611  1.00  0.00    -0.320 N
HETATM   20  C11 UNL     1       8.060  32.963  59.270  1.00  0.00     0.159 C
HETATM   21  O1  UNL     1       7.639  31.203  62.401  1.00  0.00    -0.270 OA
BRANCH  19  22
HETATM   22  C10 UNL     1       6.913  33.662  61.381  1.00  0.00     0.042 A
HETATM   23  C2  UNL     1       7.499  34.341  62.409  1.00  0.00    -0.034 A
HETATM   24  C1  UNL     1       8.937  34.076  62.777  1.00  0.00     0.050 C
HETATM   25  C3  UNL     1       6.758  35.268  63.100  1.00  0.00     0.022 A
HETATM   26  C4  UNL     1       5.445  35.549  62.803  1.00  0.00    -0.012 A
HETATM   27  C8  UNL     1       4.855  34.858  61.758  1.00  0.00     0.016 A
HETATM   28  C9  UNL     1       5.608  33.912  61.054  1.00  0.00     0.031 A
BRANCH  26  29
HETATM   29  C5  UNL     1       4.680  36.532  63.567  1.00  0.00     0.033 C
HETATM   30  N1  UNL     1       3.414  36.741  63.399  1.00  0.00    -0.307 N
HETATM   31  N2  UNL     1       2.968  37.729  64.264  1.00  0.00    -0.141 NA
ATOM     32  H1  UNL     1       2.828  36.249  62.726  1.00  0.00     0.182 HD
HETATM   33  C6  UNL     1       3.937  37.814  65.352  1.00  0.00     0.141 C
HETATM   34  C7  UNL     1       5.228  37.404  64.625  1.00  0.00     0.076 C
ENDBRANCH  26  29
ENDBRANCH  19  22
ENDBRANCH   1  18
BRANCH  15  35
HETATM   35  N7  UNL     1       8.582  25.245  61.992  1.00  0.00    -0.385 N
ATOM     36  H7  UNL     1       9.279  24.598  62.360  1.00  0.00     0.160 HD
BRANCH  35  37
HETATM   37  C23 UNL     1       7.944  24.944  60.787  1.00  0.00     0.095 C
BRANCH  37  38
HETATM   38  C24 UNL     1       8.700  25.575  59.633  1.00  0.00    -0.025 A
HETATM   39  C25 UNL     1       9.974  25.507  59.326  1.00  0.00    -0.010 A
HETATM   40  C26 UNL     1      10.261  26.300  58.087  1.00  0.00     0.055 A
HETATM   41  C27 UNL     1       8.943  26.844  57.724  1.00  0.00    -0.022 A
HETATM   42  C28 UNL     1       8.081  26.429  58.602  1.00  0.00     0.009 A
ENDBRANCH  37  38
ENDBRANCH  35  37
ENDBRANCH  15  35
TORSDOF 6
ENDMDL