MODEL 5
REMARK VINA RESULT: -10.207706104      1.709      2.089
REMARK  6 active torsions:
REMARK  status: ('A' for Active; 'I' for Inactive)
REMARK    1  A    between atoms: C2_2  and  C3_3
REMARK    2  A    between atoms: C3_3  and  C4_4
REMARK    3  A    between atoms: C10_12  and  N2_13
REMARK       I    between atoms: N2_13  and  C11_15
REMARK    4  A    between atoms: C11_15  and  C12_17
REMARK    5  A    between atoms: C16_21  and  N3_22
REMARK    6  A    between atoms: N3_22  and  C17_24
ROOT
HETATM    1  C12 UNL     1       4.425  36.279  62.695  1.00  0.00     0.035 A
HETATM    2  C13 UNL     1       3.070  36.415  62.884  1.00  0.00     0.017 A
HETATM    3  C14 UNL     1       2.566  37.184  63.921  1.00  0.00     0.003 A
HETATM    4  C15 UNL     1       3.458  37.824  64.779  1.00  0.00     0.029 A
HETATM    5  C16 UNL     1       4.817  37.714  64.626  1.00  0.00     0.034 A
HETATM    6  C29 UNL     1       5.260  36.923  63.558  1.00  0.00     0.046 A
ENDROOT
BRANCH   1   7
HETATM    7  C11 UNL     1       4.924  35.481  61.620  1.00  0.00     0.270 C
HETATM    8  N2  UNL     1       4.935  34.058  61.670  1.00  0.00    -0.154 N
ATOM      9  H2  UNL     1       4.058  33.541  61.741  1.00  0.00     0.187 HD
HETATM   10  O1  UNL     1       5.372  36.054  60.583  1.00  0.00    -0.267 OA
BRANCH   8  11
HETATM   11  C10 UNL     1       6.056  33.425  61.624  1.00  0.00     0.701 A
HETATM   12  N1  UNL     1       7.268  33.968  61.742  1.00  0.00    -0.178 N
HETATM   13  C9  UNL     1       8.219  32.995  61.645  1.00  0.00     0.115 A
ATOM     14  H1  UNL     1       7.456  34.961  61.883  1.00  0.00     0.185 HD
HETATM   15  C8  UNL     1       9.671  33.270  61.745  1.00  0.00     0.079 C
HETATM   16  N7  UNL     1       7.557  31.828  61.462  1.00  0.00    -0.261 N
HETATM   17  C7  UNL     1      10.421  32.846  60.527  1.00  0.00     0.008 C
HETATM   18  C6  UNL     1       9.780  31.624  59.928  1.00  0.00     0.002 C
HETATM   19  C5  UNL     1       9.522  30.596  61.022  1.00  0.00     0.027 C
HETATM   20  C4  UNL     1       8.070  30.454  61.298  1.00  0.00     0.110 C
HETATM   21  N6  UNL     1       6.271  32.085  61.451  1.00  0.00    -0.128 N
ATOM     22  H6  UNL     1       5.537  31.388  61.330  1.00  0.00     0.206 HD
BRANCH  20  23
HETATM   23  C3  UNL     1       7.223  29.746  60.329  1.00  0.00     0.027 C
BRANCH  23  24
HETATM   24  C2  UNL     1       6.604  28.449  60.671  1.00  0.00    -0.002 C
HETATM   25  C1  UNL     1       5.256  28.469  61.267  1.00  0.00     0.005 C
ENDBRANCH  23  24
ENDBRANCH  20  23
ENDBRANCH   8  11
ENDBRANCH   1   7
BRANCH   5  26
HETATM   26  N3  UNL     1       5.802  38.332  65.412  1.00  0.00    -0.342 N
ATOM     27  H3  UNL     1       6.738  37.938  65.320  1.00  0.00     0.167 HD
BRANCH  26  28
HETATM   28  C17 UNL     1       5.695  39.407  66.301  1.00  0.00     0.112 A
HETATM   29  N4  UNL     1       5.088  40.542  65.944  1.00  0.00    -0.340 N
HETATM   30  C18 UNL     1       4.965  41.616  66.745  1.00  0.00     0.061 A
ATOM     31  H4  UNL     1       4.694  40.599  65.005  1.00  0.00     0.167 HD
HETATM   32  C19 UNL     1       4.331  42.768  66.336  1.00  0.00     0.045 A
HETATM   33  C22 UNL     1       5.483  41.585  68.023  1.00  0.00     0.060 A
HETATM   34  C20 UNL     1       4.231  43.855  67.209  1.00  0.00    -0.011 A
HETATM   35  C21 UNL     1       4.758  43.787  68.472  1.00  0.00     0.039 A
HETATM   36  C28 UNL     1       3.665  45.057  67.020  1.00  0.00    -0.009 A
HETATM   37  N5  UNL     1       5.384  42.630  68.857  1.00  0.00    -0.354 N
HETATM   38  C26 UNL     1       4.564  44.912  69.144  1.00  0.00     0.007 A
ATOM     39  H5  UNL     1       5.781  42.564  69.795  1.00  0.00     0.166 HD
HETATM   40  C27 UNL     1       3.834  45.840  68.260  1.00  0.00     0.057 A
HETATM   41  C23 UNL     1       6.115  40.406  68.401  1.00  0.00     0.042 A
HETATM   42  C24 UNL     1       6.247  39.305  67.594  1.00  0.00    -0.016 A
HETATM   43  C25 UNL     1       6.928  38.060  68.030  1.00  0.00     0.052 C
ENDBRANCH  26  28
ENDBRANCH   5  26
TORSDOF 6
ENDMDL