MODEL 2
REMARK VINA RESULT: -10.228428922      3.215      9.483
REMARK  6 active torsions:
REMARK  status: ('A' for Active; 'I' for Inactive)
REMARK    1  A    between atoms: C5_5  and  N1_6
REMARK    2  A    between atoms: N1_6  and  C6_8
REMARK    3  A    between atoms: C6_8  and  C7_9
REMARK    4  A    between atoms: N2_13  and  C11_14
REMARK    5  A    between atoms: C23_33  and  C24_34
REMARK    6  A    between atoms: C24_34  and  N6_35
ROOT
HETATM    1  C7  UNL     1       4.809  37.710  65.122  1.00  0.00    -0.046 C
HETATM    2  C8  UNL     1       6.170  37.250  64.710  1.00  0.00     0.039 C
HETATM    3  C9  UNL     1       7.190  37.290  65.837  1.00  0.00     0.025 C
HETATM    4  C10 UNL     1       7.158  38.669  66.475  1.00  0.00     0.142 C
HETATM    5  N2  UNL     1       5.819  39.114  66.720  1.00  0.00    -0.214 N
HETATM    6  C22 UNL     1       4.771  38.107  66.582  1.00  0.00     0.176 C
ENDROOT
BRANCH   1   7
HETATM    7  C6  UNL     1       3.707  36.926  64.566  1.00  0.00     0.092 C
BRANCH   7   8
HETATM    8  N1  UNL     1       3.903  35.734  63.853  1.00  0.00    -0.365 N
ATOM      9  H1  UNL     1       4.289  34.961  64.395  1.00  0.00     0.165 HD
BRANCH   8  10
HETATM   10  C5  UNL     1       3.645  35.446  62.488  1.00  0.00     0.040 A
HETATM   11  C4  UNL     1       2.362  35.284  62.007  1.00  0.00     0.030 A
HETATM   12  C3  UNL     1       2.084  35.066  60.685  1.00  0.00     0.009 A
HETATM   13  C2  UNL     1       3.103  34.998  59.758  1.00  0.00    -0.061 A
HETATM   14  C1  UNL     1       2.833  34.751  58.295  1.00  0.00     0.048 C
HETATM   15  C29 UNL     1       4.378  35.156  60.196  1.00  0.00     0.018 A
HETATM   16  C23 UNL     1       4.679  35.384  61.556  1.00  0.00    -0.011 A
BRANCH  16  17
HETATM   17  C24 UNL     1       6.090  35.541  61.903  1.00  0.00     0.189 C
BRANCH  17  18
HETATM   18  N6  UNL     1       6.843  34.355  62.147  1.00  0.00    -0.299 N
HETATM   19  C25 UNL     1       7.536  34.106  63.287  1.00  0.00     0.112 A
HETATM   20  C26 UNL     1       8.097  32.859  63.181  1.00  0.00     0.045 A
HETATM   21  C27 UNL     1       7.719  32.376  61.953  1.00  0.00     0.023 A
HETATM   22  C28 UNL     1       8.076  31.043  61.371  1.00  0.00     0.070 C
HETATM   23  N7  UNL     1       6.969  33.311  61.373  1.00  0.00    -0.303 N
ATOM     24  H7  UNL     1       6.550  33.223  60.447  1.00  0.00     0.186 HD
ENDBRANCH  17  18
ENDBRANCH  16  17
ENDBRANCH   8  10
ENDBRANCH   7   8
ENDBRANCH   1   7
BRANCH   5  25
HETATM   25  C11 UNL     1       5.517  40.440  67.047  1.00  0.00     0.682 A
HETATM   26  N3  UNL     1       6.122  41.197  68.016  1.00  0.00    -0.174 N
HETATM   27  C12 UNL     1       5.568  42.421  68.071  1.00  0.00     0.149 A
ATOM     28  H3  UNL     1       6.885  40.876  68.612  1.00  0.00     0.186 HD
HETATM   29  N4  UNL     1       5.777  43.517  68.826  1.00  0.00    -0.349 N
HETATM   30  C16 UNL     1       4.577  42.462  67.116  1.00  0.00     0.100 A
HETATM   31  C13 UNL     1       5.055  44.658  68.689  1.00  0.00     0.099 A
ATOM     32  H4  UNL     1       6.512  43.488  69.533  1.00  0.00     0.166 HD
HETATM   33  C14 UNL     1       4.053  44.748  67.749  1.00  0.00    -0.010 A
HETATM   34  C15 UNL     1       3.837  43.628  66.973  1.00  0.00    -0.015 A
HETATM   35  C21 UNL     1       3.236  45.981  67.573  1.00  0.00     0.209 C
HETATM   36  C17 UNL     1       2.765  43.697  65.954  1.00  0.00     0.079 C
HETATM   37  C18 UNL     1       2.330  45.083  65.626  1.00  0.00     0.058 C
HETATM   38  C19 UNL     1       0.885  45.271  66.069  1.00  0.00     0.046 C
HETATM   39  C20 UNL     1       2.374  45.274  64.120  1.00  0.00     0.046 C
HETATM   40  O1  UNL     1       3.073  46.099  66.187  1.00  0.00    -0.376 OA
HETATM   41  N5  UNL     1       4.575  41.260  66.520  1.00  0.00    -0.187 N
ATOM     42  H5  UNL     1       3.943  40.996  65.763  1.00  0.00     0.184 HD
ENDBRANCH   5  25
TORSDOF 6
ENDMDL