MODEL 4
REMARK VINA RESULT: -6.926154706      2.725      6.206
REMARK  7 active torsions:
REMARK  status: ('A' for Active; 'I' for Inactive)
REMARK    1  A    between atoms: C2_2  and  N1_3
REMARK    2  A    between atoms: N1_3  and  C3_5
REMARK    3  A    between atoms: N3_16  and  C12_17
REMARK    4  A    between atoms: C12_17  and  O1_18
REMARK    5  A    between atoms: C12_17  and  C13_20
REMARK    6  A    between atoms: C19_30  and  C20_31
REMARK    7  A    between atoms: C23_34  and  C24_35
ROOT
HETATM    1  C3  UNL     1       8.612  30.661  61.130  1.00  0.00     0.102 A
HETATM    2  C4  UNL     1       9.188  29.448  61.525  1.00  0.00     0.062 A
HETATM    3  C5  UNL     1       9.990  28.803  60.664  1.00  0.00     0.004 A
HETATM    4  C6  UNL     1      10.237  29.346  59.383  1.00  0.00    -0.023 A
HETATM    5  C7  UNL     1       9.650  30.538  59.041  1.00  0.00     0.014 A
HETATM    6  C8  UNL     1       9.910  31.125  57.677  1.00  0.00     0.068 C
HETATM    7  N2  UNL     1       8.856  31.165  59.917  1.00  0.00    -0.346 N
ATOM      8  H2  UNL     1       8.425  32.051  59.651  1.00  0.00     0.167 HD
HETATM    9  C9  UNL     1      11.083  28.738  58.289  1.00  0.00     0.043 C
HETATM   10  C10 UNL     1      10.563  27.427  57.788  1.00  0.00     0.025 C
HETATM   11  C11 UNL     1      10.642  26.282  58.797  1.00  0.00     0.132 C
HETATM   12  N3  UNL     1       9.973  26.639  60.010  1.00  0.00    -0.324 N
HETATM   13  C19 UNL     1      10.602  27.511  61.025  1.00  0.00     0.060 C
ENDROOT
BRANCH  12  14
HETATM   14  C12 UNL     1       8.644  26.264  60.197  1.00  0.00     0.172 C
BRANCH  14  15
HETATM   15  O1  UNL     1       8.367  25.000  60.427  1.00  0.00    -0.344 OA
ATOM     16  H1  UNL     1       7.741  24.557  59.865  1.00  0.00     0.219 HD
ENDBRANCH  14  15
BRANCH  14  17
HETATM   17  C13 UNL     1       7.450  27.074  60.184  1.00  0.00     0.107 A
HETATM   18  N4  UNL     1       7.044  27.867  59.200  1.00  0.00    -0.296 N
HETATM   19  N5  UNL     1       5.916  28.475  59.493  1.00  0.00    -0.304 N
ATOM     20  H4  UNL     1       7.547  27.991  58.322  1.00  0.00     0.187 HD
HETATM   21  C14 UNL     1       5.515  28.097  60.726  1.00  0.00     0.034 A
ATOM     22  H5  UNL     1       5.421  29.129  58.886  1.00  0.00     0.186 HD
HETATM   23  C15 UNL     1       6.476  27.215  61.165  1.00  0.00    -0.002 A
HETATM   24  C18 UNL     1       4.457  28.281  61.734  1.00  0.00     0.059 C
HETATM   25  C16 UNL     1       6.129  26.735  62.529  1.00  0.00     0.043 C
HETATM   26  C17 UNL     1       4.678  27.130  62.690  1.00  0.00     0.011 C
ENDBRANCH  14  17
ENDBRANCH  12  14
BRANCH  13  27
HETATM   27  C20 UNL     1      10.789  27.056  62.335  1.00  0.00     0.021 A
HETATM   28  C21 UNL     1       9.853  26.305  63.005  1.00  0.00     0.017 A
HETATM   29  C22 UNL     1      10.012  25.869  64.288  1.00  0.00     0.009 A
HETATM   30  C23 UNL     1      11.139  26.163  65.002  1.00  0.00    -0.044 A
HETATM   31  C26 UNL     1      12.100  26.922  64.354  1.00  0.00     0.016 A
HETATM   32  C27 UNL     1      13.302  27.385  64.839  1.00  0.00     0.124 A
HETATM   33  C29 UNL     1      11.955  27.372  63.050  1.00  0.00     0.073 A
HETATM   34  N6  UNL     1      13.849  28.094  63.841  1.00  0.00    -0.306 N
HETATM   35  C28 UNL     1      15.162  28.765  63.967  1.00  0.00     0.177 C
HETATM   36  N7  UNL     1      13.064  28.088  62.798  1.00  0.00    -0.298 N
ATOM     37  H7  UNL     1      13.265  28.559  61.915  1.00  0.00     0.187 HD
BRANCH  30  38
HETATM   38  C24 UNL     1      11.323  25.692  66.403  1.00  0.00     0.035 C
HETATM   39  C25 UNL     1      10.073  25.095  66.979  1.00  0.00     0.010 C
ENDBRANCH  30  38
ENDBRANCH  13  27
BRANCH   1  40
HETATM   40  N1  UNL     1       7.776  31.320  62.046  1.00  0.00    -0.377 N
ATOM     41  H1  UNL     1       7.047  30.800  62.534  1.00  0.00     0.161 HD
BRANCH  40  42
HETATM   42  C2  UNL     1       7.948  32.740  62.300  1.00  0.00     0.116 C
HETATM   43  C1  UNL     1       9.130  33.026  63.182  1.00  0.00     0.026 C
ENDBRANCH  40  42
ENDBRANCH   1  40
TORSDOF 7
ENDMDL