MODEL 3
REMARK VINA RESULT: -9.754102577      6.044     10.031
REMARK  6 active torsions:
REMARK  status: ('A' for Active; 'I' for Inactive)
REMARK    1  A    between atoms: C5_5  and  C6_6
REMARK    2  A    between atoms: C7_7  and  C8_8
REMARK       I    between atoms: C8_8  and  N1_10
REMARK    3  A    between atoms: N1_10  and  C9_12
REMARK    4  A    between atoms: C11_18  and  N4_19
REMARK    5  A    between atoms: N4_19  and  C12_21
REMARK    6  A    between atoms: C12_21  and  C13_22
ROOT
HETATM    1  C9  UNL     1       8.763  31.475  60.803  1.00  0.00     0.700 A
HETATM    2  N2  UNL     1      10.033  31.582  60.363  1.00  0.00    -0.186 N
ATOM      3  H2  UNL     1      10.608  32.364  60.677  1.00  0.00     0.185 HD
HETATM    4  C10 UNL     1      10.558  30.675  59.515  1.00  0.00     0.215 A
HETATM    5  N3  UNL     1       9.769  29.674  59.136  1.00  0.00    -0.187 N
ATOM      6  H3  UNL     1      10.159  28.983  58.495  1.00  0.00     0.185 HD
HETATM    7  C11 UNL     1       8.510  29.505  59.528  1.00  0.00     0.697 A
HETATM    8  N7  UNL     1       8.032  30.450  60.383  1.00  0.00    -0.022 N
ATOM      9  H7  UNL     1       7.070  30.368  60.714  1.00  0.00     0.203 HD
ENDROOT
BRANCH   7  10
HETATM   10  N4  UNL     1       7.721  28.438  59.101  1.00  0.00    -0.201 N
ATOM     11  H4  UNL     1       7.640  28.327  58.090  1.00  0.00     0.183 HD
BRANCH  10  12
HETATM   12  C12 UNL     1       7.022  27.493  59.876  1.00  0.00     0.114 C
BRANCH  12  13
HETATM   13  C13 UNL     1       6.463  27.904  61.188  1.00  0.00    -0.030 C
HETATM   14  C14 UNL     1       5.136  28.624  61.066  1.00  0.00     0.041 C
HETATM   15  C15 UNL     1       4.118  28.222  62.076  1.00  0.00     0.011 C
HETATM   16  C16 UNL     1       4.081  26.729  62.319  1.00  0.00     0.058 C
HETATM   17  C17 UNL     1       5.418  26.384  62.905  1.00  0.00     0.021 A
HETATM   18  N5  UNL     1       5.540  25.552  63.950  1.00  0.00    -0.344 N
HETATM   19  C24 UNL     1       6.545  26.969  62.314  1.00  0.00    -0.005 A
HETATM   20  C18 UNL     1       6.733  25.226  64.498  1.00  0.00     0.116 A
ATOM     21  H5  UNL     1       4.695  25.148  64.351  1.00  0.00     0.167 HD
HETATM   22  N6  UNL     1       6.842  24.395  65.541  1.00  0.00    -0.341 N
HETATM   23  C22 UNL     1       7.874  25.765  63.966  1.00  0.00     0.010 A
HETATM   24  C19 UNL     1       8.034  24.052  66.109  1.00  0.00     0.040 A
ATOM     25  H6  UNL     1       5.988  23.996  65.931  1.00  0.00     0.167 HD
HETATM   26  C20 UNL     1       9.202  24.574  65.602  1.00  0.00    -0.012 A
HETATM   27  C27 UNL     1       8.290  23.252  67.132  1.00  0.00     0.007 A
HETATM   28  C21 UNL     1       9.109  25.432  64.527  1.00  0.00     0.028 A
HETATM   29  C25 UNL     1      10.256  24.131  66.278  1.00  0.00    -0.009 A
HETATM   30  C26 UNL     1       9.759  23.224  67.343  1.00  0.00     0.057 A
HETATM   31  C23 UNL     1       7.771  26.618  62.896  1.00  0.00     0.029 A
ENDBRANCH  12  13
ENDBRANCH  10  12
ENDBRANCH   7  10
BRANCH   1  32
HETATM   32  N1  UNL     1       8.257  32.462  61.698  1.00  0.00    -0.155 N
HETATM   33  C8  UNL     1       7.298  33.405  61.277  1.00  0.00     0.259 C
HETATM   34  O1  UNL     1       6.916  33.323  60.061  1.00  0.00    -0.268 OA
ATOM     35  H1  UNL     1       8.594  32.486  62.661  1.00  0.00     0.187 HD
BRANCH  33  36
HETATM   36  C7  UNL     1       6.739  34.437  62.133  1.00  0.00     0.075 C
HETATM   37  C6  UNL     1       5.489  34.784  62.063  1.00  0.00     0.017 C
BRANCH  37  38
HETATM   38  C5  UNL     1       4.876  35.825  62.909  1.00  0.00    -0.036 A
HETATM   39  C4  UNL     1       5.594  36.483  63.881  1.00  0.00     0.012 A
HETATM   40  C3  UNL     1       4.992  37.464  64.668  1.00  0.00     0.007 A
HETATM   41  C2  UNL     1       3.667  37.797  64.494  1.00  0.00    -0.062 A
HETATM   42  C1  UNL     1       3.023  38.838  65.327  1.00  0.00     0.048 C
HETATM   43  C29 UNL     1       2.978  37.128  63.522  1.00  0.00     0.007 A
HETATM   44  C28 UNL     1       3.545  36.158  62.732  1.00  0.00     0.012 A
ENDBRANCH  37  38
ENDBRANCH  33  36
ENDBRANCH   1  32
TORSDOF 6
ENDMDL