MODEL 2
REMARK VINA RESULT: -9.077160865      2.739      9.475
REMARK  9 active torsions:
REMARK  status: ('A' for Active; 'I' for Inactive)
REMARK    1  A    between atoms: C4_4  and  C5_5
REMARK    2  A    between atoms: C6_6  and  S1_7
REMARK    3  A    between atoms: C6_6  and  S2_19
REMARK    4  A    between atoms: S1_7  and  C7_8
REMARK    5  A    between atoms: C7_8  and  C8_9
REMARK    6  A    between atoms: C9_13  and  C10_14
REMARK    7  A    between atoms: C10_14  and  O2_15
REMARK    8  A    between atoms: S2_19  and  C12_20
REMARK    9  A    between atoms: C12_20  and  C15_23
ROOT
HETATM    1  C5  UNL     1       6.310  36.272  64.038  1.00  0.00     0.026 C
HETATM    2  C6  UNL     1       6.073  35.685  62.894  1.00  0.00     0.038 C
ENDROOT
BRANCH   2   3
HETATM    3  S1  UNL     1       6.900  34.220  62.397  1.00  0.00    -0.115 SA
BRANCH   3   4
HETATM    4  C7  UNL     1       8.446  33.857  63.186  1.00  0.00     0.158 C
BRANCH   4   5
HETATM    5  C8  UNL     1       8.323  33.842  64.656  1.00  0.00     0.113 A
HETATM    6  N1  UNL     1       7.472  33.147  65.403  1.00  0.00    -0.246 N
HETATM    7  O1  UNL     1       7.641  33.369  66.669  1.00  0.00    -0.221 OA
ATOM      8  H1  UNL     1       6.769  32.513  65.025  1.00  0.00     0.196 HD
HETATM    9  C9  UNL     1       8.628  34.234  66.775  1.00  0.00     0.172 A
HETATM   10  N2  UNL     1       9.070  34.546  65.559  1.00  0.00    -0.324 N
ATOM     11  H2  UNL     1       9.829  35.192  65.340  1.00  0.00     0.169 HD
BRANCH   9  12
HETATM   12  C10 UNL     1       9.152  34.767  68.050  1.00  0.00     0.253 C
BRANCH  12  13
HETATM   13  O2  UNL     1       8.107  34.943  68.934  1.00  0.00    -0.388 OA
HETATM   14  C11 UNL     1       8.407  35.783  69.990  1.00  0.00     0.202 C
ENDBRANCH  12  13
ENDBRANCH   9  12
ENDBRANCH   4   5
ENDBRANCH   3   4
ENDBRANCH   2   3
BRANCH   2  15
HETATM   15  S2  UNL     1       4.816  36.372  61.824  1.00  0.00    -0.106 SA
BRANCH  15  16
HETATM   16  C12 UNL     1       3.160  35.771  62.245  1.00  0.00     0.066 C
HETATM   17  C13 UNL     1       3.209  34.544  63.117  1.00  0.00     0.035 C
HETATM   18  C14 UNL     1       2.397  36.909  62.880  1.00  0.00     0.035 C
BRANCH  16  19
HETATM   19  C15 UNL     1       2.456  35.390  60.990  1.00  0.00     0.141 C
HETATM   20  C16 UNL     1       2.731  36.078  59.689  1.00  0.00     0.092 C
HETATM   21  O3  UNL     1       1.622  34.503  60.955  1.00  0.00    -0.297 OA
ENDBRANCH  16  19
ENDBRANCH  15  16
ENDBRANCH   2  15
BRANCH   1  22
HETATM   22  C4  UNL     1       5.639  37.486  64.467  1.00  0.00     0.010 C
HETATM   23  C3  UNL     1       5.867  38.086  65.612  1.00  0.00    -0.044 C
HETATM   24  C2  UNL     1       5.115  39.329  65.942  1.00  0.00    -0.029 C
HETATM   25  C17 UNL     1       6.810  37.653  66.657  1.00  0.00     0.020 C
HETATM   26  C1  UNL     1       3.917  39.555  65.495  1.00  0.00     0.024 C
HETATM   27  C22 UNL     1       5.827  40.274  66.811  1.00  0.00    -0.004 C
HETATM   28  C20 UNL     1       6.788  39.705  67.817  1.00  0.00     0.023 C
HETATM   29  C23 UNL     1       5.679  41.575  66.699  1.00  0.00     0.156 A
HETATM   30  C19 UNL     1       6.124  38.706  68.726  1.00  0.00     0.010 C
HETATM   31  C21 UNL     1       7.731  38.800  66.989  1.00  0.00     0.019 C
HETATM   32  C18 UNL     1       6.045  37.432  67.947  1.00  0.00     0.010 C
HETATM   33  O4  UNL     1       4.820  42.135  65.723  1.00  0.00    -0.255 OA
HETATM   34  C25 UNL     1       6.265  42.662  67.438  1.00  0.00     0.284 A
HETATM   35  C24 UNL     1       4.871  43.497  65.847  1.00  0.00     0.373 A
HETATM   36  O5  UNL     1       4.211  44.290  65.114  1.00  0.00    -0.238 OA
HETATM   37  N3  UNL     1       5.741  43.888  66.884  1.00  0.00    -0.267 N
ATOM     38  H3  UNL     1       5.955  44.840  67.181  1.00  0.00     0.174 HD
HETATM   39  O6  UNL     1       7.080  42.646  68.391  1.00  0.00    -0.265 OA
ENDBRANCH   1  22
TORSDOF 9
ENDMDL