MODEL 1
REMARK VINA RESULT: -11.443317664      0.000      0.000
REMARK  5 active torsions:
REMARK  status: ('A' for Active; 'I' for Inactive)
REMARK    1  A    between atoms: C3_5  and  N2_6
REMARK    2  A    between atoms: N2_6  and  C4_8
REMARK    3  A    between atoms: C4_8  and  C5_9
REMARK    4  A    between atoms: C18_27  and  C19_28
REMARK    5  A    between atoms: C21_30  and  N5_31
ROOT
HETATM    1  C1  UNL     1       2.379  35.924  61.654  1.00  0.00     0.089 C
HETATM    2  C2  UNL     1       3.500  36.138  62.620  1.00  0.00     0.095 A
HETATM    3  N1  UNL     1       3.466  37.108  63.545  1.00  0.00    -0.181 N
ATOM      4  H1  UNL     1       2.644  37.711  63.582  1.00  0.00     0.185 HD
HETATM    5  C3  UNL     1       4.453  37.327  64.424  1.00  0.00     0.681 A
HETATM    6  N4  UNL     1       5.534  36.510  64.355  1.00  0.00    -0.174 N
ATOM      7  H4  UNL     1       6.303  36.648  65.010  1.00  0.00     0.186 HD
HETATM    8  C18 UNL     1       5.620  35.519  63.444  1.00  0.00     0.149 A
HETATM    9  N7  UNL     1       4.594  35.351  62.588  1.00  0.00    -0.330 N
ATOM     10  H7  UNL     1       4.647  34.605  61.894  1.00  0.00     0.168 HD
ENDROOT
BRANCH   5  11
HETATM   11  N2  UNL     1       4.391  38.375  65.409  1.00  0.00    -0.222 N
ATOM     12  H2  UNL     1       3.495  38.652  65.811  1.00  0.00     0.178 HD
BRANCH  11  13
HETATM   13  C4  UNL     1       5.595  39.023  65.815  1.00  0.00     0.176 C
BRANCH  13  14
HETATM   14  C5  UNL     1       5.436  40.195  66.669  1.00  0.00    -0.039 A
HETATM   15  C6  UNL     1       5.726  40.167  68.009  1.00  0.00     0.011 A
HETATM   16  C7  UNL     1       5.575  41.281  68.816  1.00  0.00     0.031 A
HETATM   17  C8  UNL     1       5.111  42.472  68.243  1.00  0.00     0.046 A
HETATM   18  N3  UNL     1       4.966  43.548  69.027  1.00  0.00    -0.322 N
HETATM   19  C16 UNL     1       4.812  42.519  66.887  1.00  0.00     0.003 A
HETATM   20  C9  UNL     1       4.528  44.696  68.515  1.00  0.00     0.257 A
ATOM     21  H3  UNL     1       5.193  43.488  70.020  1.00  0.00     0.169 HD
HETATM   22  O1  UNL     1       4.385  45.722  69.238  1.00  0.00    -0.267 OA
HETATM   23  C10 UNL     1       4.217  44.816  67.200  1.00  0.00     0.043 A
HETATM   24  C11 UNL     1       3.755  46.016  66.651  1.00  0.00     0.018 A
HETATM   25  C15 UNL     1       4.352  43.726  66.355  1.00  0.00    -0.008 A
HETATM   26  C12 UNL     1       3.452  46.099  65.328  1.00  0.00     0.001 A
HETATM   27  C13 UNL     1       3.593  45.007  64.501  1.00  0.00     0.001 A
HETATM   28  C14 UNL     1       4.051  43.799  65.025  1.00  0.00     0.013 A
HETATM   29  C17 UNL     1       4.975  41.385  66.111  1.00  0.00     0.023 A
ENDBRANCH  13  14
ENDBRANCH  11  13
ENDBRANCH   5  11
BRANCH   8  30
HETATM   30  C19 UNL     1       6.785  34.638  63.372  1.00  0.00     0.079 A
HETATM   31  C20 UNL     1       7.026  33.812  62.297  1.00  0.00     0.062 A
HETATM   32  C21 UNL     1       8.124  32.969  62.202  1.00  0.00     0.033 A
HETATM   33  C28 UNL     1       8.998  32.990  63.270  1.00  0.00     0.046 A
HETATM   34  C29 UNL     1       8.762  33.815  64.349  1.00  0.00     0.090 A
HETATM   35  N6  UNL     1       7.669  34.619  64.383  1.00  0.00    -0.363 N
ATOM     36  H6  UNL     1       7.516  35.220  65.193  1.00  0.00     0.165 HD
BRANCH  32  37
HETATM   37  N5  UNL     1       8.371  32.135  61.102  1.00  0.00    -0.380 N
HETATM   38  C22 UNL     1       8.016  32.548  59.773  1.00  0.00     0.123 C
HETATM   39  C23 UNL     1       9.014  32.042  58.751  1.00  0.00     0.020 C
HETATM   40  C24 UNL     1       9.210  30.557  58.804  1.00  0.00     0.007 C
HETATM   41  C25 UNL     1       8.758  29.944  60.090  1.00  0.00    -0.001 C
HETATM   42  C26 UNL     1       7.276  29.613  60.011  1.00  0.00     0.011 C
HETATM   43  C27 UNL     1       8.980  30.845  61.292  1.00  0.00     0.127 C
ENDBRANCH  32  37
ENDBRANCH   8  30
TORSDOF 5
ENDMDL