MODEL 3
REMARK VINA RESULT: -8.118221653      2.563      8.718
REMARK  8 active torsions:
REMARK  status: ('A' for Active; 'I' for Inactive)
REMARK    1  A    between atoms: C7_13  and  C8_14
REMARK    2  A    between atoms: C8_14  and  O1_15
REMARK    3  A    between atoms: C8_14  and  N5_17
REMARK    4  A    between atoms: N5_17  and  C9_19
REMARK    5  A    between atoms: C9_19  and  C10_20
REMARK    6  A    between atoms: C9_19  and  C21_31
REMARK    7  A    between atoms: C13_23  and  C14_24
REMARK    8  A    between atoms: C24_34  and  N6_35
ROOT
HETATM    1  C9  UNL     1       8.504  31.809  60.716  1.00  0.00     0.150 C
ENDROOT
BRANCH   1   2
HETATM    2  N5  UNL     1       7.571  30.828  60.112  1.00  0.00    -0.356 N
ATOM      3  H5  UNL     1       6.706  31.152  59.680  1.00  0.00     0.162 HD
BRANCH   2   4
HETATM    4  C8  UNL     1       7.863  29.483  60.131  1.00  0.00     0.166 C
BRANCH   4   5
HETATM    5  C7  UNL     1       7.672  28.429  61.102  1.00  0.00     0.107 A
HETATM    6  C2  UNL     1       6.398  27.900  61.536  1.00  0.00    -0.012 A
HETATM    7  C1  UNL     1       5.103  28.401  61.014  1.00  0.00     0.052 C
HETATM    8  C3  UNL     1       6.331  26.913  62.451  1.00  0.00     0.121 A
HETATM    9  N1  UNL     1       7.502  26.367  63.012  1.00  0.00    -0.283 N
HETATM   10  C4  UNL     1       7.525  25.314  63.989  1.00  0.00     0.169 C
HETATM   11  N3  UNL     1       8.733  26.874  62.596  1.00  0.00    -0.214 N
HETATM   12  C5  UNL     1       8.631  24.363  63.550  1.00  0.00     0.137 C
HETATM   13  N2  UNL     1       9.918  24.970  63.517  1.00  0.00    -0.402 N
HETATM   14  C6  UNL     1       9.987  26.336  63.153  1.00  0.00     0.286 C
ATOM     15  H2  UNL     1      10.758  24.440  63.748  1.00  0.00     0.154 HD
HETATM   16  N4  UNL     1       8.741  27.881  61.659  1.00  0.00    -0.278 N
ATOM     17  H4  UNL     1       9.651  28.237  61.368  1.00  0.00     0.189 HD
ENDBRANCH   4   5
BRANCH   4  18
HETATM   18  O1  UNL     1       8.440  29.069  59.027  1.00  0.00    -0.345 OA
ATOM     19  H1  UNL     1       9.292  28.677  59.176  1.00  0.00     0.219 HD
ENDBRANCH   4  18
ENDBRANCH   2   4
ENDBRANCH   1   2
BRANCH   1  20
HETATM   20  C10 UNL     1       7.721  32.853  61.418  1.00  0.00    -0.031 A
HETATM   21  C11 UNL     1       6.519  33.300  60.910  1.00  0.00     0.010 A
HETATM   22  C12 UNL     1       5.761  34.268  61.531  1.00  0.00     0.013 A
HETATM   23  C13 UNL     1       6.185  34.827  62.697  1.00  0.00    -0.026 A
HETATM   24  C19 UNL     1       7.379  34.406  63.235  1.00  0.00     0.013 A
HETATM   25  C20 UNL     1       8.140  33.428  62.602  1.00  0.00     0.010 A
BRANCH  23  26
HETATM   26  C14 UNL     1       5.360  35.861  63.347  1.00  0.00    -0.030 A
HETATM   27  C15 UNL     1       5.779  36.706  64.266  1.00  0.00    -0.011 A
HETATM   28  C16 UNL     1       4.659  37.581  64.665  1.00  0.00     0.055 A
HETATM   29  C17 UNL     1       3.530  37.118  63.842  1.00  0.00    -0.022 A
HETATM   30  C18 UNL     1       3.959  36.126  63.091  1.00  0.00     0.008 A
ENDBRANCH  23  26
ENDBRANCH   1  20
BRANCH   1  31
HETATM   31  C21 UNL     1       9.441  32.348  59.726  1.00  0.00    -0.031 A
HETATM   32  C22 UNL     1      10.735  32.674  60.122  1.00  0.00     0.012 A
HETATM   33  C23 UNL     1      11.670  33.186  59.258  1.00  0.00     0.030 A
HETATM   34  C24 UNL     1      11.343  33.397  57.928  1.00  0.00     0.039 A
HETATM   35  C28 UNL     1      10.070  33.078  57.533  1.00  0.00     0.030 A
HETATM   36  C29 UNL     1       9.129  32.565  58.401  1.00  0.00     0.012 A
BRANCH  34  37
HETATM   37  N6  UNL     1      12.300  33.927  57.014  1.00  0.00    -0.317 N
HETATM   38  C25 UNL     1      13.204  33.283  56.254  1.00  0.00     0.115 A
HETATM   39  C26 UNL     1      13.922  34.183  55.521  1.00  0.00     0.106 A
HETATM   40  N7  UNL     1      13.453  35.401  55.837  1.00  0.00    -0.360 N
HETATM   41  C27 UNL     1      12.482  35.238  56.732  1.00  0.00     0.188 A
ATOM     42  H7  UNL     1      13.782  36.290  55.459  1.00  0.00     0.166 HD
ENDBRANCH  34  37
ENDBRANCH   1  31
TORSDOF 8
ENDMDL