MODEL 1
REMARK VINA RESULT: -5.914073939      0.000      0.000
REMARK  10 active torsions:
REMARK  status: ('A' for Active; 'I' for Inactive)
REMARK    1  A    between atoms: C2_2  and  N1_3
REMARK    2  A    between atoms: N1_3  and  C3_6
REMARK    3  A    between atoms: C3_6  and  C4_7
REMARK    4  A    between atoms: C3_6  and  C6_11
REMARK    5  A    between atoms: C4_7  and  O2_9
REMARK    6  A    between atoms: C6_11  and  O3_12
REMARK    7  A    between atoms: C7_14  and  C8_15
REMARK    8  A    between atoms: C8_15  and  C9_16
REMARK    9  A    between atoms: C9_16  and  S1_17
REMARK   10  A    between atoms: C20_28  and  O4_29
ROOT
HETATM    1  C6  UNL     1     -16.837 -32.101  33.163  1.00  0.00     0.150 C
HETATM    2  C7  UNL     1     -16.773 -33.204  32.203  1.00  0.00    -0.034 C
HETATM    3  C11 UNL     1     -18.028 -33.510  31.430  1.00  0.00    -0.060 C
HETATM    4  C12 UNL     1     -19.286 -33.771  32.159  1.00  0.00     0.048 C
HETATM    5  C13 UNL     1     -18.094 -33.597  30.108  1.00  0.00    -0.019 C
HETATM    6  C14 UNL     1     -17.043 -33.432  29.111  1.00  0.00     0.032 C
HETATM    7  C15 UNL     1     -17.323 -32.292  28.155  1.00  0.00     0.037 C
HETATM    8  C16 UNL     1     -18.196 -31.241  28.707  1.00  0.00    -0.087 C
HETATM    9  C17 UNL     1     -19.689 -31.469  28.610  1.00  0.00     0.043 C
HETATM   10  C18 UNL     1     -17.764 -30.117  29.271  1.00  0.00    -0.019 C
HETATM   11  C19 UNL     1     -16.377 -29.704  29.454  1.00  0.00     0.095 C
HETATM   12  C20 UNL     1     -15.910 -29.634  30.898  1.00  0.00     0.166 C
HETATM   13  C21 UNL     1     -16.762 -28.790  31.774  1.00  0.00     0.072 C
HETATM   14  C22 UNL     1     -16.728 -29.564  33.076  1.00  0.00     0.047 C
HETATM   15  C23 UNL     1     -16.006 -30.873  32.801  1.00  0.00     0.098 C
HETATM   16  C24 UNL     1     -14.628 -30.824  33.362  1.00  0.00     0.050 C
HETATM   17  O5  UNL     1     -15.887 -30.875  31.413  1.00  0.00    -0.341 OA
ENDROOT
BRANCH   1  18
HETATM   18  C3  UNL     1     -16.981 -32.376  34.600  1.00  0.00     0.326 C
BRANCH  18  19
HETATM   19  N1  UNL     1     -15.872 -32.097  35.480  1.00  0.00    -0.059 N
ATOM     20  H12 UNL     1     -16.157 -31.593  36.319  1.00  0.00     0.278 HD
ATOM     21  H11 UNL     1     -15.240 -31.392  35.100  1.00  0.00     0.278 HD
BRANCH  19  22
HETATM   22  C2  UNL     1     -15.179 -33.373  35.791  1.00  0.00     0.229 C
HETATM   23  C1  UNL     1     -13.711 -33.107  36.004  1.00  0.00     0.034 C
ENDBRANCH  19  22
ENDBRANCH  18  19
BRANCH  18  24
HETATM   24  C4  UNL     1     -18.151 -31.831  35.301  1.00  0.00     0.293 C
HETATM   25  O1  UNL     1     -17.966 -30.856  36.117  1.00  0.00    -0.263 OA
BRANCH  24  26
HETATM   26  O2  UNL     1     -19.469 -32.225  35.219  1.00  0.00    -0.325 OA
HETATM   27  C5  UNL     1     -20.002 -33.315  35.950  1.00  0.00     0.213 C
ENDBRANCH  24  26
ENDBRANCH  18  24
ENDBRANCH   1  18
BRANCH   1  28
HETATM   28  O3  UNL     1     -18.134 -31.508  32.833  1.00  0.00    -0.379 OA
ATOM     29  H3  UNL     1     -18.635 -32.265  32.556  1.00  0.00     0.211 HD
ENDBRANCH   1  28
BRANCH   2  30
HETATM   30  C8  UNL     1     -16.069 -34.476  32.359  1.00  0.00     0.048 C
BRANCH  30  31
HETATM   31  C9  UNL     1     -14.579 -34.523  32.352  1.00  0.00     0.078 C
BRANCH  31  32
HETATM   32  S1  UNL     1     -13.965 -35.121  30.706  1.00  0.00    -0.173 SA
HETATM   33  C10 UNL     1     -15.075 -36.456  30.199  1.00  0.00     0.089 C
ENDBRANCH  31  32
ENDBRANCH  30  31
ENDBRANCH   2  30
BRANCH  12  34
HETATM   34  O4  UNL     1     -14.668 -28.990  30.814  1.00  0.00    -0.365 OA
ATOM     35  H4  UNL     1     -14.614 -28.500  31.626  1.00  0.00     0.213 HD
ENDBRANCH  12  34
TORSDOF 10
ENDMDL