MODEL 1
REMARK VINA RESULT: -6.494477835      0.000      0.000
REMARK  11 active torsions:
REMARK  status: ('A' for Active; 'I' for Inactive)
REMARK    1  A    between atoms: C3_5  and  N2_6
REMARK    2  A    between atoms: C4_9  and  C5_10
REMARK    3  A    between atoms: C8_16  and  C9_17
REMARK    4  A    between atoms: C9_17  and  N4_18
REMARK    5  A    between atoms: N4_18  and  C10_21
REMARK    6  A    between atoms: C10_21  and  C11_22
REMARK    7  A    between atoms: C14_25  and  C15_26
REMARK    8  A    between atoms: C15_26  and  C16_27
REMARK    9  A    between atoms: C16_27  and  C17_28
REMARK   10  A    between atoms: C21_34  and  O1_35
REMARK   11  A    between atoms: O1_35  and  C22_36
ROOT
HETATM    1  C5  UNL     1     -16.325 -33.342  27.611  1.00  0.00     0.066 A
HETATM    2  C6  UNL     1     -14.987 -33.580  27.389  1.00  0.00     0.119 A
HETATM    3  N3  UNL     1     -14.249 -34.093  28.379  1.00  0.00    -0.356 N
ATOM      4  H3  UNL     1     -13.257 -34.275  28.228  1.00  0.00     0.166 HD
HETATM    5  C7  UNL     1     -14.816 -34.377  29.602  1.00  0.00     0.103 A
HETATM    6  S1  UNL     1     -14.242 -35.015  31.075  1.00  0.00    -0.071 SA
HETATM    7  C8  UNL     1     -15.697 -34.975  31.963  1.00  0.00     0.031 A
HETATM    8  C14 UNL     1     -16.604 -34.464  31.092  1.00  0.00     0.062 A
HETATM    9  C20 UNL     1     -16.137 -34.149  29.846  1.00  0.00     0.087 A
HETATM   10  N5  UNL     1     -16.855 -33.622  28.795  1.00  0.00    -0.351 N
ATOM     11  H5  UNL     1     -17.848 -33.436  28.935  1.00  0.00     0.166 HD
ENDROOT
BRANCH   1  12
HETATM   12  C4  UNL     1     -17.164 -32.775  26.528  1.00  0.00     0.086 A
HETATM   13  C3  UNL     1     -17.305 -33.463  25.354  1.00  0.00     0.117 A
HETATM   14  N1  UNL     1     -18.064 -32.987  24.327  1.00  0.00    -0.332 N
HETATM   15  C2  UNL     1     -18.698 -31.816  24.452  1.00  0.00     0.080 A
ATOM     16  H1  UNL     1     -18.148 -33.523  23.463  1.00  0.00     0.168 HD
HETATM   17  C1  UNL     1     -19.546 -31.259  23.339  1.00  0.00     0.089 C
HETATM   18  N6  UNL     1     -18.559 -31.128  25.622  1.00  0.00    -0.326 N
HETATM   19  C21 UNL     1     -17.822 -31.561  26.655  1.00  0.00     0.160 A
ATOM     20  H6  UNL     1     -19.043 -30.236  25.716  1.00  0.00     0.169 HD
BRANCH  13  21
HETATM   21  N2  UNL     1     -16.688 -34.593  25.242  1.00  0.00    -0.385 N
ATOM     22  H22 UNL     1     -16.026 -34.697  24.474  1.00  0.00     0.157 HD
ATOM     23  H21 UNL     1     -16.868 -35.347  25.905  1.00  0.00     0.157 HD
ENDBRANCH  13  21
BRANCH  19  24
HETATM   24  O1  UNL     1     -17.707 -30.841  27.818  1.00  0.00    -0.330 OA
BRANCH  24  25
HETATM   25  C22 UNL     1     -18.633 -30.604  28.813  1.00  0.00     0.122 C
HETATM   26  C23 UNL     1     -19.762 -31.634  28.753  1.00  0.00     0.040 C
HETATM   27  C24 UNL     1     -18.045 -30.768  30.216  1.00  0.00     0.040 C
ENDBRANCH  24  25
ENDBRANCH  19  24
ENDBRANCH   1  12
BRANCH   8  28
HETATM   28  C15 UNL     1     -18.012 -34.278  31.518  1.00  0.00    -0.063 C
BRANCH  28  29
HETATM   29  C16 UNL     1     -19.160 -34.109  31.875  1.00  0.00    -0.096 C
BRANCH  29  30
HETATM   30  C17 UNL     1     -20.535 -33.884  32.319  1.00  0.00     0.065 A
HETATM   31  C18 UNL     1     -20.786 -33.509  33.762  1.00  0.00     0.018 A
HETATM   32  C19 UNL     1     -21.105 -34.898  33.339  1.00  0.00     0.018 A
ENDBRANCH  29  30
ENDBRANCH  28  29
ENDBRANCH   8  28
BRANCH   7  33
HETATM   33  C9  UNL     1     -15.951 -35.402  33.390  1.00  0.00     0.280 C
BRANCH  33  34
HETATM   34  N4  UNL     1     -15.664 -34.249  34.231  1.00  0.00    -0.070 N
ATOM     35  H42 UNL     1     -14.951 -34.458  34.930  1.00  0.00     0.277 HD
ATOM     36  H41 UNL     1     -15.165 -33.521  33.719  1.00  0.00     0.277 HD
BRANCH  34  37
HETATM   37  C10 UNL     1     -16.873 -33.747  34.834  1.00  0.00     0.237 C
BRANCH  37  38
HETATM   38  C11 UNL     1     -16.788 -32.230  34.820  1.00  0.00     0.011 A
HETATM   39  C12 UNL     1     -18.045 -31.542  35.318  1.00  0.00     0.007 A
HETATM   40  C13 UNL     1     -17.603 -31.434  33.896  1.00  0.00     0.007 A
ENDBRANCH  37  38
ENDBRANCH  34  37
ENDBRANCH  33  34
ENDBRANCH   7  33
TORSDOF 11
ENDMDL