MODEL 2
REMARK VINA RESULT: -7.567531784      1.944      2.325
REMARK  15 active torsions:
REMARK  status: ('A' for Active; 'I' for Inactive)
REMARK    1  A    between atoms: C4_4  and  C5_5
REMARK    2  A    between atoms: C6_6  and  C7_7
REMARK    3  A    between atoms: C6_6  and  C20_24
REMARK    4  A    between atoms: C7_7  and  C8_8
REMARK    5  A    between atoms: C8_8  and  C9_9
REMARK    6  A    between atoms: C9_9  and  C11_11
REMARK    7  A    between atoms: C11_11  and  S1_14
REMARK    8  A    between atoms: S1_14  and  C14_15
REMARK    9  A    between atoms: C14_15  and  O1_16
REMARK   10  A    between atoms: C14_15  and  N1_18
REMARK   11  A    between atoms: N1_18  and  C15_19
REMARK   12  A    between atoms: C20_24  and  C21_25
REMARK   13  A    between atoms: C21_25  and  C22_27
REMARK   14  A    between atoms: C22_27  and  O3_28
REMARK   15  A    between atoms: C22_27  and  O4_30
ROOT
HETATM    1  C5  UNL     1     -18.506 -31.843  31.446  1.00  0.00     0.052 C
HETATM    2  C6  UNL     1     -17.966 -30.751  32.119  1.00  0.00     0.012 C
ENDROOT
BRANCH   2   3
HETATM    3  C7  UNL     1     -16.749 -30.580  30.871  1.00  0.00    -0.006 C
BRANCH   3   4
HETATM    4  C8  UNL     1     -16.614 -29.986  29.884  1.00  0.00     0.034 C
BRANCH   4   5
HETATM    5  C9  UNL     1     -15.949 -30.791  28.735  1.00  0.00     0.003 C
HETATM    6  C10 UNL     1     -15.818 -32.242  29.183  1.00  0.00     0.012 C
BRANCH   5   7
HETATM    7  C11 UNL     1     -14.985 -30.152  27.887  1.00  0.00     0.013 C
HETATM    8  C12 UNL     1     -13.501 -30.149  28.142  1.00  0.00     0.027 C
HETATM    9  C13 UNL     1     -15.122 -30.911  26.525  1.00  0.00     0.027 C
BRANCH   7  10
HETATM   10  S1  UNL     1     -15.502 -28.412  27.512  1.00  0.00    -0.062 SA
BRANCH  10  11
HETATM   11  C14 UNL     1     -17.029 -28.173  26.839  1.00  0.00     0.250 C
BRANCH  11  12
HETATM   12  O1  UNL     1     -17.336 -26.794  26.728  1.00  0.00    -0.330 OA
ATOM     13  H1  UNL     1     -18.274 -26.646  26.730  1.00  0.00     0.221 HD
ENDBRANCH  11  12
BRANCH  11  14
HETATM   14  N1  UNL     1     -18.069 -28.902  26.392  1.00  0.00    -0.413 NA
BRANCH  14  15
HETATM   15  C15 UNL     1     -18.971 -29.846  25.935  1.00  0.00     0.166 C
HETATM   16  C16 UNL     1     -18.795 -31.215  26.624  1.00  0.00     0.039 C
HETATM   17  C17 UNL     1     -19.102 -32.221  25.548  1.00  0.00     0.003 C
HETATM   18  C18 UNL     1     -18.525 -31.520  24.326  1.00  0.00     0.003 C
HETATM   19  C19 UNL     1     -19.005 -30.144  24.523  1.00  0.00     0.039 C
ENDBRANCH  14  15
ENDBRANCH  11  14
ENDBRANCH  10  11
ENDBRANCH   7  10
ENDBRANCH   5   7
ENDBRANCH   4   5
ENDBRANCH   3   4
ENDBRANCH   2   3
BRANCH   2  20
HETATM   20  C20 UNL     1     -17.493 -29.802  32.678  1.00  0.00    -0.062 C
BRANCH  20  21
HETATM   21  C21 UNL     1     -16.976 -28.682  33.316  1.00  0.00     0.249 C
HETATM   22  O2  UNL     1     -16.204 -28.525  34.323  1.00  0.00    -0.278 OA
BRANCH  21  23
HETATM   23  C22 UNL     1     -17.432 -27.294  32.720  1.00  0.00     0.338 C
BRANCH  23  24
HETATM   24  O3  UNL     1     -16.444 -26.767  32.054  1.00  0.00    -0.364 OA
ATOM     25  H3  UNL     1     -16.146 -25.984  32.502  1.00  0.00     0.213 HD
ENDBRANCH  23  24
BRANCH  23  26
HETATM   26  O4  UNL     1     -17.670 -26.545  33.966  1.00  0.00    -0.364 OA
ATOM     27  H4  UNL     1     -16.777 -26.315  34.193  1.00  0.00     0.213 HD
ENDBRANCH  23  26
ENDBRANCH  21  23
ENDBRANCH  20  21
ENDBRANCH   2  20
BRANCH   1  28
HETATM   28  C4  UNL     1     -19.184 -32.695  32.385  1.00  0.00     0.059 C
HETATM   29  C3  UNL     1     -19.926 -33.922  32.211  1.00  0.00     0.079 C
HETATM   30  C2  UNL     1     -20.929 -33.917  33.337  1.00  0.00     0.088 C
HETATM   31  C1  UNL     1     -21.153 -35.368  33.793  1.00  0.00     0.021 C
HETATM   32  C23 UNL     1     -20.134 -33.153  34.416  1.00  0.00     0.268 C
HETATM   33  O5  UNL     1     -19.207 -32.338  33.748  1.00  0.00    -0.283 OA
HETATM   34  O6  UNL     1     -20.248 -33.196  35.663  1.00  0.00    -0.264 OA
ENDBRANCH   1  28
TORSDOF 15
ENDMDL