MODEL 2
REMARK VINA RESULT: -7.541049369      1.206      1.323
REMARK  10 active torsions:
REMARK  status: ('A' for Active; 'I' for Inactive)
REMARK    1  A    between atoms: C2_2  and  O1_3
REMARK    2  A    between atoms: O1_3  and  C3_4
REMARK    3  A    between atoms: C3_4  and  C6_7
REMARK    4  A    between atoms: C9_13  and  O3_14
REMARK    5  A    between atoms: C13_19  and  C14_20
REMARK    6  A    between atoms: C14_20  and  C16_22
REMARK    7  A    between atoms: C16_22  and  C17_23
REMARK    8  A    between atoms: C22_28  and  C23_29
REMARK    9  A    between atoms: C23_29  and  O4_30
REMARK   10  A    between atoms: C24_32  and  O5_33
ROOT
HETATM    1  C6  UNL     1     -17.514 -32.671  33.263  1.00  0.00     0.100 A
HETATM    2  O2  UNL     1     -17.766 -31.736  34.136  1.00  0.00    -0.293 OA
HETATM    3  C7  UNL     1     -17.341 -30.587  33.787  1.00  0.00     0.159 A
HETATM    4  N1  UNL     1     -17.394 -29.383  34.384  1.00  0.00    -0.343 N
ATOM      5  H1  UNL     1     -17.843 -29.309  35.297  1.00  0.00     0.167 HD
HETATM    6  C8  UNL     1     -16.887 -28.290  33.833  1.00  0.00     0.127 A
HETATM    7  C9  UNL     1     -16.288 -28.404  32.609  1.00  0.00     0.087 A
HETATM    8  C10 UNL     1     -16.182 -29.630  31.907  1.00  0.00    -0.012 A
HETATM    9  C11 UNL     1     -15.568 -29.650  30.603  1.00  0.00     0.052 C
HETATM   10  C12 UNL     1     -16.722 -30.744  32.518  1.00  0.00     0.037 A
HETATM   11  C13 UNL     1     -16.818 -32.059  32.160  1.00  0.00     0.014 A
ENDROOT
BRANCH  11  12
HETATM   12  C14 UNL     1     -16.494 -32.775  30.920  1.00  0.00    -0.068 C
HETATM   13  C15 UNL     1     -15.132 -32.741  30.372  1.00  0.00     0.044 C
BRANCH  12  14
HETATM   14  C16 UNL     1     -17.579 -32.585  29.862  1.00  0.00     0.066 C
BRANCH  14  15
HETATM   15  C17 UNL     1     -17.414 -31.537  28.831  1.00  0.00     0.126 C
HETATM   16  C18 UNL     1     -18.481 -30.568  28.534  1.00  0.00     0.039 C
HETATM   17  C19 UNL     1     -17.995 -30.081  27.133  1.00  0.00     0.023 C
HETATM   18  C20 UNL     1     -19.059 -29.362  26.393  1.00  0.00     0.035 C
HETATM   19  C25 UNL     1     -17.636 -31.447  26.584  1.00  0.00     0.159 C
HETATM   20  C21 UNL     1     -19.306 -29.881  25.025  1.00  0.00    -0.019 C
HETATM   21  C22 UNL     1     -19.233 -31.184  24.797  1.00  0.00    -0.029 C
HETATM   22  C24 UNL     1     -18.887 -32.058  25.980  1.00  0.00     0.178 C
HETATM   23  O6  UNL     1     -17.079 -32.161  27.596  1.00  0.00    -0.377 OA
BRANCH  21  24
HETATM   24  C23 UNL     1     -19.457 -31.812  23.485  1.00  0.00     0.200 C
BRANCH  24  25
HETATM   25  O4  UNL     1     -20.420 -32.812  23.613  1.00  0.00    -0.397 OA
ATOM     26  H4  UNL     1     -20.919 -32.667  24.407  1.00  0.00     0.209 HD
ENDBRANCH  24  25
ENDBRANCH  21  24
BRANCH  22  27
HETATM   27  O5  UNL     1     -18.636 -33.360  25.575  1.00  0.00    -0.389 OA
ATOM     28  H5  UNL     1     -18.670 -33.433  24.629  1.00  0.00     0.210 HD
ENDBRANCH  22  27
ENDBRANCH  14  15
ENDBRANCH  12  14
ENDBRANCH  11  12
BRANCH   1  29
HETATM   29  C3  UNL     1     -17.879 -34.065  33.430  1.00  0.00     0.103 C
HETATM   30  C4  UNL     1     -16.762 -35.083  33.313  1.00  0.00     0.053 C
HETATM   31  C5  UNL     1     -19.089 -34.546  32.609  1.00  0.00     0.053 C
BRANCH  29  32
HETATM   32  O1  UNL     1     -18.372 -34.246  34.741  1.00  0.00    -0.374 OA
BRANCH  32  33
HETATM   33  C2  UNL     1     -19.712 -34.442  34.884  1.00  0.00     0.165 C
HETATM   34  C1  UNL     1     -20.274 -33.448  35.929  1.00  0.00     0.033 C
ENDBRANCH  32  33
ENDBRANCH  29  32
ENDBRANCH   1  29
BRANCH   7  35
HETATM   35  O3  UNL     1     -15.734 -27.294  31.977  1.00  0.00    -0.359 OA
ATOM     36  H3  UNL     1     -15.997 -27.052  31.097  1.00  0.00     0.217 HD
ENDBRANCH   7  35
TORSDOF 10
ENDMDL