MODEL 3
REMARK VINA RESULT: -6.618524707      3.733      7.766
REMARK  10 active torsions:
REMARK  status: ('A' for Active; 'I' for Inactive)
REMARK       I    between atoms: N1_2  and  C2_4
REMARK       I    between atoms: C2_4  and  N2_5
REMARK       I    between atoms: C2_4  and  N6_31
REMARK    1  A    between atoms: N2_5  and  C3_7
REMARK    2  A    between atoms: C4_12  and  S1_13
REMARK    3  A    between atoms: S1_13  and  C5_14
REMARK    4  A    between atoms: C5_14  and  C6_15
REMARK    5  A    between atoms: C6_15  and  C8_17
REMARK    6  A    between atoms: C8_17  and  N5_18
REMARK    7  A    between atoms: N5_18  and  C9_20
REMARK    8  A    between atoms: C9_20  and  S3_22
REMARK    9  A    between atoms: S3_22  and  C10_23
REMARK   10  A    between atoms: C10_23  and  C11_24
ROOT
HETATM    1  S1  UNL     1     -19.585 -31.159  28.419  1.00  0.00    -0.103 SA
ENDROOT
BRANCH   1   2
HETATM    2  C4  UNL     1     -18.690 -31.753  26.970  1.00  0.00     0.130 A
HETATM    3  N4  UNL     1     -19.170 -32.124  25.792  1.00  0.00    -0.286 N
HETATM    4  N3  UNL     1     -18.380 -32.520  24.876  1.00  0.00    -0.278 N
ATOM      5  H4  UNL     1     -20.175 -32.093  25.619  1.00  0.00     0.188 HD
HETATM    6  C3  UNL     1     -17.070 -32.550  25.131  1.00  0.00     0.180 A
ATOM      7  H3  UNL     1     -18.741 -32.807  23.965  1.00  0.00     0.189 HD
HETATM    8  S4  UNL     1     -17.013 -31.988  26.744  1.00  0.00    -0.026 SA
BRANCH   6   9
HETATM    9  N2  UNL     1     -16.110 -32.922  24.328  1.00  0.00    -0.169 N
HETATM   10  C2  UNL     1     -15.046 -32.015  24.098  1.00  0.00     0.675 C
HETATM   11  N1  UNL     1     -13.880 -32.204  24.594  1.00  0.00    -0.231 N
HETATM   12  N6  UNL     1     -15.288 -30.878  23.295  1.00  0.00    -0.231 N
HETATM   13  C1  UNL     1     -13.630 -33.359  25.406  1.00  0.00     0.165 C
ATOM     14  H1  UNL     1     -13.133 -31.535  24.412  1.00  0.00     0.177 HD
HETATM   15  C17 UNL     1     -14.346 -29.782  23.342  1.00  0.00     0.165 C
ATOM     16  H6  UNL     1     -16.110 -30.830  22.695  1.00  0.00     0.177 HD
ATOM     17  H2  UNL     1     -16.126 -33.838  23.879  1.00  0.00     0.186 HD
ENDBRANCH   6   9
ENDBRANCH   1   2
BRANCH   1  18
HETATM   18  C5  UNL     1     -19.524 -32.405  29.722  1.00  0.00     0.087 C
BRANCH  18  19
HETATM   19  C6  UNL     1     -18.164 -32.325  30.385  1.00  0.00     0.009 C
HETATM   20  C7  UNL     1     -17.832 -33.654  31.042  1.00  0.00     0.012 C
BRANCH  19  21
HETATM   21  C8  UNL     1     -18.284 -31.303  31.505  1.00  0.00     0.126 C
BRANCH  21  22
HETATM   22  N5  UNL     1     -17.096 -31.330  32.316  1.00  0.00    -0.375 N
ATOM     23  H5  UNL     1     -16.197 -31.570  31.899  1.00  0.00     0.161 HD
BRANCH  22  24
HETATM   24  C9  UNL     1     -17.180 -31.019  33.706  1.00  0.00     0.134 C
HETATM   25  S2  UNL     1     -16.972 -29.459  34.133  1.00  0.00    -0.053 SA
BRANCH  24  26
HETATM   26  S3  UNL     1     -17.483 -32.337  34.835  1.00  0.00    -0.096 SA
BRANCH  26  27
HETATM   27  C10 UNL     1     -19.102 -32.459  35.536  1.00  0.00     0.120 C
BRANCH  27  28
HETATM   28  C11 UNL     1     -19.959 -33.455  34.859  1.00  0.00    -0.049 A
HETATM   29  C12 UNL     1     -20.389 -33.360  33.559  1.00  0.00     0.008 A
HETATM   30  C13 UNL     1     -21.177 -34.340  32.952  1.00  0.00     0.001 A
HETATM   31  C14 UNL     1     -21.557 -35.456  33.652  1.00  0.00     0.000 A
HETATM   32  C15 UNL     1     -21.137 -35.572  34.958  1.00  0.00     0.001 A
HETATM   33  C16 UNL     1     -20.363 -34.605  35.550  1.00  0.00     0.008 A
ENDBRANCH  27  28
ENDBRANCH  26  27
ENDBRANCH  24  26
ENDBRANCH  22  24
ENDBRANCH  21  22
ENDBRANCH  19  21
ENDBRANCH  18  19
ENDBRANCH   1  18
TORSDOF 10
ENDMDL