MODEL 4
REMARK VINA RESULT: -6.817169483      2.336      4.666
REMARK  13 active torsions:
REMARK  status: ('A' for Active; 'I' for Inactive)
REMARK    1  A    between atoms: C6_6  and  O1_7
REMARK    2  A    between atoms: C6_6  and  C7_9
REMARK    3  A    between atoms: C7_9  and  C8_11
REMARK    4  A    between atoms: C8_11  and  C10_13
REMARK    5  A    between atoms: C10_13  and  O3_14
REMARK    6  A    between atoms: C10_13  and  C11_16
REMARK    7  A    between atoms: C11_16  and  O4_18
REMARK    8  A    between atoms: O4_18  and  C13_19
REMARK    9  A    between atoms: C13_19  and  O6_21
REMARK   10  A    between atoms: O6_21  and  C14_22
REMARK   11  A    between atoms: C19_27  and  C20_28
REMARK   12  A    between atoms: C20_28  and  C21_29
REMARK   13  A    between atoms: C25_33  and  O7_34
ROOT
HETATM    1  C1  UNL     1     -19.858 -29.068  27.062  1.00  0.00     0.017 C
HETATM    2  C2  UNL     1     -18.864 -29.941  27.135  1.00  0.00    -0.057 C
HETATM    3  C3  UNL     1     -19.207 -31.225  27.808  1.00  0.00     0.036 C
HETATM    4  C4  UNL     1     -18.237 -31.503  28.956  1.00  0.00     0.008 C
HETATM    5  C5  UNL     1     -17.709 -30.260  29.561  1.00  0.00     0.046 C
HETATM    6  C6  UNL     1     -16.264 -29.957  29.363  1.00  0.00     0.122 C
HETATM    7  C17 UNL     1     -15.622 -30.414  28.118  1.00  0.00     0.082 C
HETATM    8  C18 UNL     1     -16.485 -30.342  26.879  1.00  0.00    -0.048 C
HETATM    9  C19 UNL     1     -16.110 -31.267  26.022  1.00  0.00    -0.017 C
HETATM   10  C25 UNL     1     -17.602 -29.447  26.518  1.00  0.00     0.175 C
ENDROOT
BRANCH   6  11
HETATM   11  O1  UNL     1     -16.126 -28.570  29.448  1.00  0.00    -0.382 OA
ATOM     12  H1  UNL     1     -16.382 -28.321  30.328  1.00  0.00     0.211 HD
ENDBRANCH   6  11
BRANCH   6  13
HETATM   13  C7  UNL     1     -15.448 -30.516  30.520  1.00  0.00     0.168 C
HETATM   14  O2  UNL     1     -14.398 -31.034  30.169  1.00  0.00    -0.294 OA
BRANCH  13  15
HETATM   15  C8  UNL     1     -15.907 -30.424  31.926  1.00  0.00     0.089 C
HETATM   16  C9  UNL     1     -15.130 -29.423  32.754  1.00  0.00     0.021 C
BRANCH  15  17
HETATM   17  C10 UNL     1     -16.139 -31.726  32.605  1.00  0.00     0.185 C
BRANCH  17  18
HETATM   18  O3  UNL     1     -16.053 -32.738  31.643  1.00  0.00    -0.388 OA
ATOM     19  H3  UNL     1     -15.136 -32.957  31.527  1.00  0.00     0.210 HD
ENDBRANCH  17  18
BRANCH  17  20
HETATM   20  C11 UNL     1     -17.430 -31.748  33.307  1.00  0.00     0.079 C
HETATM   21  C12 UNL     1     -18.497 -31.249  32.729  1.00  0.00     0.049 C
BRANCH  20  22
HETATM   22  O4  UNL     1     -17.495 -32.299  34.575  1.00  0.00    -0.258 OA
BRANCH  22  23
HETATM   23  C13 UNL     1     -18.419 -31.882  35.536  1.00  0.00     0.411 C
HETATM   24  O5  UNL     1     -18.085 -30.910  36.251  1.00  0.00    -0.229 OA
BRANCH  23  25
HETATM   25  O6  UNL     1     -19.639 -32.491  35.707  1.00  0.00    -0.293 OA
BRANCH  25  26
HETATM   26  C14 UNL     1     -19.877 -33.853  35.327  1.00  0.00     0.126 C
HETATM   27  C15 UNL     1     -20.803 -33.812  34.143  1.00  0.00     0.040 C
HETATM   28  C16 UNL     1     -20.524 -34.599  36.457  1.00  0.00     0.040 C
ENDBRANCH  25  26
ENDBRANCH  23  25
ENDBRANCH  22  23
ENDBRANCH  20  22
ENDBRANCH  17  20
ENDBRANCH  15  17
ENDBRANCH  13  15
ENDBRANCH   6  13
BRANCH   9  29
HETATM   29  C20 UNL     1     -16.662 -31.564  24.692  1.00  0.00     0.054 C
BRANCH  29  30
HETATM   30  C21 UNL     1     -17.765 -32.572  24.749  1.00  0.00    -0.021 C
HETATM   31  C22 UNL     1     -18.944 -32.248  24.257  1.00  0.00    -0.091 C
HETATM   32  C23 UNL     1     -20.027 -33.301  24.340  1.00  0.00     0.042 C
HETATM   33  C24 UNL     1     -19.324 -30.981  23.624  1.00  0.00     0.042 C
ENDBRANCH  29  30
ENDBRANCH   9  29
BRANCH  10  34
HETATM   34  O7  UNL     1     -17.346 -28.121  26.902  1.00  0.00    -0.387 OA
ATOM     35  H7  UNL     1     -16.560 -27.794  26.481  1.00  0.00     0.210 HD
ENDBRANCH  10  34
TORSDOF 13
ENDMDL