MODEL 3
REMARK VINA RESULT: -8.166276651      2.290      4.744
REMARK  8 active torsions:
REMARK  status: ('A' for Active; 'I' for Inactive)
REMARK    1  A    between atoms: C3_3  and  N1_4
REMARK       I    between atoms: N1_4  and  C4_6
REMARK    2  A    between atoms: C4_6  and  C5_8
REMARK    3  A    between atoms: C14_19  and  N3_20
REMARK       I    between atoms: N3_20  and  C15_22
REMARK    4  A    between atoms: C15_22  and  C16_24
REMARK    5  A    between atoms: C16_24  and  C17_25
REMARK    6  A    between atoms: C17_25  and  C18_26
REMARK    7  A    between atoms: C18_26  and  O3_27
REMARK    8  A    between atoms: N5_32  and  C21_33
ROOT
HETATM    1  C5  UNL     1     -18.447 -31.880  25.620  1.00  0.00     0.130 C
HETATM    2  C6  UNL     1     -17.159 -32.588  25.456  1.00  0.00     0.079 C
HETATM    3  N2  UNL     1     -16.145 -33.140  25.342  1.00  0.00    -0.196 NA
HETATM    4  C7  UNL     1     -18.338 -30.562  24.955  1.00  0.00     0.034 C
HETATM    5  C8  UNL     1     -18.643 -30.541  23.499  1.00  0.00     0.002 C
HETATM    6  C9  UNL     1     -19.885 -31.295  23.130  1.00  0.00     0.000 C
HETATM    7  C10 UNL     1     -19.705 -32.721  23.609  1.00  0.00     0.002 C
HETATM    8  C11 UNL     1     -19.524 -32.779  25.087  1.00  0.00     0.034 C
ENDROOT
BRANCH   1   9
HETATM    9  C4  UNL     1     -18.626 -31.676  27.073  1.00  0.00     0.245 C
HETATM   10  N1  UNL     1     -17.935 -32.514  27.960  1.00  0.00    -0.319 N
ATOM     11  H1  UNL     1     -17.325 -33.245  27.595  1.00  0.00     0.169 HD
HETATM   12  O1  UNL     1     -19.383 -30.769  27.496  1.00  0.00    -0.271 OA
BRANCH  10  13
HETATM   13  C3  UNL     1     -18.084 -32.349  29.396  1.00  0.00     0.085 A
HETATM   14  C2  UNL     1     -17.295 -31.614  30.235  1.00  0.00    -0.013 A
HETATM   15  C1  UNL     1     -16.096 -30.845  29.686  1.00  0.00     0.052 C
HETATM   16  C13 UNL     1     -17.629 -31.611  31.551  1.00  0.00     0.036 A
HETATM   17  C12 UNL     1     -18.723 -32.344  31.915  1.00  0.00     0.093 A
HETATM   18  C14 UNL     1     -17.179 -31.058  32.767  1.00  0.00     0.086 A
HETATM   19  S1  UNL     1     -19.254 -33.010  30.438  1.00  0.00    -0.053 SA
HETATM   20  N5  UNL     1     -18.959 -32.270  33.261  1.00  0.00    -0.325 N
HETATM   21  C19 UNL     1     -18.026 -31.491  33.781  1.00  0.00     0.145 A
HETATM   22  C20 UNL     1     -17.937 -31.167  35.189  1.00  0.00     0.120 C
HETATM   23  N4  UNL     1     -17.872 -30.889  36.317  1.00  0.00    -0.190 NA
BRANCH  20  24
HETATM   24  C21 UNL     1     -20.065 -32.964  33.883  1.00  0.00     0.092 A
HETATM   25  C22 UNL     1     -19.676 -34.314  34.484  1.00  0.00     0.028 A
HETATM   26  C23 UNL     1     -20.468 -34.263  33.200  1.00  0.00     0.028 A
ENDBRANCH  20  24
BRANCH  18  27
HETATM   27  N3  UNL     1     -16.091 -30.199  33.028  1.00  0.00    -0.324 N
HETATM   28  C15 UNL     1     -16.012 -28.859  32.612  1.00  0.00     0.222 C
HETATM   29  O2  UNL     1     -16.987 -28.366  31.948  1.00  0.00    -0.273 OA
ATOM     30  H3  UNL     1     -15.305 -30.577  33.557  1.00  0.00     0.169 HD
BRANCH  28  31
HETATM   31  C16 UNL     1     -14.828 -28.024  32.930  1.00  0.00     0.105 C
BRANCH  31  32
HETATM   32  C17 UNL     1     -14.048 -27.779  31.678  1.00  0.00     0.035 C
BRANCH  32  33
HETATM   33  C18 UNL     1     -14.234 -26.385  31.138  1.00  0.00     0.164 C
BRANCH  33  34
HETATM   34  O3  UNL     1     -15.553 -25.995  31.082  1.00  0.00    -0.401 OA
ATOM     35  H3  UNL     1     -15.853 -25.570  31.877  1.00  0.00     0.209 HD
ENDBRANCH  33  34
ENDBRANCH  32  33
ENDBRANCH  31  32
ENDBRANCH  28  31
ENDBRANCH  18  27
ENDBRANCH  10  13
ENDBRANCH   1   9
TORSDOF 8
ENDMDL