MODEL 5
REMARK VINA RESULT: -6.959286595      4.039      6.946
REMARK  7 active torsions:
REMARK  status: ('A' for Active; 'I' for Inactive)
REMARK    1  A    between atoms: C2_2  and  C4_4
REMARK    2  A    between atoms: C4_4  and  N1_5
REMARK    3  A    between atoms: N1_5  and  C5_7
REMARK    4  A    between atoms: C10_17  and  C11_18
REMARK    5  A    between atoms: C11_18  and  C12_19
REMARK    6  A    between atoms: C17_24  and  C18_25
REMARK       I    between atoms: C18_25  and  N4_27
REMARK    7  A    between atoms: N4_27  and  C19_29
ROOT
HETATM    1  C5  UNL     1     -18.989 -32.580  33.669  1.00  0.00     0.082 C
HETATM    2  C6  UNL     1     -18.361 -31.638  34.601  1.00  0.00     0.084 C
HETATM    3  C7  UNL     1     -17.027 -31.898  35.176  1.00  0.00     0.084 C
HETATM    4  C8  UNL     1     -15.878 -31.503  34.249  1.00  0.00     0.088 A
HETATM    5  N2  UNL     1     -14.624 -31.965  34.339  1.00  0.00    -0.315 N
ATOM      6  H2  UNL     1     -14.216 -32.598  35.028  1.00  0.00     0.175 HD
HETATM    7  S1  UNL     1     -13.899 -31.223  33.009  1.00  0.00     0.001 SA
HETATM    8  C9  UNL     1     -15.213 -30.358  32.392  1.00  0.00     0.079 A
HETATM    9  N3  UNL     1     -16.176 -30.716  33.304  1.00  0.00    -0.342 N
ATOM     10  H3  UNL     1     -17.124 -30.350  33.220  1.00  0.00     0.167 HD
HETATM   11  C10 UNL     1     -15.715 -29.486  31.281  1.00  0.00     0.094 C
HETATM   12  C15 UNL     1     -16.851 -30.304  30.689  1.00  0.00     0.022 A
HETATM   13  C16 UNL     1     -17.022 -30.612  29.384  1.00  0.00     0.043 A
HETATM   14  C17 UNL     1     -18.078 -31.441  29.013  1.00  0.00     0.037 A
HETATM   15  C22 UNL     1     -18.901 -31.905  30.027  1.00  0.00     0.065 A
HETATM   16  C23 UNL     1     -18.693 -31.570  31.343  1.00  0.00     0.107 A
HETATM   17  N5  UNL     1     -17.675 -30.782  31.602  1.00  0.00    -0.345 N
ATOM     18  H5  UNL     1     -17.510 -30.523  32.574  1.00  0.00     0.167 HD
HETATM   19  N6  UNL     1     -19.518 -32.072  32.426  1.00  0.00    -0.332 N
ATOM     20  H6  UNL     1     -20.530 -32.067  32.301  1.00  0.00     0.168 HD
ENDROOT
BRANCH  14  21
HETATM   21  C18 UNL     1     -18.284 -31.811  27.634  1.00  0.00     0.252 C
HETATM   22  O1  UNL     1     -18.043 -32.991  27.283  1.00  0.00    -0.268 OA
HETATM   23  N4  UNL     1     -18.745 -30.880  26.705  1.00  0.00    -0.352 N
ATOM     24  H4  UNL     1     -18.930 -29.927  27.020  1.00  0.00     0.163 HD
BRANCH  23  25
HETATM   25  C19 UNL     1     -18.975 -31.204  25.308  1.00  0.00     0.084 A
HETATM   26  C20 UNL     1     -19.378 -30.096  24.422  1.00  0.00     0.027 A
HETATM   27  C21 UNL     1     -17.950 -30.561  24.393  1.00  0.00     0.027 A
ENDBRANCH  23  25
ENDBRANCH  14  21
BRANCH  11  28
HETATM   28  C11 UNL     1     -14.844 -28.878  30.331  1.00  0.00     0.021 C
BRANCH  28  29
HETATM   29  C12 UNL     1     -15.030 -27.490  29.918  1.00  0.00    -0.022 C
HETATM   30  C13 UNL     1     -14.291 -26.442  30.679  1.00  0.00     0.009 C
HETATM   31  C14 UNL     1     -14.591 -27.284  28.444  1.00  0.00     0.009 C
ENDBRANCH  28  29
ENDBRANCH  11  28
BRANCH   1  32
HETATM   32  N1  UNL     1     -18.414 -33.883  33.505  1.00  0.00    -0.359 N
ATOM     33  H1  UNL     1     -17.425 -34.063  33.673  1.00  0.00     0.166 HD
BRANCH  32  34
HETATM   34  C4  UNL     1     -19.295 -34.897  33.100  1.00  0.00     0.066 C
BRANCH  34  35
HETATM   35  C2  UNL     1     -20.408 -35.340  33.946  1.00  0.00     0.016 C
HETATM   36  C1  UNL     1     -20.485 -36.785  34.291  1.00  0.00     0.015 C
HETATM   37  C3  UNL     1     -21.700 -34.967  33.190  1.00  0.00     0.015 C
ENDBRANCH  34  35
ENDBRANCH  32  34
ENDBRANCH   1  32
TORSDOF 7
ENDMDL