MODEL 1
REMARK VINA RESULT: -7.478076223      0.000      0.000
REMARK  9 active torsions:
REMARK  status: ('A' for Active; 'I' for Inactive)
REMARK    1  A    between atoms: O1_1  and  C1_3
REMARK    2  A    between atoms: C4_7  and  C5_8
REMARK    3  A    between atoms: C5_8  and  S1_9
REMARK    4  A    between atoms: S1_9  and  C6_10
REMARK    5  A    between atoms: N2_13  and  C7_14
REMARK    6  A    between atoms: C7_14  and  C8_15
REMARK    7  A    between atoms: C16_27  and  N5_28
REMARK    8  A    between atoms: N5_28  and  C17_30
REMARK    9  A    between atoms: C17_30  and  C18_31
ROOT
HETATM    1  C6  UNL     1     -18.804 -31.922  29.085  1.00  0.00     0.102 A
HETATM    2  N1  UNL     1     -19.411 -31.920  30.304  1.00  0.00    -0.289 N
ATOM      3  H1  UNL     1     -20.211 -31.351  30.583  1.00  0.00     0.188 HD
HETATM    4  N2  UNL     1     -18.771 -32.794  31.055  1.00  0.00    -0.274 N
HETATM    5  C14 UNL     1     -17.760 -33.377  30.384  1.00  0.00     0.140 A
HETATM    6  N3  UNL     1     -16.832 -34.294  30.656  1.00  0.00    -0.336 N
ATOM      7  H3  UNL     1     -16.798 -34.720  31.582  1.00  0.00     0.168 HD
HETATM    8  C15 UNL     1     -15.948 -34.656  29.726  1.00  0.00     0.183 A
HETATM    9  N4  UNL     1     -15.967 -34.106  28.479  1.00  0.00    -0.338 N
ATOM     10  H4  UNL     1     -15.275 -34.410  27.794  1.00  0.00     0.168 HD
HETATM   11  C16 UNL     1     -16.866 -33.180  28.125  1.00  0.00     0.119 A
HETATM   12  C22 UNL     1     -17.775 -32.826  29.129  1.00  0.00     0.088 A
ENDROOT
BRANCH   1  13
HETATM   13  S1  UNL     1     -19.256 -30.925  27.666  1.00  0.00    -0.107 SA
BRANCH  13  14
HETATM   14  C5  UNL     1     -18.317 -29.384  27.722  1.00  0.00     0.115 C
BRANCH  14  15
HETATM   15  C4  UNL     1     -17.152 -29.400  26.783  1.00  0.00     0.159 C
HETATM   16  C1  UNL     1     -17.088 -28.088  26.044  1.00  0.00     0.149 C
HETATM   17  C2  UNL     1     -15.592 -28.030  25.706  1.00  0.00     0.060 C
HETATM   18  C3  UNL     1     -15.012 -28.749  26.886  1.00  0.00     0.171 C
HETATM   19  O2  UNL     1     -15.948 -29.607  27.391  1.00  0.00    -0.382 OA
BRANCH  16  20
HETATM   20  O1  UNL     1     -17.368 -27.009  26.899  1.00  0.00    -0.393 OA
ATOM     21  H1  UNL     1     -17.979 -26.439  26.447  1.00  0.00     0.210 HD
ENDBRANCH  16  20
ENDBRANCH  14  15
ENDBRANCH  13  14
ENDBRANCH   1  13
BRANCH   4  22
HETATM   22  C7  UNL     1     -19.107 -33.091  32.428  1.00  0.00     0.155 C
BRANCH  22  23
HETATM   23  C8  UNL     1     -19.750 -34.473  32.562  1.00  0.00     0.005 C
HETATM   24  C9  UNL     1     -21.199 -34.240  32.894  1.00  0.00     0.006 C
HETATM   25  C10 UNL     1     -21.851 -35.414  33.561  1.00  0.00     0.000 C
HETATM   26  C11 UNL     1     -21.042 -35.974  34.693  1.00  0.00     0.000 C
HETATM   27  C12 UNL     1     -19.724 -36.444  34.111  1.00  0.00     0.000 C
HETATM   28  C13 UNL     1     -19.001 -35.208  33.623  1.00  0.00     0.006 C
ENDBRANCH  22  23
ENDBRANCH   4  22
BRANCH  11  29
HETATM   29  N5  UNL     1     -16.920 -32.641  26.975  1.00  0.00    -0.371 N
ATOM     30  H5  UNL     1     -16.813 -31.627  26.943  1.00  0.00     0.161 HD
BRANCH  29  31
HETATM   31  C17 UNL     1     -17.114 -33.294  25.731  1.00  0.00     0.167 C
BRANCH  31  32
HETATM   32  C18 UNL     1     -18.071 -32.556  24.822  1.00  0.00     0.000 A
HETATM   33  C19 UNL     1     -17.866 -31.350  24.210  1.00  0.00     0.017 A
HETATM   34  C20 UNL     1     -18.856 -30.872  23.439  1.00  0.00     0.008 A
HETATM   35  C21 UNL     1     -19.987 -31.634  23.330  1.00  0.00     0.050 A
HETATM   36  S2  UNL     1     -19.636 -32.988  24.302  1.00  0.00    -0.105 SA
ENDBRANCH  31  32
ENDBRANCH  29  31
ENDBRANCH  11  29
TORSDOF 9
ENDMDL