MODEL 1
REMARK VINA RESULT: -7.247713787      0.000      0.000
REMARK  9 active torsions:
REMARK  status: ('A' for Active; 'I' for Inactive)
REMARK    1  A    between atoms: C4_9  and  C5_10
REMARK    2  A    between atoms: C5_10  and  O2_11
REMARK    3  A    between atoms: O2_11  and  C6_12
REMARK    4  A    between atoms: C9_21  and  C10_22
REMARK    5  A    between atoms: C15_29  and  C16_30
REMARK    6  A    between atoms: C16_30  and  C17_31
REMARK    7  A    between atoms: C16_30  and  N7_35
REMARK    8  A    between atoms: C17_31  and  C18_32
REMARK    9  A    between atoms: N7_35  and  C21_37
ROOT
HETATM    1  C1  UNL     1     -17.332 -33.869  25.533  1.00  0.00     0.064 C
HETATM    2  C2  UNL     1     -18.111 -32.600  25.370  1.00  0.00    -0.005 C
HETATM    3  N1  UNL     1     -18.463 -32.380  24.149  1.00  0.00    -0.316 N
ATOM      4  H1  UNL     1     -18.183 -33.075  23.457  1.00  0.00     0.170 HD
HETATM    5  C3  UNL     1     -19.201 -31.264  23.676  1.00  0.00     0.320 C
HETATM    6  O1  UNL     1     -19.535 -31.076  22.487  1.00  0.00    -0.247 OA
HETATM    7  N2  UNL     1     -19.538 -30.350  24.740  1.00  0.00    -0.335 N
ATOM      8  H2  UNL     1     -20.392 -29.793  24.719  1.00  0.00     0.164 HD
HETATM    9  C4  UNL     1     -18.576 -30.262  25.866  1.00  0.00     0.122 C
HETATM   10  C15 UNL     1     -18.523 -31.675  26.415  1.00  0.00     0.078 C
ENDROOT
BRANCH   9  11
HETATM   11  C5  UNL     1     -19.222 -29.260  26.789  1.00  0.00     0.203 C
BRANCH  11  12
HETATM   12  O2  UNL     1     -18.267 -28.297  27.149  1.00  0.00    -0.331 OA
BRANCH  12  13
HETATM   13  C6  UNL     1     -17.140 -27.914  26.467  1.00  0.00     0.187 A
HETATM   14  N3  UNL     1     -16.880 -27.866  25.157  1.00  0.00    -0.278 N
HETATM   15  N4  UNL     1     -15.654 -27.433  24.982  1.00  0.00    -0.295 N
ATOM     16  H3  UNL     1     -17.529 -28.126  24.414  1.00  0.00     0.189 HD
HETATM   17  C7  UNL     1     -15.073 -27.185  26.172  1.00  0.00     0.094 A
ATOM     18  H4  UNL     1     -15.206 -27.301  24.075  1.00  0.00     0.187 HD
HETATM   19  C8  UNL     1     -13.832 -26.732  26.566  1.00  0.00     0.122 A
HETATM   20  C14 UNL     1     -15.981 -27.475  27.155  1.00  0.00     0.116 A
HETATM   21  N5  UNL     1     -13.542 -26.581  27.872  1.00  0.00    -0.353 N
HETATM   22  C9  UNL     1     -14.453 -26.871  28.845  1.00  0.00     0.089 A
ATOM     23  H5  UNL     1     -12.618 -26.242  28.141  1.00  0.00     0.166 HD
HETATM   24  N6  UNL     1     -15.663 -27.317  28.446  1.00  0.00    -0.340 N
ATOM     25  H6  UNL     1     -16.362 -27.542  29.154  1.00  0.00     0.167 HD
BRANCH  22  26
HETATM   26  C10 UNL     1     -14.064 -26.692  30.269  1.00  0.00     0.007 C
HETATM   27  C11 UNL     1     -15.051 -27.452  31.163  1.00  0.00     0.022 C
HETATM   28  C12 UNL     1     -14.076 -25.259  30.706  1.00  0.00     0.022 C
HETATM   29  C13 UNL     1     -12.714 -27.349  30.479  1.00  0.00     0.022 C
ENDBRANCH  22  26
ENDBRANCH  12  13
ENDBRANCH  11  12
ENDBRANCH   9  11
BRANCH  10  30
HETATM   30  C16 UNL     1     -17.710 -31.753  27.680  1.00  0.00     0.088 C
BRANCH  30  31
HETATM   31  C17 UNL     1     -18.673 -31.775  28.841  1.00  0.00     0.029 C
BRANCH  31  32
HETATM   32  C18 UNL     1     -18.181 -32.484  30.056  1.00  0.00    -0.021 C
HETATM   33  C19 UNL     1     -19.354 -33.188  30.771  1.00  0.00     0.009 C
HETATM   34  C20 UNL     1     -17.253 -33.630  29.674  1.00  0.00     0.009 C
ENDBRANCH  31  32
ENDBRANCH  30  31
BRANCH  30  35
HETATM   35  N7  UNL     1     -16.622 -30.931  27.790  1.00  0.00    -0.413 N
ATOM     36  H7  UNL     1     -16.816 -29.969  28.071  1.00  0.00     0.154 HD
BRANCH  35  37
HETATM   37  C21 UNL     1     -15.289 -31.243  27.567  1.00  0.00     0.068 C
HETATM   38  C22 UNL     1     -14.247 -30.677  28.463  1.00  0.00     0.031 C
HETATM   39  C23 UNL     1     -14.821 -30.931  26.148  1.00  0.00     0.031 C
ENDBRANCH  35  37
ENDBRANCH  30  35
ENDBRANCH  10  30
TORSDOF 9
ENDMDL