MODEL 3
REMARK VINA RESULT: -7.164306843      1.574      2.153
REMARK  11 active torsions:
REMARK  status: ('A' for Active; 'I' for Inactive)
REMARK    1  A    between atoms: C3_3  and  C4_4
REMARK    2  A    between atoms: C4_4  and  C5_5
REMARK    3  A    between atoms: C5_5  and  O1_6
REMARK    4  A    between atoms: N1_8  and  O2_10
REMARK    5  A    between atoms: C7_13  and  S1_14
REMARK    6  A    between atoms: S1_14  and  C8_15
REMARK    7  A    between atoms: C8_15  and  C9_17
REMARK    8  A    between atoms: C9_17  and  C10_18
REMARK    9  A    between atoms: C10_18  and  O4_19
REMARK   10  A    between atoms: N2_21  and  O5_23
REMARK   11  A    between atoms: C11_25  and  O6_26
ROOT
HETATM    1  C1  UNL     1      14.826  19.448  11.984  1.00  0.00     0.015 C
HETATM    2  C2  UNL     1      14.569  19.138  13.420  1.00  0.00     0.041 C
HETATM    3  C3  UNL     1      13.203  18.684  13.773  1.00  0.00     0.044 C
HETATM    4  C6  UNL     1      12.587  19.735  14.688  1.00  0.00     0.031 C
HETATM    5  C7  UNL     1      13.808  20.343  15.358  1.00  0.00     0.105 C
HETATM    6  C11 UNL     1      14.875  20.350  14.279  1.00  0.00     0.162 C
HETATM    7  C12 UNL     1      14.713  21.610  13.529  1.00  0.00     0.099 C
HETATM    8  N3  UNL     1      14.586  22.601  12.940  1.00  0.00    -0.194 NA
ENDROOT
BRANCH   6   9
HETATM    9  O6  UNL     1      16.155  20.214  14.810  1.00  0.00    -0.374 OA
ATOM     10  H6  UNL     1      16.200  20.692  15.629  1.00  0.00     0.212 HD
ENDBRANCH   6   9
BRANCH   5  11
HETATM   11  S1  UNL     1      13.504  21.969  16.037  1.00  0.00    -0.083 SA
BRANCH  11  12
HETATM   12  C8  UNL     1      14.793  22.418  17.188  1.00  0.00     0.194 C
HETATM   13  O3  UNL     1      15.954  22.528  16.844  1.00  0.00    -0.285 OA
BRANCH  12  14
HETATM   14  C9  UNL     1      14.410  22.663  18.624  1.00  0.00     0.176 C
BRANCH  14  15
HETATM   15  C10 UNL     1      15.246  21.865  19.531  1.00  0.00     0.143 C
HETATM   16  N2  UNL     1      14.952  20.642  19.757  1.00  0.00    -0.251 N
ATOM     17  H2  UNL     1      15.536  20.093  20.388  1.00  0.00     0.196 HD
BRANCH  15  18
HETATM   18  O4  UNL     1      16.347  22.432  20.138  1.00  0.00    -0.348 OA
ATOM     19  H4  UNL     1      16.635  22.123  20.989  1.00  0.00     0.219 HD
ENDBRANCH  15  18
BRANCH  16  20
HETATM   20  O5  UNL     1      13.853  20.050  19.161  1.00  0.00    -0.288 OA
ATOM     21  H5  UNL     1      13.594  19.163  19.381  1.00  0.00     0.244 HD
ENDBRANCH  16  20
ENDBRANCH  14  15
ENDBRANCH  12  14
ENDBRANCH  11  12
ENDBRANCH   5  11
BRANCH   3  22
HETATM   22  C4  UNL     1      12.319  18.281  12.677  1.00  0.00     0.037 C
HETATM   23  N1  UNL     1      12.618  18.588  11.466  1.00  0.00    -0.275 N
ATOM     24  H1  UNL     1      13.481  19.113  11.321  1.00  0.00     0.193 HD
BRANCH  22  25
HETATM   25  C5  UNL     1      11.085  17.522  12.962  1.00  0.00     0.219 C
BRANCH  25  26
HETATM   26  O1  UNL     1      10.946  16.433  12.091  1.00  0.00    -0.395 OA
ATOM     27  H1  UNL     1      10.045  16.130  12.060  1.00  0.00     0.209 HD
ENDBRANCH  25  26
ENDBRANCH  22  25
BRANCH  23  28
HETATM   28  O2  UNL     1      11.893  18.279  10.360  1.00  0.00    -0.290 OA
ATOM     29  H2  UNL     1      11.606  17.411  10.103  1.00  0.00     0.244 HD
ENDBRANCH  23  28
ENDBRANCH   3  22
TORSDOF 11
ENDMDL