MODEL 1
REMARK VINA RESULT: -8.310876313      0.000      0.000
REMARK  11 active torsions:
REMARK  status: ('A' for Active; 'I' for Inactive)
REMARK    1  A    between atoms: C1_4  and  N2_5
REMARK    2  A    between atoms: C1_4  and  O3_20
REMARK    3  A    between atoms: N2_5  and  N3_7
REMARK    4  A    between atoms: N4_9  and  C2_11
REMARK    5  A    between atoms: C5_14  and  N5_15
REMARK    6  A    between atoms: O3_20  and  C8_21
REMARK    7  A    between atoms: C8_21  and  C9_22
REMARK    8  A    between atoms: C9_22  and  C10_26
REMARK    9  A    between atoms: C10_26  and  O4_27
REMARK   10  A    between atoms: C10_26  and  C11_29
REMARK       I    between atoms: C11_29  and  N7_31
REMARK   11  A    between atoms: N7_31  and  N8_33
ROOT
HETATM    1  N1  UNL     1      14.641  18.658  13.955  1.00  0.00    -0.364 N
ATOM      2  H11 UNL     1      15.469  19.216  14.162  1.00  0.00     0.159 HD
ATOM      3  H12 UNL     1      14.698  18.025  13.158  1.00  0.00     0.159 HD
HETATM    4  C1  UNL     1      13.559  18.746  14.669  1.00  0.00     0.233 C
ENDROOT
BRANCH   4   5
HETATM    5  N2  UNL     1      12.402  17.968  14.381  1.00  0.00    -0.251 N
ATOM      6  H2  UNL     1      12.478  17.014  14.026  1.00  0.00     0.192 HD
BRANCH   5   7
HETATM    7  N3  UNL     1      11.158  18.565  14.606  1.00  0.00    -0.239 N
HETATM    8  N4  UNL     1      10.140  17.963  14.141  1.00  0.00    -0.286 N
ATOM      9  H4  UNL     1      10.234  17.085  13.630  1.00  0.00     0.188 HD
ATOM     10  H3  UNL     1      11.071  19.442  15.118  1.00  0.00     0.208 HD
BRANCH   8  11
HETATM   11  C2  UNL     1       8.864  18.555  14.359  1.00  0.00     0.049 A
HETATM   12  C3  UNL     1       8.587  19.068  15.626  1.00  0.00     0.033 A
HETATM   13  C4  UNL     1       7.364  19.635  15.832  1.00  0.00     0.038 A
HETATM   14  C5  UNL     1       6.402  19.722  14.849  1.00  0.00     0.103 A
HETATM   15  C6  UNL     1       6.694  19.211  13.604  1.00  0.00     0.038 A
HETATM   16  C7  UNL     1       7.917  18.630  13.355  1.00  0.00     0.033 A
BRANCH  14  17
HETATM   17  N5  UNL     1       5.161  20.322  15.134  1.00  0.00    -0.116 N
HETATM   18  O1  UNL     1       4.208  20.141  14.339  1.00  0.00    -0.532 OA
HETATM   19  O2  UNL     1       5.003  21.090  16.260  1.00  0.00    -0.532 OA
ENDBRANCH  14  17
ENDBRANCH   8  11
ENDBRANCH   5   7
ENDBRANCH   4   5
BRANCH   4  20
HETATM   20  O3  UNL     1      13.481  19.607  15.754  1.00  0.00    -0.316 OA
BRANCH  20  21
HETATM   21  C8  UNL     1      13.696  21.011  15.525  1.00  0.00     0.234 C
BRANCH  21  22
HETATM   22  C9  UNL     1      14.490  21.527  16.648  1.00  0.00     0.043 C
HETATM   23  N6  UNL     1      15.754  21.614  16.551  1.00  0.00    -0.401 N
ATOM     24  H62 UNL     1      16.197  21.319  15.681  1.00  0.00     0.155 HD
ATOM     25  H61 UNL     1      16.305  21.972  17.332  1.00  0.00     0.155 HD
BRANCH  22  26
HETATM   26  C10 UNL     1      13.843  21.956  17.917  1.00  0.00     0.258 C
BRANCH  26  27
HETATM   27  O4  UNL     1      12.755  21.091  18.186  1.00  0.00    -0.380 OA
ATOM     28  H4  UNL     1      12.128  21.553  18.731  1.00  0.00     0.211 HD
ENDBRANCH  26  27
BRANCH  26  29
HETATM   29  C11 UNL     1      14.838  21.872  19.013  1.00  0.00     0.270 C
HETATM   30  O5  UNL     1      15.694  22.785  19.122  1.00  0.00    -0.268 OA
HETATM   31  N7  UNL     1      14.821  20.786  19.909  1.00  0.00    -0.274 N
ATOM     32  H7  UNL     1      14.117  20.056  19.792  1.00  0.00     0.189 HD
BRANCH  31  33
HETATM   33  N8  UNL     1      15.754  20.678  20.968  1.00  0.00    -0.343 N
ATOM     34  H82 UNL     1      16.309  21.500  21.204  1.00  0.00     0.176 HD
ATOM     35  H81 UNL     1      15.878  19.811  21.489  1.00  0.00     0.176 HD
ENDBRANCH  31  33
ENDBRANCH  26  29
ENDBRANCH  22  26
ENDBRANCH  21  22
ENDBRANCH  20  21
ENDBRANCH   4  20
TORSDOF 11
ENDMDL