MODEL 2
REMARK VINA RESULT: -6.224798342      2.732      7.077
REMARK  13 active torsions:
REMARK  status: ('A' for Active; 'I' for Inactive)
REMARK    1  A    between atoms: C2_2  and  C3_3
REMARK    2  A    between atoms: C3_3  and  C4_4
REMARK    3  A    between atoms: C4_4  and  N1_5
REMARK    4  A    between atoms: C4_4  and  O1_9
REMARK    5  A    between atoms: C4_4  and  C5_11
REMARK    6  A    between atoms: C5_11  and  S1_12
REMARK    7  A    between atoms: S1_12  and  S2_13
REMARK    8  A    between atoms: S2_13  and  C6_14
REMARK    9  A    between atoms: C6_14  and  C7_15
REMARK   10  A    between atoms: C8_16  and  O2_17
REMARK   11  A    between atoms: N2_21  and  O3_23
REMARK   12  A    between atoms: C11_25  and  O4_26
REMARK   13  A    between atoms: C12_28  and  O5_29
ROOT
HETATM    1  C7  UNL     1      13.420  21.456  14.687  1.00  0.00     0.056 C
HETATM    2  C8  UNL     1      13.144  20.455  15.735  1.00  0.00     0.131 C
HETATM    3  C9  UNL     1      13.001  21.132  17.089  1.00  0.00     0.089 C
HETATM    4  C10 UNL     1      14.301  21.748  17.414  1.00  0.00     0.043 C
HETATM    5  N2  UNL     1      14.902  21.574  18.535  1.00  0.00    -0.275 N
ATOM      6  H2  UNL     1      15.800  22.033  18.687  1.00  0.00     0.193 HD
HETATM    7  C11 UNL     1      14.905  22.603  16.358  1.00  0.00     0.194 C
HETATM    8  C12 UNL     1      13.971  22.774  15.186  1.00  0.00     0.160 C
ENDROOT
BRANCH   1   9
HETATM    9  C6  UNL     1      14.276  20.949  13.517  1.00  0.00     0.096 C
BRANCH   9  10
HETATM   10  S2  UNL     1      14.459  22.128  12.197  1.00  0.00    -0.097 SA
BRANCH  10  11
HETATM   11  S1  UNL     1      13.853  21.247  10.398  1.00  0.00    -0.093 SA
BRANCH  11  12
HETATM   12  C5  UNL     1      13.774  19.494  10.507  1.00  0.00     0.154 C
BRANCH  12  13
HETATM   13  C4  UNL     1      13.147  18.712   9.424  1.00  0.00     0.231 C
BRANCH  13  14
HETATM   14  C3  UNL     1      12.054  17.828  10.054  1.00  0.00     0.069 C
BRANCH  14  15
HETATM   15  C2  UNL     1      12.071  17.915  11.559  1.00  0.00     0.000 C
HETATM   16  C1  UNL     1      10.715  17.437  12.076  1.00  0.00     0.005 C
ENDBRANCH  14  15
ENDBRANCH  13  14
BRANCH  13  17
HETATM   17  N1  UNL     1      12.341  19.608   8.554  1.00  0.00    -0.046 N
ATOM     18  H13 UNL     1      12.135  19.242   7.624  1.00  0.00     0.278 HD
ATOM     19  H12 UNL     1      11.365  19.718   8.828  1.00  0.00     0.278 HD
ATOM     20  H11 UNL     1      12.896  20.463   8.571  1.00  0.00     0.278 HD
ENDBRANCH  13  17
BRANCH  13  21
HETATM   21  O1  UNL     1      13.968  17.893   8.695  1.00  0.00    -0.364 OA
ATOM     22  H1  UNL     1      14.080  17.089   9.188  1.00  0.00     0.212 HD
ENDBRANCH  13  21
ENDBRANCH  12  13
ENDBRANCH  11  12
ENDBRANCH  10  11
ENDBRANCH   9  10
ENDBRANCH   1   9
BRANCH   2  23
HETATM   23  O2  UNL     1      11.878  19.886  15.492  1.00  0.00    -0.395 OA
ATOM     24  H2  UNL     1      11.724  19.876  14.554  1.00  0.00     0.210 HD
ENDBRANCH   2  23
BRANCH   8  25
HETATM   25  O5  UNL     1      12.969  23.674  15.536  1.00  0.00    -0.392 OA
ATOM     26  H5  UNL     1      13.078  24.521  15.120  1.00  0.00     0.210 HD
ENDBRANCH   8  25
BRANCH   7  27
HETATM   27  O4  UNL     1      16.156  22.143  15.954  1.00  0.00    -0.387 OA
ATOM     28  H4  UNL     1      16.775  22.098  16.675  1.00  0.00     0.210 HD
ENDBRANCH   7  27
BRANCH   5  29
HETATM   29  O3  UNL     1      14.379  20.791  19.542  1.00  0.00    -0.290 OA
ATOM     30  H3  UNL     1      14.882  20.109  19.971  1.00  0.00     0.244 HD
ENDBRANCH   5  29
TORSDOF 13
ENDMDL