MODEL 1
REMARK VINA RESULT: -6.931698197      0.000      0.000
REMARK  7 active torsions:
REMARK  status: ('A' for Active; 'I' for Inactive)
REMARK    1  A    between atoms: C1_4  and  C2_6
REMARK    2  A    between atoms: C5_9  and  C6_10
REMARK    3  A    between atoms: C6_10  and  N3_11
REMARK    4  A    between atoms: C6_10  and  C9_21
REMARK    5  A    between atoms: N3_11  and  C7_13
REMARK    6  A    between atoms: C8_17  and  N5_18
REMARK       I    between atoms: C9_21  and  N6_23
REMARK    7  A    between atoms: N6_23  and  N7_25
ROOT
HETATM    1  C6  UNL     1      12.998  19.850  13.570  1.00  0.00     0.217 C
ENDROOT
BRANCH   1   2
HETATM    2  C5  UNL     1      13.963  20.467  14.544  1.00  0.00     0.015 A
HETATM    3  C4  UNL     1      15.333  20.489  14.525  1.00  0.00     0.018 A
HETATM    4  C3  UNL     1      15.962  21.110  15.525  1.00  0.00     0.023 A
HETATM    5  C2  UNL     1      15.193  21.682  16.499  1.00  0.00     0.046 A
HETATM    6  S2  UNL     1      13.609  21.329  15.979  1.00  0.00    -0.089 SA
BRANCH   5   7
HETATM    7  C1  UNL     1      15.616  22.421  17.702  1.00  0.00     0.127 C
HETATM    8  N1  UNL     1      15.116  22.065  18.836  1.00  0.00    -0.387 N
ATOM      9  H12 UNL     1      15.408  22.576  19.668  1.00  0.00     0.157 HD
ATOM     10  H11 UNL     1      14.448  21.295  18.879  1.00  0.00     0.157 HD
HETATM   11  N2  UNL     1      16.536  23.481  17.642  1.00  0.00    -0.082 NA
ENDBRANCH   5   7
ENDBRANCH   1   2
BRANCH   1  12
HETATM   12  N3  UNL     1      13.576  19.466  12.338  1.00  0.00    -0.362 N
ATOM     13  H3  UNL     1      14.583  19.615  12.287  1.00  0.00     0.161 HD
BRANCH  12  14
HETATM   14  C7  UNL     1      13.018  18.918  11.173  1.00  0.00     0.139 A
HETATM   15  S1  UNL     1      13.627  19.145   9.556  1.00  0.00     0.009 SA
HETATM   16  N4  UNL     1      12.321  18.149   9.321  1.00  0.00    -0.303 N
HETATM   17  C8  UNL     1      12.032  18.116  10.643  1.00  0.00     0.215 A
ATOM     18  H4  UNL     1      11.898  17.724   8.495  1.00  0.00     0.176 HD
BRANCH  17  19
HETATM   19  N5  UNL     1      10.976  17.373  11.276  1.00  0.00    -0.094 N
HETATM   20  O1  UNL     1      11.205  16.273  11.879  1.00  0.00    -0.530 OA
HETATM   21  O2  UNL     1       9.668  17.728  11.309  1.00  0.00    -0.530 OA
ENDBRANCH  17  19
ENDBRANCH  12  14
ENDBRANCH   1  12
BRANCH   1  22
HETATM   22  C9  UNL     1      12.440  18.635  14.271  1.00  0.00     0.263 C
HETATM   23  O3  UNL     1      13.182  17.883  14.948  1.00  0.00    -0.269 OA
HETATM   24  N6  UNL     1      11.063  18.315  14.182  1.00  0.00    -0.275 N
ATOM     25  H6  UNL     1      10.426  18.900  13.642  1.00  0.00     0.189 HD
BRANCH  24  26
HETATM   26  N7  UNL     1      10.597  17.180  14.848  1.00  0.00    -0.343 N
ATOM     27  H72 UNL     1      11.074  16.856  15.690  1.00  0.00     0.176 HD
ATOM     28  H71 UNL     1       9.781  16.696  14.475  1.00  0.00     0.176 HD
ENDBRANCH  24  26
ENDBRANCH   1  22
TORSDOF 7
ENDMDL