MODEL 5
REMARK VINA RESULT: -6.975733747      2.151      3.286
REMARK  10 active torsions:
REMARK  status: ('A' for Active; 'I' for Inactive)
REMARK    1  A    between atoms: C2_2  and  C3_4
REMARK    2  A    between atoms: C3_4  and  N1_5
REMARK    3  A    between atoms: C3_4  and  C4_9
REMARK    4  A    between atoms: C4_9  and  N2_10
REMARK    5  A    between atoms: C4_9  and  C12_30
REMARK       I    between atoms: N2_10  and  C5_12
REMARK       I    between atoms: C5_12  and  N3_14
REMARK    6  A    between atoms: N3_14  and  C6_16
REMARK    7  A    between atoms: C10_20  and  N4_21
REMARK    8  A    between atoms: C11_26  and  N6_27
REMARK    9  A    between atoms: C12_30  and  N7_31
REMARK   10  A    between atoms: C12_30  and  O5_35
ROOT
HETATM    1  N2  UNL     1      14.591  25.310  15.237  1.00  0.00    -0.332 N
ATOM      2  H2  UNL     1      15.510  25.662  14.968  1.00  0.00     0.164 HD
HETATM    3  C5  UNL     1      14.119  24.074  14.659  1.00  0.00     0.321 C
HETATM    4  O2  UNL     1      12.978  23.736  15.064  1.00  0.00    -0.247 OA
HETATM    5  N3  UNL     1      14.913  23.380  13.745  1.00  0.00    -0.306 N
ATOM      6  H3  UNL     1      15.821  23.783  13.514  1.00  0.00     0.170 HD
ENDROOT
BRANCH   1   7
HETATM    7  C4  UNL     1      13.797  26.069  16.195  1.00  0.00     0.179 C
BRANCH   7   8
HETATM    8  C3  UNL     1      14.190  25.761  17.599  1.00  0.00     0.278 C
BRANCH   8   9
HETATM    9  C2  UNL     1      15.066  24.599  17.803  1.00  0.00     0.155 C
HETATM   10  C1  UNL     1      14.595  23.391  18.506  1.00  0.00     0.093 C
HETATM   11  O1  UNL     1      16.239  24.612  17.386  1.00  0.00    -0.296 OA
ENDBRANCH   8   9
BRANCH   8  12
HETATM   12  N1  UNL     1      14.955  26.919  18.148  1.00  0.00    -0.066 N
ATOM     13  H13 UNL     1      15.839  27.094  17.671  1.00  0.00     0.275 HD
ATOM     14  H12 UNL     1      14.533  27.826  17.946  1.00  0.00     0.275 HD
ATOM     15  H11 UNL     1      15.053  26.720  19.144  1.00  0.00     0.275 HD
ENDBRANCH   8  12
ENDBRANCH   7   8
BRANCH   7  16
HETATM   16  C12 UNL     1      13.754  27.508  15.810  1.00  0.00     0.341 C
BRANCH  16  17
HETATM   17  N7  UNL     1      12.352  27.922  15.558  1.00  0.00    -0.051 N
ATOM     18  H73 UNL     1      11.946  27.432  14.761  1.00  0.00     0.277 HD
ATOM     19  H72 UNL     1      11.718  27.584  16.280  1.00  0.00     0.277 HD
ATOM     20  H71 UNL     1      12.303  28.935  15.448  1.00  0.00     0.277 HD
ENDBRANCH  16  17
BRANCH  16  21
HETATM   21  O5  UNL     1      14.417  27.799  14.621  1.00  0.00    -0.368 OA
ATOM     22  H5  UNL     1      14.151  27.261  13.885  1.00  0.00     0.212 HD
ENDBRANCH  16  21
ENDBRANCH   7  16
ENDBRANCH   1   7
BRANCH   5  23
HETATM   23  C6  UNL     1      14.565  22.168  13.112  1.00  0.00     0.071 A
HETATM   24  C7  UNL     1      14.135  22.007  11.824  1.00  0.00     0.032 A
HETATM   25  C8  UNL     1      13.810  20.758  11.272  1.00  0.00     0.005 A
HETATM   26  C9  UNL     1      13.917  19.619  12.026  1.00  0.00     0.034 A
HETATM   27  C10 UNL     1      14.349  19.768  13.327  1.00  0.00     0.082 A
HETATM   28  C11 UNL     1      14.668  20.980  13.876  1.00  0.00     0.157 A
BRANCH  27  29
HETATM   29  N4  UNL     1      14.459  18.570  14.114  1.00  0.00    -0.305 N
HETATM   30  N5  UNL     1      13.415  18.108  14.656  1.00  0.00    -0.345 N
ATOM     31  H52 UNL     1      12.523  18.586  14.528  1.00  0.00     0.176 HD
ATOM     32  H51 UNL     1      13.493  17.259  15.215  1.00  0.00     0.176 HD
ATOM     33  H4  UNL     1      15.358  18.104  14.232  1.00  0.00     0.186 HD
ENDBRANCH  27  29
BRANCH  28  34
HETATM   34  N6  UNL     1      15.110  21.064  15.221  1.00  0.00    -0.111 N
HETATM   35  O3  UNL     1      14.369  20.748  16.144  1.00  0.00    -0.532 OA
HETATM   36  O4  UNL     1      16.376  21.501  15.478  1.00  0.00    -0.532 OA
ENDBRANCH  28  34
ENDBRANCH   5  23
TORSDOF 10
ENDMDL