MODEL 1
REMARK VINA RESULT: -6.165494322      0.000      0.000
REMARK  11 active torsions:
REMARK  status: ('A' for Active; 'I' for Inactive)
REMARK    1  A    between atoms: O1_1  and  C1_3
REMARK    2  A    between atoms: C1_3  and  C2_4
REMARK    3  A    between atoms: C1_3  and  C6_11
REMARK    4  A    between atoms: C2_4  and  S1_5
REMARK    5  A    between atoms: S1_5  and  S2_6
REMARK    6  A    between atoms: S2_6  and  C3_7
REMARK    7  A    between atoms: C3_7  and  C4_8
REMARK    8  A    between atoms: C4_8  and  C5_9
REMARK    9  A    between atoms: C8_13  and  O2_14
REMARK   10  A    between atoms: C9_16  and  O3_17
REMARK   11  A    between atoms: C10_19  and  O4_20
ROOT
HETATM    1  C6  UNL     1      13.431  20.805  15.387  1.00  0.00     0.156 C
HETATM    2  C7  UNL     1      14.620  21.660  15.171  1.00  0.00     0.069 C
HETATM    3  C8  UNL     1      14.426  22.917  16.032  1.00  0.00     0.154 C
HETATM    4  C9  UNL     1      14.373  22.399  17.442  1.00  0.00     0.201 C
HETATM    5  C10 UNL     1      13.441  21.284  17.674  1.00  0.00     0.288 C
HETATM    6  O5  UNL     1      13.159  20.446  16.666  1.00  0.00    -0.351 OA
ENDROOT
BRANCH   1   7
HETATM    7  C1  UNL     1      13.527  19.567  14.536  1.00  0.00     0.157 C
BRANCH   7   8
HETATM    8  O1  UNL     1      13.612  18.395  15.244  1.00  0.00    -0.392 OA
ATOM      9  H1  UNL     1      13.993  18.571  16.097  1.00  0.00     0.210 HD
ENDBRANCH   7   8
BRANCH   7  10
HETATM   10  C2  UNL     1      14.680  19.644  13.559  1.00  0.00     0.120 C
BRANCH  10  11
HETATM   11  S1  UNL     1      14.138  19.337  11.860  1.00  0.00    -0.095 SA
BRANCH  11  12
HETATM   12  S2  UNL     1      12.344  18.202  11.808  1.00  0.00    -0.098 SA
BRANCH  12  13
HETATM   13  C3  UNL     1      11.883  17.791  10.092  1.00  0.00     0.087 C
BRANCH  13  14
HETATM   14  C4  UNL     1      13.064  18.153   9.224  1.00  0.00     0.022 C
BRANCH  14  15
HETATM   15  C5  UNL     1      12.745  19.072   8.093  1.00  0.00     0.087 C
HETATM   16  S3  UNL     1      13.784  20.535   8.024  1.00  0.00    -0.098 SA
ENDBRANCH  14  15
ENDBRANCH  13  14
ENDBRANCH  12  13
ENDBRANCH  11  12
ENDBRANCH  10  11
ENDBRANCH   7  10
ENDBRANCH   1   7
BRANCH   3  17
HETATM   17  O2  UNL     1      13.238  23.530  15.704  1.00  0.00    -0.393 OA
ATOM     18  H2  UNL     1      12.538  23.189  16.249  1.00  0.00     0.210 HD
ENDBRANCH   3  17
BRANCH   5  19
HETATM   19  O4  UNL     1      13.911  20.522  18.771  1.00  0.00    -0.369 OA
ATOM     20  H4  UNL     1      13.755  19.603  18.590  1.00  0.00     0.212 HD
ENDBRANCH   5  19
BRANCH   4  21
HETATM   21  O3  UNL     1      14.123  23.486  18.310  1.00  0.00    -0.388 OA
ATOM     22  H3  UNL     1      13.515  24.078  17.883  1.00  0.00     0.210 HD
ENDBRANCH   4  21
TORSDOF 11
ENDMDL