MODEL 2
REMARK VINA RESULT: -7.173024613      4.939      8.173
REMARK  8 active torsions:
REMARK  status: ('A' for Active; 'I' for Inactive)
REMARK    1  A    between atoms: C2_2  and  N1_3
REMARK    2  A    between atoms: C2_2  and  C5_10
REMARK    3  A    between atoms: C5_10  and  N4_13
REMARK       I    between atoms: N4_13  and  C8_15
REMARK       I    between atoms: C8_15  and  N5_17
REMARK    4  A    between atoms: N5_17  and  C9_19
REMARK    5  A    between atoms: C9_19  and  O2_20
REMARK    6  A    between atoms: C9_19  and  N6_22
REMARK    7  A    between atoms: N6_22  and  C10_24
REMARK    8  A    between atoms: C12_27  and  N7_28
ROOT
HETATM    1  N4  UNL     1       7.782  19.079  13.728  1.00  0.00    -0.332 N
ATOM      2  H4  UNL     1       7.322  19.555  12.952  1.00  0.00     0.165 HD
HETATM    3  C8  UNL     1       8.896  18.285  13.427  1.00  0.00     0.320 C
HETATM    4  O1  UNL     1       9.462  17.694  14.411  1.00  0.00    -0.247 OA
HETATM    5  N5  UNL     1       9.400  18.122  12.110  1.00  0.00    -0.300 N
ATOM      6  H5  UNL     1       8.915  18.614  11.360  1.00  0.00     0.168 HD
ENDROOT
BRANCH   1   7
HETATM    7  C5  UNL     1       7.236  19.275  15.037  1.00  0.00     0.049 C
HETATM    8  C6  UNL     1       8.392  19.495  15.993  1.00  0.00     0.040 C
HETATM    9  C7  UNL     1       6.491  18.055  15.539  1.00  0.00     0.040 C
BRANCH   7  10
HETATM   10  C2  UNL     1       6.339  20.478  15.120  1.00  0.00     0.132 C
HETATM   11  C1  UNL     1       5.552  20.522  16.409  1.00  0.00     0.037 C
BRANCH  10  12
HETATM   12  N1  UNL     1       5.386  20.458  14.029  1.00  0.00    -0.280 N
HETATM   13  C3  UNL     1       5.671  20.461  12.709  1.00  0.00     0.201 A
HETATM   14  N2  UNL     1       4.492  20.437  12.075  1.00  0.00    -0.346 N
HETATM   15  C4  UNL     1       3.501  20.419  12.966  1.00  0.00     0.198 A
ATOM     16  H2  UNL     1       4.370  20.432  11.062  1.00  0.00     0.167 HD
HETATM   17  N3  UNL     1       4.061  20.432  14.171  1.00  0.00    -0.293 N
ATOM     18  H3  UNL     1       3.560  20.422  15.060  1.00  0.00     0.188 HD
ENDBRANCH  10  12
ENDBRANCH   7  10
ENDBRANCH   1   7
BRANCH   5  19
HETATM   19  C9  UNL     1      10.534  17.322  11.748  1.00  0.00     0.331 C
BRANCH  19  20
HETATM   20  O2  UNL     1      11.042  17.713  10.487  1.00  0.00    -0.359 OA
ATOM     21  H2  UNL     1      11.127  18.657  10.434  1.00  0.00     0.214 HD
ENDBRANCH  19  20
BRANCH  19  22
HETATM   22  N6  UNL     1      11.611  17.283  12.662  1.00  0.00    -0.333 N
ATOM     23  H6  UNL     1      11.756  16.438  13.215  1.00  0.00     0.165 HD
BRANCH  22  24
HETATM   24  C10 UNL     1      12.515  18.398  12.842  1.00  0.00     0.112 A
HETATM   25  C11 UNL     1      12.800  18.831  14.118  1.00  0.00     0.101 A
HETATM   26  S1  UNL     1      13.857  20.136  13.830  1.00  0.00    -0.062 SA
HETATM   27  C12 UNL     1      13.882  20.065  12.126  1.00  0.00     0.143 A
HETATM   28  N8  UNL     1      13.073  19.039  11.857  1.00  0.00    -0.323 N
ATOM     29  H8  UNL     1      12.895  18.761  10.892  1.00  0.00     0.169 HD
BRANCH  27  30
HETATM   30  N7  UNL     1      14.538  20.836  11.282  1.00  0.00    -0.380 N
ATOM     31  H72 UNL     1      15.523  21.101  11.297  1.00  0.00     0.158 HD
ATOM     32  H71 UNL     1      14.186  21.313  10.452  1.00  0.00     0.158 HD
ENDBRANCH  27  30
ENDBRANCH  22  24
ENDBRANCH  19  22
ENDBRANCH   5  19
TORSDOF 8
ENDMDL