MODEL 2
REMARK VINA RESULT: -5.830056840      1.332      1.670
REMARK  11 active torsions:
REMARK  status: ('A' for Active; 'I' for Inactive)
REMARK    1  A    between atoms: C2_2  and  S1_3
REMARK    2  A    between atoms: C4_6  and  S3_7
REMARK    3  A    between atoms: S3_7  and  C5_8
REMARK    4  A    between atoms: C5_8  and  C6_9
REMARK    5  A    between atoms: C6_9  and  O1_10
REMARK    6  A    between atoms: C6_9  and  C7_12
REMARK    7  A    between atoms: C7_12  and  C8_13
REMARK    8  A    between atoms: C8_13  and  N1_14
REMARK    9  A    between atoms: C9_18  and  O2_19
REMARK   10  A    between atoms: C10_21  and  O3_22
REMARK   11  A    between atoms: C11_24  and  O4_25
ROOT
HETATM    1  C1  UNL     1      16.015  22.161  16.674  1.00  0.00     0.031 C
HETATM    2  C2  UNL     1      14.752  22.160  15.843  1.00  0.00     0.045 C
HETATM    3  C3  UNL     1      14.943  21.612  14.482  1.00  0.00     0.041 C
HETATM    4  C4  UNL     1      14.560  20.110  14.370  1.00  0.00     0.080 C
HETATM    5  C9  UNL     1      13.154  19.922  14.756  1.00  0.00     0.163 C
HETATM    6  C10 UNL     1      12.609  21.077  15.601  1.00  0.00     0.178 C
HETATM    7  C11 UNL     1      13.633  21.491  16.611  1.00  0.00     0.168 C
ENDROOT
BRANCH   4   8
HETATM    8  S3  UNL     1      15.000  19.617  12.755  1.00  0.00    -0.159 SA
BRANCH   8   9
HETATM    9  C5  UNL     1      13.976  19.652  11.388  1.00  0.00     0.106 C
BRANCH   9  10
HETATM   10  C6  UNL     1      12.724  18.909  11.185  1.00  0.00     0.129 C
BRANCH  10  11
HETATM   11  O1  UNL     1      12.700  18.449   9.842  1.00  0.00    -0.395 OA
ATOM     12  H1  UNL     1      12.471  17.527   9.852  1.00  0.00     0.210 HD
ENDBRANCH  10  11
BRANCH  10  13
HETATM   13  C7  UNL     1      12.327  17.892  12.143  1.00  0.00     0.059 C
BRANCH  13  14
HETATM   14  C8  UNL     1      11.144  17.044  11.650  1.00  0.00     0.232 C
BRANCH  14  15
HETATM   15  N1  UNL     1      10.065  17.808  11.137  1.00  0.00    -0.079 N
ATOM     16  H13 UNL     1       9.223  17.656  11.692  1.00  0.00     0.274 HD
ATOM     17  H12 UNL     1      10.211  18.801  11.316  1.00  0.00     0.274 HD
ATOM     18  H11 UNL     1       9.877  17.645  10.148  1.00  0.00     0.274 HD
ENDBRANCH  14  15
ENDBRANCH  13  14
ENDBRANCH  10  13
ENDBRANCH   9  10
ENDBRANCH   8   9
ENDBRANCH   4   8
BRANCH   5  19
HETATM   19  O2  UNL     1      13.089  18.810  15.613  1.00  0.00    -0.392 OA
ATOM     20  H2  UNL     1      13.812  18.233  15.394  1.00  0.00     0.210 HD
ENDBRANCH   5  19
BRANCH   2  21
HETATM   21  S1  UNL     1      14.242  23.916  15.676  1.00  0.00    -0.073 SA
HETATM   22  S2  UNL     1      14.957  25.067  17.322  1.00  0.00    -0.012 SA
ENDBRANCH   2  21
BRANCH   6  23
HETATM   23  O3  UNL     1      11.460  20.674  16.274  1.00  0.00    -0.390 OA
ATOM     24  H3  UNL     1      11.181  21.353  16.877  1.00  0.00     0.210 HD
ENDBRANCH   6  23
BRANCH   7  25
HETATM   25  O4  UNL     1      14.053  20.409  17.347  1.00  0.00    -0.391 OA
ATOM     26  H4  UNL     1      14.027  19.593  16.860  1.00  0.00     0.210 HD
ENDBRANCH   7  25
TORSDOF 11
ENDMDL