MODEL 5
REMARK VINA RESULT: -7.778038590      1.138      1.577
REMARK  8 active torsions:
REMARK  status: ('A' for Active; 'I' for Inactive)
REMARK       I    between atoms: C1_4  and  N2_5
REMARK       I    between atoms: C1_4  and  N4_24
REMARK    1  A    between atoms: N2_5  and  C2_7
REMARK    2  A    between atoms: C5_10  and  S1_11
REMARK    3  A    between atoms: S1_11  and  C6_14
REMARK    4  A    between atoms: C7_15  and  C8_16
REMARK    5  A    between atoms: C8_16  and  O3_17
REMARK    6  A    between atoms: C8_16  and  N3_19
REMARK    7  A    between atoms: N3_19  and  O4_20
REMARK    8  A    between atoms: N4_24  and  N5_26
ROOT
HETATM    1  C2  UNL     1       6.911  19.032  14.064  1.00  0.00     0.049 A
HETATM    2  C3  UNL     1       7.760  18.867  15.128  1.00  0.00     0.031 A
HETATM    3  C4  UNL     1       9.065  18.430  14.920  1.00  0.00     0.026 A
HETATM    4  C5  UNL     1       9.506  18.162  13.644  1.00  0.00     0.063 A
HETATM    5  C9  UNL     1       8.658  18.328  12.586  1.00  0.00     0.026 A
HETATM    6  C10 UNL     1       7.371  18.760  12.804  1.00  0.00     0.031 A
ENDROOT
BRANCH   1   7
HETATM    7  N2  UNL     1       5.598  19.471  14.267  1.00  0.00    -0.191 N
HETATM    8  C1  UNL     1       5.229  20.818  14.491  1.00  0.00     0.695 C
HETATM    9  N1  UNL     1       5.589  21.392  15.574  1.00  0.00    -0.233 N
HETATM   10  N4  UNL     1       4.473  21.499  13.517  1.00  0.00    -0.072 N
ATOM     11  H12 UNL     1       6.136  20.899  16.280  1.00  0.00     0.174 HD
ATOM     12  H11 UNL     1       5.323  22.364  15.736  1.00  0.00     0.174 HD
ATOM     13  H4  UNL     1       4.457  22.519  13.542  1.00  0.00     0.212 HD
ATOM     14  H2  UNL     1       4.855  18.772  14.254  1.00  0.00     0.184 HD
BRANCH  10  15
HETATM   15  N5  UNL     1       3.744  20.848  12.517  1.00  0.00    -0.024 N
HETATM   16  O5  UNL     1       4.320  20.432  11.510  1.00  0.00    -0.516 OA
HETATM   17  O6  UNL     1       2.396  20.655  12.621  1.00  0.00    -0.516 OA
ENDBRANCH  10  15
ENDBRANCH   1   7
BRANCH   4  18
HETATM   18  S1  UNL     1      11.147  17.614  13.397  1.00  0.00     0.196 S
HETATM   19  O1  UNL     1      11.735  17.058  14.658  1.00  0.00    -0.218 OA
HETATM   20  O2  UNL     1      11.214  16.604  12.270  1.00  0.00    -0.218 OA
BRANCH  18  21
HETATM   21  C6  UNL     1      12.118  18.982  12.909  1.00  0.00     0.114 C
HETATM   22  C7  UNL     1      13.025  18.813  11.960  1.00  0.00     0.036 C
BRANCH  22  23
HETATM   23  C8  UNL     1      13.839  20.000  11.565  1.00  0.00     0.262 C
BRANCH  23  24
HETATM   24  O3  UNL     1      13.804  20.910  12.624  1.00  0.00    -0.374 OA
ATOM     25  H3  UNL     1      13.312  20.509  13.331  1.00  0.00     0.212 HD
ENDBRANCH  23  24
BRANCH  23  26
HETATM   26  N3  UNL     1      13.200  20.551  10.367  1.00  0.00    -0.067 NA
BRANCH  26  27
HETATM   27  O4  UNL     1      12.836  19.570   9.535  1.00  0.00    -0.293 OA
ATOM     28  H4  UNL     1      11.924  19.667   9.283  1.00  0.00     0.238 HD
ENDBRANCH  26  27
ENDBRANCH  23  26
ENDBRANCH  22  23
ENDBRANCH  18  21
ENDBRANCH   4  18
TORSDOF 8
ENDMDL