MODEL 2
REMARK VINA RESULT: -7.667222533      1.003      1.510
REMARK  12 active torsions:
REMARK  status: ('A' for Active; 'I' for Inactive)
REMARK    1  A    between atoms: C2_2  and  C3_3
REMARK    2  A    between atoms: C3_3  and  C4_4
REMARK    3  A    between atoms: C4_4  and  C5_5
REMARK    4  A    between atoms: C5_5  and  C6_6
REMARK    5  A    between atoms: C7_7  and  O1_8
REMARK    6  A    between atoms: C8_10  and  O2_11
REMARK    7  A    between atoms: C9_13  and  O3_14
REMARK    8  A    between atoms: C10_16  and  N1_17
REMARK    9  A    between atoms: C12_19  and  C13_20
REMARK   10  A    between atoms: C14_21  and  C15_22
REMARK   11  A    between atoms: C15_22  and  O4_23
REMARK   12  A    between atoms: N2_25  and  O5_27
ROOT
HETATM    1  C6  UNL     1      12.873  19.188  12.468  1.00  0.00     0.044 C
HETATM    2  C7  UNL     1      13.740  20.141  13.198  1.00  0.00     0.155 C
HETATM    3  C8  UNL     1      14.229  19.457  14.448  1.00  0.00     0.178 C
HETATM    4  C9  UNL     1      13.346  18.256  14.660  1.00  0.00     0.174 C
HETATM    5  C10 UNL     1      12.457  18.112  13.448  1.00  0.00     0.147 C
ENDROOT
BRANCH   5   6
HETATM    6  N1  UNL     1      11.066  18.252  13.825  1.00  0.00    -0.279 N
HETATM    7  C11 UNL     1      10.505  18.853  14.876  1.00  0.00     0.143 A
HETATM    8  C12 UNL     1       9.140  18.709  14.781  1.00  0.00     0.066 A
HETATM    9  N3  UNL     1       8.914  18.018  13.664  1.00  0.00    -0.285 N
HETATM   10  N4  UNL     1      10.079  17.753  13.104  1.00  0.00    -0.240 N
ATOM     11  H3  UNL     1       8.000  17.743  13.304  1.00  0.00     0.188 HD
ATOM     12  H4  UNL     1      10.200  17.235  12.233  1.00  0.00     0.208 HD
BRANCH   8  13
HETATM   13  C13 UNL     1       8.120  19.208  15.713  1.00  0.00     0.037 C
HETATM   14  C14 UNL     1       7.130  19.960  15.318  1.00  0.00     0.060 C
BRANCH  14  15
HETATM   15  C15 UNL     1       6.050  20.537  16.065  1.00  0.00     0.159 C
HETATM   16  N2  UNL     1       4.841  20.609  15.709  1.00  0.00    -0.248 N
ATOM     17  H2  UNL     1       4.187  21.052  16.354  1.00  0.00     0.196 HD
BRANCH  15  18
HETATM   18  O4  UNL     1       6.300  21.107  17.352  1.00  0.00    -0.345 OA
ATOM     19  H4  UNL     1       5.572  21.335  17.917  1.00  0.00     0.219 HD
ENDBRANCH  15  18
BRANCH  16  20
HETATM   20  O5  UNL     1       4.349  20.149  14.553  1.00  0.00    -0.288 OA
ATOM     21  H5  UNL     1       3.907  19.316  14.438  1.00  0.00     0.244 HD
ENDBRANCH  16  20
ENDBRANCH  14  15
ENDBRANCH   8  13
ENDBRANCH   5   6
BRANCH   1  22
HETATM   22  C5  UNL     1      13.488  18.591  11.207  1.00  0.00     0.009 C
BRANCH  22  23
HETATM   23  C4  UNL     1      12.499  18.257  10.176  1.00  0.00     0.001 C
BRANCH  23  24
HETATM   24  C3  UNL     1      13.018  18.318   8.786  1.00  0.00    -0.000 C
BRANCH  24  25
HETATM   25  C2  UNL     1      12.834  19.541   7.981  1.00  0.00    -0.005 C
HETATM   26  C1  UNL     1      13.899  20.584   8.010  1.00  0.00     0.005 C
ENDBRANCH  24  25
ENDBRANCH  23  24
ENDBRANCH  22  23
ENDBRANCH   1  22
BRANCH   4  27
HETATM   27  O3  UNL     1      14.062  17.109  14.953  1.00  0.00    -0.391 OA
ATOM     28  H3  UNL     1      13.507  16.388  15.225  1.00  0.00     0.210 HD
ENDBRANCH   4  27
BRANCH   2  29
HETATM   29  O1  UNL     1      14.799  20.669  12.512  1.00  0.00    -0.392 OA
ATOM     30  H1  UNL     1      15.232  21.421  12.898  1.00  0.00     0.210 HD
ENDBRANCH   2  29
BRANCH   3  31
HETATM   31  O2  UNL     1      14.154  20.303  15.579  1.00  0.00    -0.390 OA
ATOM     32  H2  UNL     1      14.757  20.037  16.263  1.00  0.00     0.210 HD
ENDBRANCH   3  31
TORSDOF 12
ENDMDL