MODEL 2
REMARK VINA RESULT: -9.735945989      1.294      2.189
REMARK  20 active torsions:
REMARK  status: ('A' for Active; 'I' for Inactive)
REMARK    1  A    between atoms: C2_2  and  C3_3
REMARK    2  A    between atoms: C3_3  and  C4_4
REMARK    3  A    between atoms: C4_4  and  C5_5
REMARK    4  A    between atoms: C6_6  and  C7_7
REMARK    5  A    between atoms: C7_7  and  C8_8
REMARK    6  A    between atoms: C9_9  and  C10_10
REMARK    7  A    between atoms: C10_10  and  C11_11
REMARK    8  A    between atoms: C12_12  and  C13_13
REMARK    9  A    between atoms: C13_13  and  C14_14
REMARK   10  A    between atoms: C15_15  and  C16_16
REMARK   11  A    between atoms: C16_16  and  C17_17
REMARK   12  A    between atoms: C18_18  and  C19_19
REMARK   13  A    between atoms: C19_19  and  C20_20
REMARK   14  A    between atoms: C21_21  and  C22_22
REMARK   15  A    between atoms: C22_22  and  C23_23
REMARK   16  A    between atoms: C24_24  and  C25_25
REMARK   17  A    between atoms: C25_25  and  C26_26
REMARK   18  A    between atoms: C27_27  and  C28_28
REMARK   19  A    between atoms: C28_28  and  C29_29
REMARK   20  A    between atoms: C30_30  and  C31_31
ROOT
HETATM    1  C31 UNL     1      86.947   9.164   2.275  1.00  0.00     0.150 C
HETATM    2  C32 UNL     1      87.738   7.933   2.225  1.00  0.00     0.062 C
HETATM    3  N1  UNL     1      88.357   6.944   2.176  1.00  0.00    -0.197 NA
ENDROOT
BRANCH   1   4
HETATM    4  C30 UNL     1      85.866   9.091   3.291  1.00  0.00    -0.017 C
HETATM    5  C29 UNL     1      85.426  10.187   3.880  1.00  0.00    -0.026 C
BRANCH   5   6
HETATM    6  C28 UNL     1      84.324  10.118   4.914  1.00  0.00     0.053 C
BRANCH   6   7
HETATM    7  C27 UNL     1      83.259  11.069   4.595  1.00  0.00    -0.027 C
HETATM    8  C26 UNL     1      83.274  12.338   4.842  1.00  0.00    -0.027 C
BRANCH   8   9
HETATM    9  C25 UNL     1      84.405  13.065   5.507  1.00  0.00     0.053 C
BRANCH   9  10
HETATM   10  C24 UNL     1      85.000  14.040   4.575  1.00  0.00    -0.027 C
HETATM   11  C23 UNL     1      86.235  14.389   4.457  1.00  0.00    -0.027 C
BRANCH  11  12
HETATM   12  C22 UNL     1      87.337  13.824   5.301  1.00  0.00     0.053 C
BRANCH  12  13
HETATM   13  C21 UNL     1      88.273  13.176   4.367  1.00  0.00    -0.027 C
HETATM   14  C20 UNL     1      88.810  12.012   4.362  1.00  0.00    -0.027 C
BRANCH  14  15
HETATM   15  C19 UNL     1      88.762  10.839   5.216  1.00  0.00     0.053 C
BRANCH  15  16
HETATM   16  C18 UNL     1      89.883   9.923   5.158  1.00  0.00    -0.027 C
HETATM   17  C17 UNL     1      90.974   9.956   5.846  1.00  0.00    -0.027 C
BRANCH  17  18
HETATM   18  C16 UNL     1      91.312  10.959   6.861  1.00  0.00     0.053 C
BRANCH  18  19
HETATM   19  C15 UNL     1      90.663  10.607   8.148  1.00  0.00    -0.027 C
HETATM   20  C14 UNL     1      91.195   9.830   9.044  1.00  0.00    -0.027 C
BRANCH  20  21
HETATM   21  C13 UNL     1      92.524   9.184   8.912  1.00  0.00     0.053 C
BRANCH  21  22
HETATM   22  C12 UNL     1      92.783   8.505  10.201  1.00  0.00    -0.027 C
HETATM   23  C11 UNL     1      92.696   7.259  10.419  1.00  0.00    -0.027 C
BRANCH  23  24
HETATM   24  C10 UNL     1      92.320   6.214   9.451  1.00  0.00     0.053 C
BRANCH  24  25
HETATM   25  C9  UNL     1      93.569   5.489   9.100  1.00  0.00    -0.027 C
HETATM   26  C8  UNL     1      93.902   4.345   9.572  1.00  0.00    -0.027 C
BRANCH  26  27
HETATM   27  C7  UNL     1      93.148   3.535  10.528  1.00  0.00     0.053 C
BRANCH  27  28
HETATM   28  C6  UNL     1      92.295   2.573   9.755  1.00  0.00    -0.027 C
HETATM   29  C5  UNL     1      92.323   1.273   9.955  1.00  0.00    -0.030 C
BRANCH  29  30
HETATM   30  C4  UNL     1      91.460   0.365   9.165  1.00  0.00     0.027 C
BRANCH  30  31
HETATM   31  C3  UNL     1      90.265   1.085   8.578  1.00  0.00     0.003 C
BRANCH  31  32
HETATM   32  C2  UNL     1      89.030   0.898   9.436  1.00  0.00    -0.004 C
HETATM   33  C1  UNL     1      88.263   2.166   9.612  1.00  0.00     0.005 C
ENDBRANCH  31  32
ENDBRANCH  30  31
ENDBRANCH  29  30
ENDBRANCH  27  28
ENDBRANCH  26  27
ENDBRANCH  24  25
ENDBRANCH  23  24
ENDBRANCH  21  22
ENDBRANCH  20  21
ENDBRANCH  18  19
ENDBRANCH  17  18
ENDBRANCH  15  16
ENDBRANCH  14  15
ENDBRANCH  12  13
ENDBRANCH  11  12
ENDBRANCH   9  10
ENDBRANCH   8   9
ENDBRANCH   6   7
ENDBRANCH   5   6
ENDBRANCH   1   4
TORSDOF 20
ENDMDL