MODEL 2
REMARK VINA RESULT: -9.908168004      2.064      5.952
REMARK  21 active torsions:
REMARK  status: ('A' for Active; 'I' for Inactive)
REMARK    1  A    between atoms: C2_2  and  C3_3
REMARK    2  A    between atoms: C3_3  and  C4_4
REMARK    3  A    between atoms: C4_4  and  C5_5
REMARK    4  A    between atoms: C5_5  and  C6_6
REMARK    5  A    between atoms: C7_7  and  C8_8
REMARK    6  A    between atoms: C8_8  and  C9_9
REMARK    7  A    between atoms: C10_10  and  C11_11
REMARK    8  A    between atoms: C11_11  and  C12_12
REMARK    9  A    between atoms: C13_13  and  C14_14
REMARK   10  A    between atoms: C14_14  and  C15_15
REMARK   11  A    between atoms: C16_16  and  C17_17
REMARK   12  A    between atoms: C17_17  and  C18_18
REMARK   13  A    between atoms: C19_19  and  C20_20
REMARK   14  A    between atoms: C20_20  and  C21_21
REMARK   15  A    between atoms: C22_22  and  C23_23
REMARK   16  A    between atoms: C23_23  and  C24_24
REMARK   17  A    between atoms: C26_26  and  C27_27
REMARK   18  A    between atoms: C27_27  and  C28_28
REMARK   19  A    between atoms: C28_28  and  C29_29
REMARK   20  A    between atoms: C29_29  and  C30_30
REMARK   21  A    between atoms: C30_30  and  O2_32
ROOT
HETATM    1  C17 UNL     1      93.133   4.750  10.152  1.00  0.00     0.053 C
ENDROOT
BRANCH   1   2
HETATM    2  C16 UNL     1      92.805   3.335  10.495  1.00  0.00    -0.027 C
HETATM    3  C15 UNL     1      92.679   2.455   9.539  1.00  0.00    -0.027 C
BRANCH   3   4
HETATM    4  C14 UNL     1      92.347   1.031   9.917  1.00  0.00     0.053 C
BRANCH   4   5
HETATM    5  C13 UNL     1      91.438   0.477   8.911  1.00  0.00    -0.027 C
HETATM    6  C12 UNL     1      90.142   0.593   8.964  1.00  0.00    -0.027 C
BRANCH   6   7
HETATM    7  C11 UNL     1      89.371   1.281  10.013  1.00  0.00     0.053 C
BRANCH   7   8
HETATM    8  C10 UNL     1      87.939   1.435   9.586  1.00  0.00    -0.027 C
HETATM    9  C9  UNL     1      87.115   0.413   9.575  1.00  0.00    -0.027 C
BRANCH   9  10
HETATM   10  C8  UNL     1      85.681   0.542   9.152  1.00  0.00     0.053 C
BRANCH  10  11
HETATM   11  C7  UNL     1      85.451  -0.423   8.052  1.00  0.00    -0.027 C
HETATM   12  C6  UNL     1      84.807  -0.143   6.943  1.00  0.00    -0.030 C
BRANCH  12  13
HETATM   13  C5  UNL     1      84.199   1.148   6.572  1.00  0.00     0.027 C
BRANCH  13  14
HETATM   14  C4  UNL     1      83.356   0.886   5.332  1.00  0.00     0.007 C
BRANCH  14  15
HETATM   15  C3  UNL     1      84.127   1.360   4.133  1.00  0.00     0.026 C
BRANCH  15  16
HETATM   16  C2  UNL     1      83.359   0.912   2.914  1.00  0.00    -0.037 C
HETATM   17  C1  UNL     1      82.265   0.198   3.071  1.00  0.00     0.007 C
ENDBRANCH  15  16
ENDBRANCH  14  15
ENDBRANCH  13  14
ENDBRANCH  12  13
ENDBRANCH  10  11
ENDBRANCH   9  10
ENDBRANCH   7   8
ENDBRANCH   6   7
ENDBRANCH   4   5
ENDBRANCH   3   4
ENDBRANCH   1   2
BRANCH   1  18
HETATM   18  C18 UNL     1      94.386   4.719   9.365  1.00  0.00    -0.027 C
HETATM   19  C19 UNL     1      94.567   5.318   8.229  1.00  0.00    -0.027 C
BRANCH  19  20
HETATM   20  C20 UNL     1      93.570   6.124   7.533  1.00  0.00     0.053 C
BRANCH  20  21
HETATM   21  C21 UNL     1      93.665   7.566   7.978  1.00  0.00    -0.027 C
HETATM   22  C22 UNL     1      92.695   8.408   7.777  1.00  0.00    -0.026 C
BRANCH  22  23
HETATM   23  C23 UNL     1      92.712   9.814   8.179  1.00  0.00     0.060 C
BRANCH  23  24
HETATM   24  C24 UNL     1      91.425  10.249   8.736  1.00  0.00    -0.084 C
HETATM   25  C25 UNL     1      90.973   9.749  10.098  1.00  0.00     0.043 C
HETATM   26  C26 UNL     1      90.589  11.021   8.110  1.00  0.00    -0.024 C
BRANCH  26  27
HETATM   27  C27 UNL     1      90.715  11.621   6.758  1.00  0.00     0.028 C
BRANCH  27  28
HETATM   28  C28 UNL     1      89.534  11.312   5.890  1.00  0.00     0.013 C
BRANCH  28  29
HETATM   29  C29 UNL     1      88.649  12.483   5.690  1.00  0.00     0.111 C
BRANCH  29  30
HETATM   30  C30 UNL     1      87.886  12.412   4.443  1.00  0.00     0.258 C
HETATM   31  O1  UNL     1      88.244  12.822   3.314  1.00  0.00    -0.265 OA
BRANCH  30  32
HETATM   32  O2  UNL     1      86.614  11.821   4.514  1.00  0.00    -0.326 OA
HETATM   33  C31 UNL     1      85.712  12.076   5.566  1.00  0.00     0.213 C
ENDBRANCH  30  32
ENDBRANCH  29  30
ENDBRANCH  28  29
ENDBRANCH  27  28
ENDBRANCH  26  27
ENDBRANCH  23  24
ENDBRANCH  22  23
ENDBRANCH  20  21
ENDBRANCH  19  20
ENDBRANCH   1  18
TORSDOF 21
ENDMDL