MODEL 1
REMARK VINA RESULT: -10.471876271      0.000      0.000
REMARK  20 active torsions:
REMARK  status: ('A' for Active; 'I' for Inactive)
REMARK    1  A    between atoms: C2_2  and  C3_3
REMARK    2  A    between atoms: C4_4  and  C5_5
REMARK    3  A    between atoms: C5_5  and  C6_6
REMARK    4  A    between atoms: C6_6  and  C7_7
REMARK    5  A    between atoms: C7_7  and  C8_8
REMARK    6  A    between atoms: C9_9  and  C10_10
REMARK    7  A    between atoms: C10_10  and  C11_11
REMARK    8  A    between atoms: C12_12  and  C13_13
REMARK    9  A    between atoms: C13_13  and  C14_14
REMARK   10  A    between atoms: C15_15  and  C16_16
REMARK   11  A    between atoms: C16_16  and  C17_17
REMARK   12  A    between atoms: C18_18  and  C19_19
REMARK   13  A    between atoms: C19_19  and  C20_20
REMARK   14  A    between atoms: C20_20  and  C21_21
REMARK   15  A    between atoms: C22_22  and  C23_23
REMARK   16  A    between atoms: C23_23  and  C24_24
REMARK   17  A    between atoms: C24_24  and  C25_25
REMARK   18  A    between atoms: C25_25  and  C26_26
REMARK   19  A    between atoms: C27_27  and  C28_28
REMARK   20  A    between atoms: C28_28  and  C29_29
ROOT
HETATM    1  C16 UNL     1      92.703   1.913   9.274  1.00  0.00     0.053 C
ENDROOT
BRANCH   1   2
HETATM    2  C15 UNL     1      92.934   2.707  10.496  1.00  0.00    -0.027 C
HETATM    3  C14 UNL     1      92.904   4.043  10.462  1.00  0.00    -0.027 C
BRANCH   3   4
HETATM    4  C13 UNL     1      92.650   4.745   9.205  1.00  0.00     0.053 C
BRANCH   4   5
HETATM    5  C12 UNL     1      93.781   5.178   8.425  1.00  0.00    -0.027 C
HETATM    6  C11 UNL     1      94.058   6.164   7.706  1.00  0.00    -0.027 C
BRANCH   6   7
HETATM    7  C10 UNL     1      93.383   7.424   7.286  1.00  0.00     0.053 C
BRANCH   7   8
HETATM    8  C9  UNL     1      93.718   8.399   8.397  1.00  0.00    -0.027 C
HETATM    9  C8  UNL     1      92.921   8.790   9.299  1.00  0.00    -0.029 C
BRANCH   9  10
HETATM   10  C7  UNL     1      91.525   8.522   9.642  1.00  0.00     0.038 C
BRANCH  10  11
HETATM   11  C6  UNL     1      90.916   9.951   9.807  1.00  0.00     0.088 C
BRANCH  11  12
HETATM   12  C5  UNL     1      90.780  10.708   8.779  1.00  0.00    -0.156 C
BRANCH  12  13
HETATM   13  C4  UNL     1      90.522  11.449   7.661  1.00  0.00     0.046 C
HETATM   14  C3  UNL     1      90.235  10.873   6.497  1.00  0.00    -0.019 C
BRANCH  14  15
HETATM   15  C2  UNL     1      89.943  11.594   5.252  1.00  0.00     0.023 C
HETATM   16  C1  UNL     1      88.523  11.192   4.843  1.00  0.00     0.009 C
ENDBRANCH  14  15
ENDBRANCH  12  13
ENDBRANCH  11  12
ENDBRANCH  10  11
ENDBRANCH   9  10
ENDBRANCH   7   8
ENDBRANCH   6   7
ENDBRANCH   4   5
ENDBRANCH   3   4
ENDBRANCH   1   2
BRANCH   1  17
HETATM   17  C17 UNL     1      92.131   0.581   9.593  1.00  0.00    -0.027 C
HETATM   18  C18 UNL     1      90.916   0.224   9.344  1.00  0.00    -0.030 C
BRANCH  18  19
HETATM   19  C19 UNL     1      89.860   1.021   8.706  1.00  0.00     0.030 C
BRANCH  19  20
HETATM   20  C20 UNL     1      88.928   1.523   9.808  1.00  0.00     0.030 C
BRANCH  20  21
HETATM   21  C21 UNL     1      87.537   1.364   9.373  1.00  0.00    -0.030 C
HETATM   22  C22 UNL     1      86.859   0.259   9.360  1.00  0.00    -0.031 C
BRANCH  22  23
HETATM   23  C23 UNL     1      85.432   0.300   8.872  1.00  0.00     0.027 C
BRANCH  23  24
HETATM   24  C24 UNL     1      85.452   1.133   7.603  1.00  0.00     0.007 C
BRANCH  24  25
HETATM   25  C25 UNL     1      84.115   1.480   7.064  1.00  0.00     0.027 C
BRANCH  25  26
HETATM   26  C26 UNL     1      83.791   0.575   5.900  1.00  0.00    -0.031 C
HETATM   27  C27 UNL     1      83.120   1.011   4.874  1.00  0.00    -0.030 C
BRANCH  27  28
HETATM   28  C28 UNL     1      82.747   0.240   3.690  1.00  0.00     0.031 C
BRANCH  28  29
HETATM   29  C29 UNL     1      83.379   0.700   2.409  1.00  0.00    -0.011 C
HETATM   30  C30 UNL     1      84.426   1.787   2.596  1.00  0.00     0.005 C
HETATM   31  C31 UNL     1      83.515   2.681   1.754  1.00  0.00     0.001 C
HETATM   32  C32 UNL     1      82.590   1.523   1.458  1.00  0.00     0.005 C
ENDBRANCH  28  29
ENDBRANCH  27  28
ENDBRANCH  25  26
ENDBRANCH  24  25
ENDBRANCH  23  24
ENDBRANCH  22  23
ENDBRANCH  20  21
ENDBRANCH  19  20
ENDBRANCH  18  19
ENDBRANCH   1  17
TORSDOF 20
ENDMDL