MODEL 1
REMARK VINA RESULT: -10.550087841      0.000      0.000
REMARK  19 active torsions:
REMARK  status: ('A' for Active; 'I' for Inactive)
REMARK    1  A    between atoms: C2_2  and  C3_3
REMARK    2  A    between atoms: C3_3  and  C4_4
REMARK    3  A    between atoms: C4_4  and  C5_5
REMARK    4  A    between atoms: C5_5  and  C6_6
REMARK    5  A    between atoms: C7_7  and  C8_8
REMARK    6  A    between atoms: C8_8  and  C9_9
REMARK    7  A    between atoms: C10_10  and  C11_11
REMARK    8  A    between atoms: C11_11  and  C12_12
REMARK    9  A    between atoms: C13_13  and  C14_14
REMARK   10  A    between atoms: C14_14  and  C15_15
REMARK   11  A    between atoms: C16_16  and  C17_17
REMARK   12  A    between atoms: C17_17  and  C18_18
REMARK   13  A    between atoms: C19_19  and  C20_20
REMARK   14  A    between atoms: C20_20  and  C21_21
REMARK   15  A    between atoms: C22_22  and  C23_23
REMARK   16  A    between atoms: C23_23  and  C24_24
REMARK   17  A    between atoms: C24_24  and  C25_25
REMARK   18  A    between atoms: N1_26  and  C26_28
REMARK   19  A    between atoms: C26_28  and  C27_29
ROOT
HETATM    1  C17 UNL     1      94.163   5.962   7.854  1.00  0.00     0.053 C
ENDROOT
BRANCH   1   2
HETATM    2  C16 UNL     1      94.033   4.679   8.641  1.00  0.00    -0.027 C
HETATM    3  C15 UNL     1      93.494   4.675   9.852  1.00  0.00    -0.027 C
BRANCH   3   4
HETATM    4  C14 UNL     1      93.375   3.409  10.604  1.00  0.00     0.053 C
BRANCH   4   5
HETATM    5  C13 UNL     1      92.144   2.706  10.195  1.00  0.00    -0.027 C
HETATM    6  C12 UNL     1      92.157   1.429   9.928  1.00  0.00    -0.027 C
BRANCH   6   7
HETATM    7  C11 UNL     1      90.942   0.658   9.509  1.00  0.00     0.053 C
BRANCH   7   8
HETATM    8  C10 UNL     1      90.287   1.440   8.463  1.00  0.00    -0.027 C
HETATM    9  C9  UNL     1      89.066   1.867   8.502  1.00  0.00    -0.027 C
BRANCH   9  10
HETATM   10  C8  UNL     1      88.134   1.619   9.635  1.00  0.00     0.053 C
BRANCH  10  11
HETATM   11  C7  UNL     1      87.743   0.200   9.566  1.00  0.00    -0.027 C
HETATM   12  C6  UNL     1      86.572  -0.204   9.208  1.00  0.00    -0.030 C
BRANCH  12  13
HETATM   13  C5  UNL     1      85.460   0.680   8.815  1.00  0.00     0.027 C
BRANCH  13  14
HETATM   14  C4  UNL     1      84.818   0.215   7.525  1.00  0.00     0.004 C
BRANCH  14  15
HETATM   15  C3  UNL     1      84.690   1.289   6.484  1.00  0.00    -0.000 C
BRANCH  15  16
HETATM   16  C2  UNL     1      85.972   2.049   6.383  1.00  0.00    -0.005 C
HETATM   17  C1  UNL     1      86.954   1.260   5.549  1.00  0.00     0.005 C
ENDBRANCH  15  16
ENDBRANCH  14  15
ENDBRANCH  13  14
ENDBRANCH  12  13
ENDBRANCH  10  11
ENDBRANCH   9  10
ENDBRANCH   7   8
ENDBRANCH   6   7
ENDBRANCH   4   5
ENDBRANCH   3   4
ENDBRANCH   1   2
BRANCH   1  18
HETATM   18  C18 UNL     1      94.017   7.087   8.775  1.00  0.00    -0.027 C
HETATM   19  C19 UNL     1      93.494   8.245   8.481  1.00  0.00    -0.027 C
BRANCH  19  20
HETATM   20  C20 UNL     1      92.970   8.596   7.164  1.00  0.00     0.053 C
BRANCH  20  21
HETATM   21  C21 UNL     1      91.622   8.182   6.856  1.00  0.00    -0.027 C
HETATM   22  C22 UNL     1      90.660   8.760   6.254  1.00  0.00    -0.030 C
BRANCH  22  23
HETATM   23  C23 UNL     1      90.480  10.067   5.623  1.00  0.00     0.032 C
BRANCH  23  24
HETATM   24  C24 UNL     1      90.030  11.075   6.692  1.00  0.00     0.048 C
BRANCH  24  25
HETATM   25  C25 UNL     1      89.293  12.155   5.986  1.00  0.00     0.056 C
HETATM   26  N1  UNL     1      88.032  12.319   6.232  1.00  0.00    -0.398 N
ATOM     27  H1  UNL     1      87.579  11.701   6.905  1.00  0.00     0.158 HD
BRANCH  26  28
HETATM   28  C26 UNL     1      87.256  13.332   5.595  1.00  0.00     0.157 C
BRANCH  28  29
HETATM   29  C27 UNL     1      86.082  12.693   4.965  1.00  0.00    -0.041 A
HETATM   30  C28 UNL     1      85.704  12.998   3.686  1.00  0.00     0.009 A
HETATM   31  C29 UNL     1      84.586  12.369   3.130  1.00  0.00     0.001 A
HETATM   32  C30 UNL     1      83.866  11.453   3.853  1.00  0.00     0.000 A
HETATM   33  C31 UNL     1      84.257  11.157   5.135  1.00  0.00     0.001 A
HETATM   34  C32 UNL     1      85.356  11.776   5.679  1.00  0.00     0.009 A
ENDBRANCH  28  29
ENDBRANCH  26  28
ENDBRANCH  24  25
ENDBRANCH  23  24
ENDBRANCH  22  23
ENDBRANCH  20  21
ENDBRANCH  19  20
ENDBRANCH   1  18
TORSDOF 19
ENDMDL