MODEL 1
REMARK VINA RESULT: -9.920491791      0.000      0.000
REMARK  19 active torsions:
REMARK  status: ('A' for Active; 'I' for Inactive)
REMARK    1  A    between atoms: C2_2  and  C3_3
REMARK    2  A    between atoms: C3_3  and  C4_4
REMARK    3  A    between atoms: C4_4  and  C5_5
REMARK    4  A    between atoms: C6_6  and  C7_7
REMARK    5  A    between atoms: C7_7  and  C8_8
REMARK    6  A    between atoms: C9_9  and  C10_10
REMARK    7  A    between atoms: C10_10  and  C11_11
REMARK    8  A    between atoms: C12_12  and  C13_13
REMARK    9  A    between atoms: C13_13  and  C14_14
REMARK   10  A    between atoms: C15_15  and  C16_16
REMARK   11  A    between atoms: C16_16  and  C17_17
REMARK   12  A    between atoms: C17_17  and  C18_18
REMARK   13  A    between atoms: C19_19  and  C20_20
REMARK   14  A    between atoms: C20_20  and  C21_21
REMARK   15  A    between atoms: C21_21  and  C22_22
REMARK   16  A    between atoms: C22_22  and  C23_23
REMARK   17  A    between atoms: C23_23  and  C24_24
REMARK   18  A    between atoms: C24_24  and  C25_25
REMARK   19  A    between atoms: C25_25  and  C26_27
ROOT
HETATM    1  C16 UNL     1      90.784  11.725   6.793  1.00  0.00     0.030 C
ENDROOT
BRANCH   1   2
HETATM    2  C15 UNL     1      91.335  10.375   6.596  1.00  0.00    -0.030 C
HETATM    3  C14 UNL     1      90.592   9.306   6.457  1.00  0.00    -0.027 C
BRANCH   3   4
HETATM    4  C13 UNL     1      91.274   7.974   6.256  1.00  0.00     0.053 C
BRANCH   4   5
HETATM    5  C12 UNL     1      92.025   7.622   7.461  1.00  0.00    -0.027 C
HETATM    6  C11 UNL     1      93.206   7.038   7.370  1.00  0.00    -0.027 C
BRANCH   6   7
HETATM    7  C10 UNL     1      94.004   6.663   8.597  1.00  0.00     0.053 C
BRANCH   7   8
HETATM    8  C9  UNL     1      94.505   5.305   8.362  1.00  0.00    -0.027 C
HETATM    9  C8  UNL     1      94.169   4.271   9.074  1.00  0.00    -0.027 C
BRANCH   9  10
HETATM   10  C7  UNL     1      93.241   4.324  10.209  1.00  0.00     0.053 C
BRANCH  10  11
HETATM   11  C6  UNL     1      92.257   3.204  10.006  1.00  0.00    -0.027 C
HETATM   12  C5  UNL     1      92.522   1.949  10.321  1.00  0.00    -0.030 C
BRANCH  12  13
HETATM   13  C4  UNL     1      91.514   0.915  10.094  1.00  0.00     0.027 C
BRANCH  13  14
HETATM   14  C3  UNL     1      91.004   0.877   8.673  1.00  0.00     0.003 C
BRANCH  14  15
HETATM   15  C2  UNL     1      89.556   1.277   8.568  1.00  0.00    -0.004 C
HETATM   16  C1  UNL     1      88.869   1.259   9.915  1.00  0.00     0.005 C
ENDBRANCH  14  15
ENDBRANCH  13  14
ENDBRANCH  12  13
ENDBRANCH  10  11
ENDBRANCH   9  10
ENDBRANCH   7   8
ENDBRANCH   6   7
ENDBRANCH   4   5
ENDBRANCH   3   4
ENDBRANCH   1   2
BRANCH   1  17
HETATM   17  C17 UNL     1      89.397  11.883   6.269  1.00  0.00     0.030 C
BRANCH  17  18
HETATM   18  C18 UNL     1      89.356  12.064   4.797  1.00  0.00    -0.030 C
HETATM   19  C19 UNL     1      88.509  11.415   3.984  1.00  0.00    -0.031 C
BRANCH  19  20
HETATM   20  C20 UNL     1      87.495  10.445   4.334  1.00  0.00     0.027 C
BRANCH  20  21
HETATM   21  C21 UNL     1      86.574   9.942   3.286  1.00  0.00     0.004 C
BRANCH  21  22
HETATM   22  C22 UNL     1      85.238   9.451   3.676  1.00  0.00     0.001 C
BRANCH  22  23
HETATM   23  C23 UNL     1      84.570  10.056   4.846  1.00  0.00     0.008 C
BRANCH  23  24
HETATM   24  C24 UNL     1      83.542  11.071   4.355  1.00  0.00     0.084 C
BRANCH  24  25
HETATM   25  C25 UNL     1      83.811  12.415   4.851  1.00  0.00     0.159 C
HETATM   26  O1  UNL     1      83.081  12.972   5.723  1.00  0.00    -0.292 OA
BRANCH  25  27
HETATM   27  C26 UNL     1      84.963  13.186   4.348  1.00  0.00     0.010 A
HETATM   28  C27 UNL     1      85.752  13.900   5.200  1.00  0.00     0.015 A
HETATM   29  C28 UNL     1      86.826  14.619   4.716  1.00  0.00     0.001 A
HETATM   30  C29 UNL     1      87.131  14.638   3.375  1.00  0.00     0.000 A
HETATM   31  C30 UNL     1      86.342  13.923   2.519  1.00  0.00     0.001 A
HETATM   32  C31 UNL     1      85.279  13.213   3.009  1.00  0.00     0.015 A
ENDBRANCH  25  27
ENDBRANCH  24  25
ENDBRANCH  23  24
ENDBRANCH  22  23
ENDBRANCH  21  22
ENDBRANCH  20  21
ENDBRANCH  19  20
ENDBRANCH  17  18
ENDBRANCH   1  17
TORSDOF 19
ENDMDL