MODEL 3
REMARK VINA RESULT: -10.186287580      1.939     10.928
REMARK  20 active torsions:
REMARK  status: ('A' for Active; 'I' for Inactive)
REMARK    1  A    between atoms: C2_2  and  C3_3
REMARK    2  A    between atoms: C3_3  and  C4_4
REMARK    3  A    between atoms: C4_4  and  C5_5
REMARK    4  A    between atoms: C5_5  and  C6_6
REMARK    5  A    between atoms: C7_7  and  C8_8
REMARK    6  A    between atoms: C8_8  and  C9_9
REMARK    7  A    between atoms: C10_10  and  C11_11
REMARK    8  A    between atoms: C11_11  and  C12_12
REMARK    9  A    between atoms: C13_13  and  C14_14
REMARK   10  A    between atoms: C14_14  and  C15_15
REMARK   11  A    between atoms: C16_16  and  C17_17
REMARK   12  A    between atoms: C17_17  and  C18_18
REMARK   13  A    between atoms: C19_19  and  C20_20
REMARK   14  A    between atoms: C20_20  and  C21_21
REMARK   15  A    between atoms: C21_21  and  C22_22
REMARK   16  A    between atoms: C22_22  and  C23_23
REMARK   17  A    between atoms: C24_24  and  C25_25
REMARK   18  A    between atoms: C25_25  and  C26_26
REMARK   19  A    between atoms: C27_27  and  C28_28
REMARK   20  A    between atoms: C28_28  and  C29_29
ROOT
HETATM    1  C15 UNL     1      88.807  10.885   4.859  1.00  0.00    -0.026 C
HETATM    2  C16 UNL     1      89.882  10.197   5.160  1.00  0.00    -0.026 C
ENDROOT
BRANCH   2   3
HETATM    3  C17 UNL     1      91.254  10.709   5.354  1.00  0.00     0.053 C
BRANCH   3   4
HETATM    4  C18 UNL     1      91.511  10.954   6.805  1.00  0.00    -0.027 C
HETATM    5  C19 UNL     1      90.836  10.265   7.705  1.00  0.00    -0.030 C
BRANCH   5   6
HETATM    6  C20 UNL     1      91.106  10.520   9.166  1.00  0.00     0.027 C
BRANCH   6   7
HETATM    7  C21 UNL     1      91.801   9.290   9.751  1.00  0.00     0.007 C
BRANCH   7   8
HETATM    8  C22 UNL     1      91.601   8.085   8.854  1.00  0.00     0.027 C
BRANCH   8   9
HETATM    9  C23 UNL     1      92.696   7.128   9.104  1.00  0.00    -0.030 C
HETATM   10  C24 UNL     1      93.175   6.351   8.127  1.00  0.00    -0.027 C
BRANCH  10  11
HETATM   11  C25 UNL     1      94.282   5.376   8.357  1.00  0.00     0.053 C
BRANCH  11  12
HETATM   12  C26 UNL     1      94.024   4.545   9.555  1.00  0.00    -0.027 C
HETATM   13  C27 UNL     1      93.060   3.643   9.528  1.00  0.00    -0.030 C
BRANCH  13  14
HETATM   14  C28 UNL     1      92.746   2.774  10.700  1.00  0.00     0.031 C
BRANCH  14  15
HETATM   15  C29 UNL     1      91.855   1.673  10.220  1.00  0.00    -0.011 C
HETATM   16  C30 UNL     1      92.402   0.813   9.102  1.00  0.00     0.005 C
HETATM   17  C31 UNL     1      90.984   0.773   8.529  1.00  0.00     0.001 C
HETATM   18  C32 UNL     1      90.743   2.089   9.279  1.00  0.00     0.005 C
ENDBRANCH  14  15
ENDBRANCH  13  14
ENDBRANCH  11  12
ENDBRANCH  10  11
ENDBRANCH   8   9
ENDBRANCH   7   8
ENDBRANCH   6   7
ENDBRANCH   5   6
ENDBRANCH   3   4
ENDBRANCH   2   3
BRANCH   1  19
HETATM   19  C14 UNL     1      88.766  12.352   4.648  1.00  0.00     0.053 C
BRANCH  19  20
HETATM   20  C13 UNL     1      88.379  12.687   3.256  1.00  0.00    -0.026 C
HETATM   21  C12 UNL     1      87.666  13.709   2.914  1.00  0.00    -0.026 C
BRANCH  21  22
HETATM   22  C11 UNL     1      87.083  14.752   3.765  1.00  0.00     0.053 C
BRANCH  22  23
HETATM   23  C10 UNL     1      86.034  14.182   4.651  1.00  0.00    -0.026 C
HETATM   24  C9  UNL     1      84.952  13.610   4.164  1.00  0.00    -0.026 C
BRANCH  24  25
HETATM   25  C8  UNL     1      83.932  13.054   5.103  1.00  0.00     0.053 C
BRANCH  25  26
HETATM   26  C7  UNL     1      84.465  11.828   5.690  1.00  0.00    -0.026 C
HETATM   27  C6  UNL     1      84.727  10.708   5.052  1.00  0.00    -0.026 C
BRANCH  27  28
HETATM   28  C5  UNL     1      84.534  10.471   3.634  1.00  0.00     0.053 C
BRANCH  28  29
HETATM   29  C4  UNL     1      85.733  10.114   2.854  1.00  0.00    -0.027 C
BRANCH  29  30
HETATM   30  C3  UNL     1      86.430   8.848   3.005  1.00  0.00    -0.030 C
BRANCH  30  31
HETATM   31  C2  UNL     1      87.310   8.309   1.954  1.00  0.00     0.022 C
HETATM   32  C1  UNL     1      88.163   7.189   2.592  1.00  0.00     0.009 C
ENDBRANCH  30  31
ENDBRANCH  29  30
ENDBRANCH  28  29
ENDBRANCH  27  28
ENDBRANCH  25  26
ENDBRANCH  24  25
ENDBRANCH  22  23
ENDBRANCH  21  22
ENDBRANCH  19  20
ENDBRANCH   1  19
TORSDOF 20
ENDMDL