MODEL 2
REMARK VINA RESULT: -9.910799242      2.399      5.310
REMARK  19 active torsions:
REMARK  status: ('A' for Active; 'I' for Inactive)
REMARK    1  A    between atoms: C2_2  and  C3_3
REMARK    2  A    between atoms: C3_3  and  C4_4
REMARK    3  A    between atoms: C4_4  and  C5_5
REMARK    4  A    between atoms: C5_5  and  C6_6
REMARK    5  A    between atoms: C6_6  and  C7_7
REMARK    6  A    between atoms: C8_8  and  C9_9
REMARK    7  A    between atoms: C9_9  and  C10_10
REMARK    8  A    between atoms: C11_11  and  C12_12
REMARK    9  A    between atoms: C12_12  and  C13_13
REMARK   10  A    between atoms: C14_14  and  C15_15
REMARK   11  A    between atoms: C15_15  and  C16_16
REMARK   12  A    between atoms: C17_17  and  C18_18
REMARK   13  A    between atoms: C18_18  and  C19_19
REMARK   14  A    between atoms: C20_20  and  C21_21
REMARK   15  A    between atoms: C21_21  and  C22_22
REMARK   16  A    between atoms: C23_23  and  C24_24
REMARK   17  A    between atoms: C24_24  and  C25_25
REMARK   18  A    between atoms: C26_26  and  C27_27
REMARK   19  A    between atoms: C27_27  and  C28_28
ROOT
HETATM    1  C16 UNL     1      92.979   3.973  10.429  1.00  0.00    -0.027 C
HETATM    2  C17 UNL     1      94.027   4.614   9.979  1.00  0.00    -0.027 C
ENDROOT
BRANCH   2   3
HETATM    3  C18 UNL     1      94.589   4.584   8.634  1.00  0.00     0.053 C
BRANCH   3   4
HETATM    4  C19 UNL     1      94.415   5.747   7.760  1.00  0.00    -0.027 C
HETATM    5  C20 UNL     1      93.557   6.700   7.666  1.00  0.00    -0.027 C
BRANCH   5   6
HETATM    6  C21 UNL     1      92.359   6.996   8.444  1.00  0.00     0.053 C
BRANCH   6   7
HETATM    7  C22 UNL     1      91.595   8.159   7.857  1.00  0.00    -0.027 C
HETATM    8  C23 UNL     1      91.586   9.293   8.508  1.00  0.00    -0.027 C
BRANCH   8   9
HETATM    9  C24 UNL     1      90.826  10.438   7.918  1.00  0.00     0.053 C
BRANCH   9  10
HETATM   10  C25 UNL     1      90.504  10.082   6.521  1.00  0.00    -0.027 C
HETATM   11  C26 UNL     1      89.744  10.787   5.707  1.00  0.00    -0.025 C
BRANCH  11  12
HETATM   12  C27 UNL     1      89.066  12.061   6.008  1.00  0.00     0.078 C
BRANCH  12  13
HETATM   13  C28 UNL     1      87.633  12.050   5.589  1.00  0.00    -0.015 C
HETATM   14  N1  UNL     1      86.699  12.673   6.180  1.00  0.00    -0.396 N
HETATM   15  C29 UNL     1      85.428  12.476   5.552  1.00  0.00     0.119 C
ATOM     16  H1  UNL     1      86.839  13.250   7.011  1.00  0.00     0.159 HD
HETATM   17  C30 UNL     1      85.644  11.216   4.754  1.00  0.00     0.025 C
HETATM   18  C31 UNL     1      87.116  11.301   4.415  1.00  0.00     0.054 C
ENDBRANCH  12  13
ENDBRANCH  11  12
ENDBRANCH   9  10
ENDBRANCH   8   9
ENDBRANCH   6   7
ENDBRANCH   5   6
ENDBRANCH   3   4
ENDBRANCH   2   3
BRANCH   1  19
HETATM   19  C15 UNL     1      92.109   3.050   9.657  1.00  0.00     0.053 C
BRANCH  19  20
HETATM   20  C14 UNL     1      92.414   1.664  10.082  1.00  0.00    -0.027 C
HETATM   21  C13 UNL     1      91.702   0.627   9.786  1.00  0.00    -0.027 C
BRANCH  21  22
HETATM   22  C12 UNL     1      90.456   0.543   8.987  1.00  0.00     0.053 C
BRANCH  22  23
HETATM   23  C11 UNL     1      89.283   0.830   9.836  1.00  0.00    -0.027 C
HETATM   24  C10 UNL     1      88.349   1.710   9.654  1.00  0.00    -0.027 C
BRANCH  24  25
HETATM   25  C9  UNL     1      88.319   2.620   8.484  1.00  0.00     0.053 C
BRANCH  25  26
HETATM   26  C8  UNL     1      87.822   1.793   7.329  1.00  0.00    -0.027 C
HETATM   27  C7  UNL     1      86.846   2.257   6.596  1.00  0.00    -0.030 C
BRANCH  27  28
HETATM   28  C6  UNL     1      86.250   1.568   5.441  1.00  0.00     0.027 C
BRANCH  28  29
HETATM   29  C5  UNL     1      84.768   1.436   5.483  1.00  0.00     0.004 C
BRANCH  29  30
HETATM   30  C4  UNL     1      84.228   1.014   6.796  1.00  0.00     0.000 C
BRANCH  30  31
HETATM   31  C3  UNL     1      84.541  -0.485   6.985  1.00  0.00    -0.000 C
BRANCH  31  32
HETATM   32  C2  UNL     1      85.221  -0.634   8.351  1.00  0.00    -0.005 C
HETATM   33  C1  UNL     1      84.845   0.517   9.230  1.00  0.00     0.005 C
ENDBRANCH  31  32
ENDBRANCH  30  31
ENDBRANCH  29  30
ENDBRANCH  28  29
ENDBRANCH  27  28
ENDBRANCH  25  26
ENDBRANCH  24  25
ENDBRANCH  22  23
ENDBRANCH  21  22
ENDBRANCH  19  20
ENDBRANCH   1  19
TORSDOF 19
ENDMDL