MODEL 5
REMARK VINA RESULT: -9.482945100      1.633      3.223
REMARK  21 active torsions:
REMARK  status: ('A' for Active; 'I' for Inactive)
REMARK    1  A    between atoms: C2_2  and  C3_3
REMARK    2  A    between atoms: C3_3  and  C4_4
REMARK    3  A    between atoms: C4_4  and  C5_5
REMARK    4  A    between atoms: C5_5  and  C6_6
REMARK    5  A    between atoms: C6_6  and  C7_7
REMARK    6  A    between atoms: C7_7  and  C8_8
REMARK    7  A    between atoms: C8_8  and  C9_9
REMARK    8  A    between atoms: C10_10  and  C11_11
REMARK    9  A    between atoms: C11_11  and  C12_12
REMARK   10  A    between atoms: C12_12  and  C13_13
REMARK   11  A    between atoms: C13_13  and  C14_14
REMARK   12  A    between atoms: C14_14  and  C15_15
REMARK   13  A    between atoms: C16_16  and  C17_17
REMARK   14  A    between atoms: C17_17  and  C18_18
REMARK   15  A    between atoms: C19_19  and  C20_20
REMARK   16  A    between atoms: C20_20  and  C21_21
REMARK   17  A    between atoms: C21_21  and  O1_22
REMARK   18  A    between atoms: C21_21  and  C26_27
REMARK   19  A    between atoms: O1_22  and  C22_23
REMARK   20  A    between atoms: C22_23  and  C23_24
REMARK   21  A    between atoms: C23_24  and  C24_25
ROOT
HETATM    1  C15 UNL     1      91.283   8.469   6.190  1.00  0.00    -0.030 C
HETATM    2  C16 UNL     1      90.218   9.103   5.551  1.00  0.00    -0.027 C
ENDROOT
BRANCH   2   3
HETATM    3  C17 UNL     1      90.581  10.481   5.164  1.00  0.00     0.053 C
BRANCH   3   4
HETATM    4  C18 UNL     1      90.467  11.553   6.183  1.00  0.00    -0.027 C
HETATM    5  C19 UNL     1      89.226  12.054   6.436  1.00  0.00    -0.024 C
BRANCH   5   6
HETATM    6  C20 UNL     1      87.995  11.665   5.822  1.00  0.00     0.092 C
BRANCH   6   7
HETATM    7  C21 UNL     1      86.886  12.754   5.874  1.00  0.00     0.060 C
BRANCH   7   8
HETATM    8  O1  UNL     1      87.261  13.883   5.478  1.00  0.00    -0.354 OA
BRANCH   8   9
HETATM    9  C22 UNL     1      87.657  14.869   4.840  1.00  0.00     0.175 C
BRANCH   9  10
HETATM   10  C23 UNL     1      87.058  14.871   3.414  1.00  0.00     0.026 C
BRANCH  10  11
HETATM   11  C24 UNL     1      87.395  13.650   2.656  1.00  0.00    -0.002 C
HETATM   12  C25 UNL     1      86.188  12.942   2.131  1.00  0.00     0.005 C
ENDBRANCH  10  11
ENDBRANCH   9  10
ENDBRANCH   8   9
ENDBRANCH   7   8
BRANCH   7  13
HETATM   13  C26 UNL     1      85.605  12.127   5.476  1.00  0.00    -0.007 A
HETATM   14  C27 UNL     1      84.430  12.935   5.411  1.00  0.00     0.014 A
HETATM   15  C28 UNL     1      83.253  12.280   5.037  1.00  0.00     0.001 A
HETATM   16  C29 UNL     1      83.183  10.945   4.747  1.00  0.00     0.000 A
HETATM   17  C30 UNL     1      84.336  10.161   4.816  1.00  0.00     0.001 A
HETATM   18  C31 UNL     1      85.486  10.823   5.183  1.00  0.00     0.014 A
ENDBRANCH   7  13
ENDBRANCH   6   7
ENDBRANCH   5   6
ENDBRANCH   3   4
ENDBRANCH   2   3
BRANCH   1  19
HETATM   19  C14 UNL     1      92.500   9.189   6.391  1.00  0.00     0.027 C
BRANCH  19  20
HETATM   20  C13 UNL     1      92.910   9.347   7.831  1.00  0.00     0.004 C
BRANCH  20  21
HETATM   21  C12 UNL     1      92.061   9.653   8.806  1.00  0.00     0.004 C
BRANCH  21  22
HETATM   22  C11 UNL     1      92.329   8.774  10.035  1.00  0.00     0.027 C
BRANCH  22  23
HETATM   23  C10 UNL     1      91.839   7.470   9.634  1.00  0.00    -0.030 C
HETATM   24  C9  UNL     1      92.026   6.242   9.498  1.00  0.00    -0.020 C
BRANCH  24  25
HETATM   25  C8  UNL     1      93.399   5.585   9.859  1.00  0.00     0.106 C
BRANCH  25  26
HETATM   26  C7  UNL     1      93.228   4.194  10.318  1.00  0.00    -0.179 C
BRANCH  26  27
HETATM   27  C6  UNL     1      93.094   3.095  10.680  1.00  0.00     0.080 C
BRANCH  27  28
HETATM   28  C5  UNL     1      92.058   2.411   9.511  1.00  0.00     0.011 C
BRANCH  28  29
HETATM   29  C4  UNL     1      92.247   0.948   9.752  1.00  0.00     0.001 C
BRANCH  29  30
HETATM   30  C3  UNL     1      90.996   0.245   9.178  1.00  0.00    -0.000 C
BRANCH  30  31
HETATM   31  C2  UNL     1      89.990   1.207   8.632  1.00  0.00    -0.005 C
HETATM   32  C1  UNL     1      88.674   0.924   9.346  1.00  0.00     0.005 C
ENDBRANCH  30  31
ENDBRANCH  29  30
ENDBRANCH  28  29
ENDBRANCH  27  28
ENDBRANCH  26  27
ENDBRANCH  25  26
ENDBRANCH  24  25
ENDBRANCH  22  23
ENDBRANCH  21  22
ENDBRANCH  20  21
ENDBRANCH  19  20
ENDBRANCH   1  19
TORSDOF 21
ENDMDL