MODEL 2
REMARK VINA RESULT: -10.334918505      3.396      8.851
REMARK  19 active torsions:
REMARK  status: ('A' for Active; 'I' for Inactive)
REMARK    1  A    between atoms: C2_2  and  C3_3
REMARK    2  A    between atoms: C3_3  and  C4_4
REMARK    3  A    between atoms: C4_4  and  C5_5
REMARK    4  A    between atoms: C5_5  and  C6_6
REMARK    5  A    between atoms: C6_6  and  C7_7
REMARK    6  A    between atoms: C7_7  and  C8_8
REMARK    7  A    between atoms: C9_9  and  C10_10
REMARK    8  A    between atoms: C10_10  and  C11_11
REMARK    9  A    between atoms: C12_12  and  C13_13
REMARK   10  A    between atoms: C13_13  and  C14_14
REMARK   11  A    between atoms: C15_15  and  C16_16
REMARK   12  A    between atoms: C16_16  and  C17_17
REMARK   13  A    between atoms: C17_17  and  C18_18
REMARK   14  A    between atoms: C19_19  and  C20_20
REMARK   15  A    between atoms: C20_20  and  C21_21
REMARK   16  A    between atoms: C22_22  and  C23_23
REMARK   17  A    between atoms: C23_23  and  C24_24
REMARK   18  A    between atoms: C25_25  and  C26_26
REMARK   19  A    between atoms: C29_29  and  O1_30
ROOT
HETATM    1  C17 UNL     1      92.043   0.560  10.044  1.00  0.00     0.030 C
ENDROOT
BRANCH   1   2
HETATM    2  C16 UNL     1      90.989   0.122   9.009  1.00  0.00     0.030 C
BRANCH   2   3
HETATM    3  C15 UNL     1      90.302   1.360   8.596  1.00  0.00    -0.030 C
HETATM    4  C14 UNL     1      89.118   1.720   9.001  1.00  0.00    -0.027 C
BRANCH   4   5
HETATM    5  C13 UNL     1      88.301   0.944   9.929  1.00  0.00     0.053 C
BRANCH   5   6
HETATM    6  C12 UNL     1      86.923   0.830   9.307  1.00  0.00    -0.027 C
HETATM    7  C11 UNL     1      86.577  -0.294   8.720  1.00  0.00    -0.027 C
BRANCH   7   8
HETATM    8  C10 UNL     1      85.226  -0.417   8.106  1.00  0.00     0.053 C
BRANCH   8   9
HETATM    9  C9  UNL     1      84.548   0.890   8.138  1.00  0.00    -0.027 C
HETATM   10  C8  UNL     1      84.166   1.535   7.075  1.00  0.00    -0.030 C
BRANCH  10  11
HETATM   11  C7  UNL     1      84.350   1.065   5.704  1.00  0.00     0.027 C
BRANCH  11  12
HETATM   12  C6  UNL     1      85.610   1.748   5.148  1.00  0.00     0.004 C
BRANCH  12  13
HETATM   13  C5  UNL     1      85.254   2.463   3.831  1.00  0.00     0.001 C
BRANCH  13  14
HETATM   14  C4  UNL     1      84.511   1.547   2.917  1.00  0.00     0.004 C
BRANCH  14  15
HETATM   15  C3  UNL     1      83.364   2.138   2.184  1.00  0.00     0.026 C
BRANCH  15  16
HETATM   16  C2  UNL     1      82.105   1.391   2.181  1.00  0.00    -0.037 C
HETATM   17  C1  UNL     1      81.864   0.404   3.001  1.00  0.00     0.007 C
ENDBRANCH  15  16
ENDBRANCH  14  15
ENDBRANCH  13  14
ENDBRANCH  12  13
ENDBRANCH  11  12
ENDBRANCH  10  11
ENDBRANCH   8   9
ENDBRANCH   7   8
ENDBRANCH   5   6
ENDBRANCH   4   5
ENDBRANCH   2   3
ENDBRANCH   1   2
BRANCH   1  18
HETATM   18  C18 UNL     1      92.397   1.984   9.714  1.00  0.00    -0.030 C
HETATM   19  C19 UNL     1      92.801   2.821  10.634  1.00  0.00    -0.027 C
BRANCH  19  20
HETATM   20  C20 UNL     1      93.143   4.232  10.257  1.00  0.00     0.053 C
BRANCH  20  21
HETATM   21  C21 UNL     1      92.105   4.854   9.442  1.00  0.00    -0.027 C
HETATM   22  C22 UNL     1      91.859   6.116   9.358  1.00  0.00    -0.027 C
BRANCH  22  23
HETATM   23  C23 UNL     1      92.655   7.139  10.131  1.00  0.00     0.054 C
BRANCH  23  24
HETATM   24  C24 UNL     1      93.634   7.785   9.271  1.00  0.00    -0.022 C
HETATM   25  C25 UNL     1      93.556   8.608   8.312  1.00  0.00     0.007 C
BRANCH  25  26
HETATM   26  C26 UNL     1      92.381   9.201   7.714  1.00  0.00    -0.036 A
HETATM   27  C27 UNL     1      91.643  10.245   8.195  1.00  0.00     0.014 A
HETATM   28  C28 UNL     1      90.558  10.809   7.508  1.00  0.00     0.037 A
HETATM   29  C29 UNL     1      90.168  10.329   6.285  1.00  0.00     0.068 A
HETATM   30  C31 UNL     1      90.894   9.277   5.782  1.00  0.00     0.037 A
HETATM   31  C32 UNL     1      91.952   8.728   6.452  1.00  0.00     0.014 A
BRANCH  29  32
HETATM   32  O1  UNL     1      89.099  10.866   5.580  1.00  0.00    -0.356 OA
HETATM   33  C30 UNL     1      88.709  12.186   5.841  1.00  0.00     0.210 C
ENDBRANCH  29  32
ENDBRANCH  25  26
ENDBRANCH  23  24
ENDBRANCH  22  23
ENDBRANCH  20  21
ENDBRANCH  19  20
ENDBRANCH   1  18
TORSDOF 19
ENDMDL