MODEL 3
REMARK VINA RESULT: -7.565329972      6.355     10.292
REMARK  5 active torsions:
REMARK  status: ('A' for Active; 'I' for Inactive)
REMARK    1  A    between atoms: C5_7  and  C6_8
REMARK    2  A    between atoms: C9_11  and  C10_12
REMARK    3  A    between atoms: C10_12  and  C11_13
REMARK    4  A    between atoms: C12_14  and  C13_15
REMARK       I    between atoms: C13_15  and  N2_17
REMARK    5  A    between atoms: N2_17  and  C14_19
ROOT
HETATM    1  C11 UNL     1       2.004  36.815  -5.271  1.00  0.00     0.041 A
HETATM    2  C12 UNL     1       0.831  36.317  -4.665  1.00  0.00     0.118 A
HETATM    3  N3  UNL     1       0.245  37.010  -3.638  1.00  0.00    -0.303 N
ATOM      4  H3  UNL     1      -0.604  36.657  -3.196  1.00  0.00     0.171 HD
HETATM    5  C19 UNL     1       0.799  38.160  -3.218  1.00  0.00     0.326 A
HETATM    6  O2  UNL     1       0.248  38.779  -2.280  1.00  0.00    -0.247 OA
HETATM    7  N4  UNL     1       1.911  38.645  -3.778  1.00  0.00    -0.294 N
ATOM      8  H4  UNL     1       2.307  39.520  -3.434  1.00  0.00     0.172 HD
HETATM    9  C20 UNL     1       2.523  37.983  -4.804  1.00  0.00     0.115 A
HETATM   10  N5  UNL     1       3.595  38.484  -5.289  1.00  0.00    -0.385 N
ATOM     11  H51 UNL     1       3.984  39.360  -4.939  1.00  0.00     0.157 HD
ATOM     12  H52 UNL     1       4.052  37.990  -6.056  1.00  0.00     0.157 HD
ENDROOT
BRANCH   1  13
HETATM   13  C10 UNL     1       2.571  36.053  -6.352  1.00  0.00     0.032 C
BRANCH  13  14
HETATM   14  C9  UNL     1       2.370  36.399  -7.757  1.00  0.00     0.000 A
HETATM   15  C5  UNL     1       2.910  37.369  -8.570  1.00  0.00     0.024 A
HETATM   16  N1  UNL     1       2.337  37.277  -9.791  1.00  0.00    -0.358 N
HETATM   17  C4  UNL     1       1.439  36.291  -9.827  1.00  0.00     0.044 A
ATOM     18  H1  UNL     1       2.561  37.881 -10.581  1.00  0.00     0.166 HD
HETATM   19  C3  UNL     1       0.592  35.805 -10.801  1.00  0.00     0.037 A
HETATM   20  C21 UNL     1       1.441  35.730  -8.572  1.00  0.00     0.003 A
HETATM   21  C2  UNL     1      -0.269  34.750 -10.537  1.00  0.00    -0.054 A
HETATM   22  C1  UNL     1      -1.208  34.193 -11.558  1.00  0.00     0.049 C
HETATM   23  C23 UNL     1      -0.289  34.168  -9.286  1.00  0.00    -0.055 A
HETATM   24  C22 UNL     1       0.568  34.675  -8.335  1.00  0.00     0.022 A
HETATM   25  C24 UNL     1      -1.199  33.021  -8.942  1.00  0.00     0.049 C
BRANCH  15  26
HETATM   26  C6  UNL     1       3.922  38.391  -8.237  1.00  0.00     0.028 C
HETATM   27  C7  UNL     1       3.910  39.581  -9.188  1.00  0.00     0.016 C
HETATM   28  C8  UNL     1       5.313  37.750  -8.310  1.00  0.00     0.016 C
ENDBRANCH  15  26
ENDBRANCH  13  14
ENDBRANCH   1  13
BRANCH   2  29
HETATM   29  C13 UNL     1       0.290  35.039  -5.072  1.00  0.00     0.269 C
HETATM   30  O1  UNL     1      -0.853  34.795  -5.516  1.00  0.00    -0.266 OA
HETATM   31  N2  UNL     1       1.090  33.858  -4.991  1.00  0.00    -0.351 N
ATOM     32  H2  UNL     1       2.039  33.959  -4.631  1.00  0.00     0.163 HD
BRANCH  31  33
HETATM   33  C14 UNL     1       0.664  32.531  -5.376  1.00  0.00     0.084 C
HETATM   34  C15 UNL     1       1.560  31.874  -6.390  1.00  0.00     0.025 C
HETATM   35  C16 UNL     1       1.559  30.415  -6.050  1.00  0.00     0.002 C
HETATM   36  C17 UNL     1       0.497  30.213  -5.012  1.00  0.00     0.002 C
HETATM   37  C18 UNL     1       0.522  31.543  -4.288  1.00  0.00     0.025 C
ENDBRANCH  31  33
ENDBRANCH   2  29
TORSDOF 5
ENDMDL