MODEL 2
REMARK VINA RESULT: -7.654273358      6.007      9.053
REMARK  6 active torsions:
REMARK  status: ('A' for Active; 'I' for Inactive)
REMARK    1  A    between atoms: C3_3  and  N1_4
REMARK       I    between atoms: N1_4  and  C4_6
REMARK    2  A    between atoms: C20_26  and  O1_27
REMARK    3  A    between atoms: C20_26  and  C21_29
REMARK    4  A    between atoms: C21_29  and  O2_30
REMARK    5  A    between atoms: O2_30  and  C22_31
REMARK    6  A    between atoms: C22_31  and  C23_32
ROOT
HETATM    1  C1  UNL     1      -1.772  34.877  -5.814  1.00  0.00     0.012 C
HETATM    2  C2  UNL     1      -0.736  34.193  -6.706  1.00  0.00     0.009 C
HETATM    3  C3  UNL     1       0.629  34.735  -6.470  1.00  0.00     0.088 C
HETATM    4  C5  UNL     1       1.149  34.195  -5.172  1.00  0.00     0.026 C
HETATM    5  C6  UNL     1       1.174  32.692  -5.132  1.00  0.00     0.012 C
HETATM    6  C7  UNL     1      -0.099  32.045  -5.552  1.00  0.00    -0.036 C
HETATM    7  C8  UNL     1      -1.024  32.059  -4.321  1.00  0.00     0.016 C
HETATM    8  C9  UNL     1      -0.838  32.696  -6.653  1.00  0.00    -0.000 C
HETATM    9  C10 UNL     1      -0.525  32.158  -8.031  1.00  0.00     0.006 C
HETATM   10  C11 UNL     1       0.800  31.490  -8.112  1.00  0.00     0.006 C
HETATM   11  C12 UNL     1       0.807  30.325  -7.162  1.00  0.00    -0.005 C
HETATM   12  C13 UNL     1       0.153  30.582  -5.856  1.00  0.00    -0.002 C
HETATM   13  C14 UNL     1       0.978  29.910  -4.777  1.00  0.00     0.007 C
HETATM   14  C15 UNL     1       1.260  28.492  -5.297  1.00  0.00     0.013 C
HETATM   15  C16 UNL     1       2.402  28.607  -6.255  1.00  0.00    -0.007 C
HETATM   16  C17 UNL     1       3.722  28.644  -5.519  1.00  0.00     0.019 C
HETATM   17  C18 UNL     1       2.221  29.832  -7.081  1.00  0.00     0.004 C
HETATM   18  C19 UNL     1       2.546  28.981  -8.317  1.00  0.00     0.046 C
HETATM   19  C20 UNL     1       2.353  27.737  -7.464  1.00  0.00     0.087 C
ENDROOT
BRANCH  19  20
HETATM   20  O1  UNL     1       1.137  27.110  -7.592  1.00  0.00    -0.387 OA
ATOM     21  H1  UNL     1       0.571  27.559  -8.208  1.00  0.00     0.210 HD
ENDBRANCH  19  20
BRANCH  19  22
HETATM   22  C21 UNL     1       3.508  26.800  -7.671  1.00  0.00     0.206 C
BRANCH  22  23
HETATM   23  O2  UNL     1       3.396  26.029  -8.817  1.00  0.00    -0.381 OA
BRANCH  23  24
HETATM   24  C22 UNL     1       4.558  26.258  -9.570  1.00  0.00     0.240 C
BRANCH  24  25
HETATM   25  C23 UNL     1       4.185  26.121 -10.990  1.00  0.00     0.110 C
HETATM   26  N4  UNL     1       4.192  27.182 -11.717  1.00  0.00    -0.389 N
ATOM     27  H42 UNL     1       4.439  28.106 -11.365  1.00  0.00     0.157 HD
ATOM     28  H41 UNL     1       3.934  27.087 -12.700  1.00  0.00     0.157 HD
HETATM   29  N5  UNL     1       3.842  24.840 -11.478  1.00  0.00    -0.086 NA
ENDBRANCH  24  25
ENDBRANCH  23  24
ENDBRANCH  22  23
ENDBRANCH  19  22
BRANCH   3  30
HETATM   30  N1  UNL     1       0.540  36.176  -6.388  1.00  0.00    -0.360 N
HETATM   31  C4  UNL     1       1.235  37.020  -7.314  1.00  0.00     0.182 C
HETATM   32  N2  UNL     1       0.706  38.155  -7.610  1.00  0.00    -0.374 N
HETATM   33  N3  UNL     1       2.458  36.667  -7.907  1.00  0.00    -0.064 NA
ATOM     34  H22 UNL     1      -0.183  38.412  -7.179  1.00  0.00     0.158 HD
ATOM     35  H21 UNL     1       1.200  38.756  -8.269  1.00  0.00     0.158 HD
ATOM     36  H1  UNL     1      -0.029  36.601  -5.655  1.00  0.00     0.162 HD
ENDBRANCH   3  30
TORSDOF 6
ENDMDL