MODEL 5
REMARK VINA RESULT: -7.524423473      6.943     10.602
REMARK  7 active torsions:
REMARK  status: ('A' for Active; 'I' for Inactive)
REMARK    1  A    between atoms: C11_11  and  O1_12
REMARK    2  A    between atoms: C12_14  and  O2_15
REMARK    3  A    between atoms: C16_20  and  C17_21
REMARK    4  A    between atoms: C17_21  and  C18_22
REMARK    5  A    between atoms: C18_22  and  C19_23
REMARK    6  A    between atoms: C19_23  and  N1_24
REMARK       I    between atoms: N1_24  and  C20_26
REMARK       I    between atoms: C20_26  and  N3_30
REMARK    7  A    between atoms: N3_30  and  C21_32
ROOT
HETATM    1  C1  UNL     1      -4.340  34.533  -8.164  1.00  0.00     0.015 C
HETATM    2  C2  UNL     1      -3.040  34.458  -8.406  1.00  0.00    -0.081 C
HETATM    3  C3  UNL     1      -2.607  33.511  -9.487  1.00  0.00     0.034 C
HETATM    4  C4  UNL     1      -1.238  32.956  -9.060  1.00  0.00     0.009 C
HETATM    5  C5  UNL     1      -1.241  32.881  -7.568  1.00  0.00    -0.004 C
HETATM    6  C6  UNL     1      -1.024  34.285  -7.017  1.00  0.00     0.002 C
HETATM    7  C7  UNL     1      -1.166  34.336  -5.519  1.00  0.00     0.007 C
HETATM    8  C8  UNL     1      -0.806  33.025  -4.862  1.00  0.00     0.012 C
HETATM    9  C9  UNL     1       0.303  32.354  -5.659  1.00  0.00    -0.012 C
HETATM   10  C10 UNL     1       1.518  33.198  -5.792  1.00  0.00     0.018 C
HETATM   11  C11 UNL     1       0.722  31.070  -4.928  1.00  0.00     0.155 C
HETATM   12  C12 UNL     1       1.278  30.047  -5.855  1.00  0.00     0.147 C
HETATM   13  C13 UNL     1       1.774  30.592  -7.161  1.00  0.00     0.035 C
HETATM   14  C14 UNL     1       0.810  31.458  -7.888  1.00  0.00     0.008 C
HETATM   15  C15 UNL     1      -0.300  31.910  -6.964  1.00  0.00     0.001 C
HETATM   16  C16 UNL     1      -2.096  35.215  -7.605  1.00  0.00     0.040 C
ENDROOT
BRANCH  16  17
HETATM   17  C17 UNL     1      -1.443  36.351  -8.282  1.00  0.00    -0.020 C
BRANCH  17  18
HETATM   18  C18 UNL     1      -0.013  36.613  -8.220  1.00  0.00    -0.010 C
BRANCH  18  19
HETATM   19  C19 UNL     1       0.601  37.568  -7.277  1.00  0.00     0.165 C
BRANCH  19  20
HETATM   20  N1  UNL     1       1.287  36.983  -6.144  1.00  0.00    -0.223 N
HETATM   21  C20 UNL     1       2.693  37.045  -5.972  1.00  0.00     0.668 C
HETATM   22  N2  UNL     1       3.226  37.940  -5.227  1.00  0.00    -0.235 N
HETATM   23  N3  UNL     1       3.577  36.121  -6.610  1.00  0.00    -0.219 N
ATOM     24  H22 UNL     1       2.595  38.599  -4.772  1.00  0.00     0.174 HD
ATOM     25  H21 UNL     1       4.238  37.985  -5.103  1.00  0.00     0.174 HD
ATOM     26  H3  UNL     1       3.693  35.200  -6.188  1.00  0.00     0.178 HD
ATOM     27  H1  UNL     1       0.731  36.502  -5.435  1.00  0.00     0.178 HD
BRANCH  23  28
HETATM   28  C21 UNL     1       4.308  36.409  -7.804  1.00  0.00     0.122 C
HETATM   29  C22 UNL     1       5.762  36.328  -7.557  1.00  0.00    -0.005 C
HETATM   30  C23 UNL     1       6.402  37.325  -8.122  1.00  0.00    -0.029 C
HETATM   31  C24 UNL     1       5.479  38.221  -8.829  1.00  0.00     0.029 C
HETATM   32  C25 UNL     1       4.128  37.827  -8.300  1.00  0.00     0.033 C
ENDBRANCH  23  28
ENDBRANCH  19  20
ENDBRANCH  18  19
ENDBRANCH  17  18
ENDBRANCH  16  17
BRANCH  11  33
HETATM   33  O1  UNL     1      -0.385  30.593  -4.214  1.00  0.00    -0.392 OA
ATOM     34  H1  UNL     1      -0.625  31.245  -3.567  1.00  0.00     0.210 HD
ENDBRANCH  11  33
BRANCH  12  35
HETATM   35  O2  UNL     1       0.393  28.975  -6.036  1.00  0.00    -0.393 OA
ATOM     36  H2  UNL     1       0.448  28.616  -6.914  1.00  0.00     0.210 HD
ENDBRANCH  12  35
TORSDOF 7
ENDMDL