MODEL 4
REMARK VINA RESULT: -9.487878221      1.085      1.880
REMARK  6 active torsions:
REMARK  status: ('A' for Active; 'I' for Inactive)
REMARK    1  A    between atoms: N1_1  and  C1_4
REMARK    2  A    between atoms: C3_8  and  C4_9
REMARK    3  A    between atoms: C4_9  and  N3_10
REMARK       I    between atoms: N3_10  and  C5_12
REMARK    4  A    between atoms: C5_12  and  C6_14
REMARK    5  A    between atoms: C13_21  and  N4_22
REMARK       I    between atoms: N4_22  and  C14_24
REMARK       I    between atoms: C14_24  and  N5_26
REMARK    6  A    between atoms: N5_26  and  C15_28
ROOT
HETATM    1  C1  UNL     1       3.338  27.501  -8.982  1.00  0.00     0.126 A
HETATM    2  N2  UNL     1       4.362  26.657  -9.273  1.00  0.00    -0.350 N
ATOM      3  H2  UNL     1       4.573  26.465 -10.252  1.00  0.00     0.166 HD
HETATM    4  C2  UNL     1       5.111  26.063  -8.319  1.00  0.00     0.098 A
HETATM    5  C3  UNL     1       4.879  26.276  -6.994  1.00  0.00    -0.023 A
HETATM    6  C12 UNL     1       3.834  27.138  -6.679  1.00  0.00     0.043 A
HETATM    7  C13 UNL     1       3.047  27.765  -7.639  1.00  0.00     0.080 A
ENDROOT
BRANCH   7   8
HETATM    8  N4  UNL     1       2.001  28.629  -7.325  1.00  0.00    -0.305 N
HETATM    9  C14 UNL     1       1.891  29.982  -7.641  1.00  0.00     0.321 C
HETATM   10  O2  UNL     1       2.755  30.618  -8.275  1.00  0.00    -0.247 OA
HETATM   11  N5  UNL     1       0.700  30.739  -7.223  1.00  0.00    -0.338 N
ATOM     12  H5  UNL     1      -0.042  30.274  -6.701  1.00  0.00     0.164 HD
ATOM     13  H4  UNL     1       1.224  28.224  -6.802  1.00  0.00     0.171 HD
BRANCH  11  14
HETATM   14  C15 UNL     1       0.585  32.121  -7.548  1.00  0.00     0.094 C
HETATM   15  C16 UNL     1       0.980  33.039  -6.429  1.00  0.00     0.009 C
HETATM   16  C17 UNL     1      -0.019  33.119  -5.319  1.00  0.00     0.011 C
HETATM   17  C21 UNL     1       1.086  34.451  -7.022  1.00  0.00     0.011 C
HETATM   18  C18 UNL     1      -1.336  33.592  -5.859  1.00  0.00    -0.013 C
HETATM   19  C19 UNL     1      -1.260  34.930  -6.548  1.00  0.00     0.009 C
HETATM   20  C24 UNL     1      -1.789  32.576  -6.897  1.00  0.00     0.011 C
HETATM   21  C20 UNL     1      -0.218  34.861  -7.651  1.00  0.00    -0.013 C
HETATM   22  C22 UNL     1      -0.703  33.861  -8.672  1.00  0.00     0.011 C
HETATM   23  C23 UNL     1      -0.805  32.500  -8.017  1.00  0.00     0.009 C
ENDBRANCH  11  14
ENDBRANCH   7   8
BRANCH   1  24
HETATM   24  N1  UNL     1       2.661  28.038  -9.898  1.00  0.00    -0.384 N
ATOM     25  H12 UNL     1       2.141  27.462 -10.560  1.00  0.00     0.157 HD
ATOM     26  H11 UNL     1       2.621  29.052  -9.995  1.00  0.00     0.157 HD
ENDBRANCH   1  24
BRANCH   5  27
HETATM   27  C4  UNL     1       5.667  25.650  -5.933  1.00  0.00     0.162 C
BRANCH  27  28
HETATM   28  N3  UNL     1       5.615  26.338  -4.670  1.00  0.00    -0.356 N
HETATM   29  C5  UNL     1       6.735  26.899  -4.008  1.00  0.00     0.222 C
HETATM   30  O1  UNL     1       7.892  26.825  -4.522  1.00  0.00    -0.273 OA
ATOM     31  H3  UNL     1       4.705  26.429  -4.218  1.00  0.00     0.162 HD
BRANCH  29  32
HETATM   32  C6  UNL     1       6.528  27.574  -2.703  1.00  0.00     0.078 C
HETATM   33  C7  UNL     1       7.816  28.182  -2.183  1.00  0.00     0.014 C
HETATM   34  C8  UNL     1       7.524  28.988  -0.941  1.00  0.00     0.001 C
HETATM   35  C9  UNL     1       6.750  28.130   0.021  1.00  0.00     0.000 C
HETATM   36  C10 UNL     1       6.742  26.685  -0.408  1.00  0.00     0.001 C
HETATM   37  C11 UNL     1       6.006  26.526  -1.725  1.00  0.00     0.014 C
ENDBRANCH  29  32
ENDBRANCH  27  28
ENDBRANCH   5  27
TORSDOF 6
ENDMDL