MODEL 4
REMARK VINA RESULT: -6.662772802      1.487      1.960
REMARK  6 active torsions:
REMARK  status: ('A' for Active; 'I' for Inactive)
REMARK    1  A    between atoms: C6_10  and  N3_11
REMARK    2  A    between atoms: C8_15  and  C9_16
REMARK    3  A    between atoms: C10_17  and  C11_18
REMARK    4  A    between atoms: C16_25  and  C17_26
REMARK       I    between atoms: C17_26  and  N5_28
REMARK    5  A    between atoms: N5_28  and  C18_30
REMARK    6  A    between atoms: C18_30  and  C19_31
ROOT
HETATM    1  C9  UNL     1      -0.592  34.463  -8.267  1.00  0.00     0.016 A
HETATM    2  C10 UNL     1      -0.947  35.086  -9.452  1.00  0.00    -0.021 A
HETATM    3  C15 UNL     1      -1.452  34.097 -10.306  1.00  0.00     0.097 A
HETATM    4  N4  UNL     1      -1.391  32.944  -9.636  1.00  0.00    -0.360 N
ATOM      5  H4  UNL     1      -1.694  32.045 -10.012  1.00  0.00     0.165 HD
HETATM    6  C16 UNL     1      -0.885  33.115  -8.416  1.00  0.00     0.112 A
ENDROOT
BRANCH   1   7
HETATM    7  C8  UNL     1      -0.005  35.111  -7.088  1.00  0.00    -0.001 A
HETATM    8  C2  UNL     1       1.345  35.342  -6.977  1.00  0.00    -0.050 A
HETATM    9  C1  UNL     1       2.251  34.927  -8.067  1.00  0.00     0.049 C
HETATM   10  C3  UNL     1       1.843  35.963  -5.855  1.00  0.00     0.010 A
HETATM   11  C4  UNL     1       1.046  36.377  -4.813  1.00  0.00     0.032 A
HETATM   12  C5  UNL     1      -0.311  36.152  -4.912  1.00  0.00     0.063 A
HETATM   13  N1  UNL     1      -1.337  36.444  -4.073  1.00  0.00    -0.298 N
HETATM   14  C7  UNL     1      -0.820  35.524  -6.043  1.00  0.00     0.049 A
HETATM   15  N2  UNL     1      -2.446  36.021  -4.644  1.00  0.00    -0.285 N
ATOM     16  H1  UNL     1      -1.262  36.906  -3.167  1.00  0.00     0.187 HD
HETATM   17  C6  UNL     1      -2.179  35.460  -5.835  1.00  0.00     0.127 A
ATOM     18  H2  UNL     1      -3.378  36.108  -4.238  1.00  0.00     0.188 HD
BRANCH  17  19
HETATM   19  N3  UNL     1      -3.014  34.941  -6.679  1.00  0.00    -0.384 N
ATOM     20  H32 UNL     1      -4.003  34.787  -6.477  1.00  0.00     0.157 HD
ATOM     21  H31 UNL     1      -2.829  34.616  -7.627  1.00  0.00     0.157 HD
ENDBRANCH  17  19
ENDBRANCH   1   7
BRANCH   2  22
HETATM   22  C11 UNL     1      -0.875  36.502  -9.855  1.00  0.00    -0.015 A
HETATM   23  C12 UNL     1      -1.633  37.536  -9.033  1.00  0.00     0.020 C
HETATM   24  C13 UNL     1       0.507  36.987 -10.296  1.00  0.00     0.015 A
HETATM   25  C14 UNL     1      -0.592  36.886 -11.258  1.00  0.00     0.015 A
ENDBRANCH   2  22
BRANCH   6  26
HETATM   26  C17 UNL     1      -0.667  32.109  -7.392  1.00  0.00     0.269 C
HETATM   27  O1  UNL     1      -1.496  31.974  -6.465  1.00  0.00    -0.266 OA
HETATM   28  N5  UNL     1       0.491  31.287  -7.456  1.00  0.00    -0.355 N
ATOM     29  H5  UNL     1       1.166  31.398  -8.212  1.00  0.00     0.162 HD
BRANCH  28  30
HETATM   30  C18 UNL     1       0.697  30.277  -6.417  1.00  0.00     0.127 C
BRANCH  30  31
HETATM   31  C19 UNL     1       1.894  29.420  -6.765  1.00  0.00     0.007 C
HETATM   32  C20 UNL     1       2.450  28.709  -5.553  1.00  0.00     0.036 C
HETATM   33  C21 UNL     1       3.220  27.515  -5.999  1.00  0.00     0.272 C
HETATM   34  N6  UNL     1       3.772  27.612  -7.333  1.00  0.00     0.084 N
HETATM   35  C22 UNL     1       4.741  26.601  -7.614  1.00  0.00     0.309 C
HETATM   36  C23 UNL     1       2.734  27.717  -8.340  1.00  0.00     0.272 C
HETATM   37  C24 UNL     1       1.485  28.362  -7.768  1.00  0.00     0.036 C
ENDBRANCH  30  31
ENDBRANCH  28  30
ENDBRANCH   6  26
TORSDOF 6
ENDMDL