MODEL 4
REMARK VINA RESULT: -7.718228038      2.831      7.435
REMARK  10 active torsions:
REMARK  status: ('A' for Active; 'I' for Inactive)
REMARK    1  A    between atoms: C2_2  and  C3_3
REMARK    2  A    between atoms: C3_3  and  N1_4
REMARK    3  A    between atoms: N1_4  and  C4_6
REMARK    4  A    between atoms: C4_6  and  C5_7
REMARK    5  A    between atoms: C4_6  and  C18_28
REMARK    6  A    between atoms: C5_7  and  N2_8
REMARK    7  A    between atoms: C5_7  and  S1_25
REMARK    8  A    between atoms: N2_8  and  C6_9
REMARK    9  A    between atoms: S1_25  and  C16_26
REMARK   10  A    between atoms: C18_28  and  N6_29
ROOT
HETATM    1  C5  UNL     1       4.413  27.472  -6.879  1.00  0.00     0.150 C
ENDROOT
BRANCH   1   2
HETATM    2  C4  UNL     1       5.249  26.584  -5.982  1.00  0.00     0.188 C
BRANCH   2   3
HETATM    3  N1  UNL     1       4.721  25.368  -5.657  1.00  0.00    -0.389 N
ATOM      4  H1  UNL     1       3.926  25.351  -5.019  1.00  0.00     0.159 HD
BRANCH   3   5
HETATM    5  C3  UNL     1       5.188  24.162  -6.131  1.00  0.00     0.056 C
BRANCH   5   6
HETATM    6  C2  UNL     1       6.586  24.024  -6.658  1.00  0.00     0.039 C
HETATM    7  C1  UNL     1       6.833  24.319  -8.087  1.00  0.00     0.010 C
ENDBRANCH   5   6
ENDBRANCH   3   5
ENDBRANCH   2   3
BRANCH   2   8
HETATM    8  C18 UNL     1       5.852  27.363  -4.798  1.00  0.00     0.150 C
HETATM    9  C19 UNL     1       5.041  27.390  -3.582  1.00  0.00     0.041 C
HETATM   10  C20 UNL     1       5.489  26.652  -2.380  1.00  0.00     0.002 C
HETATM   11  C21 UNL     1       6.959  26.469  -2.236  1.00  0.00     0.000 C
HETATM   12  C22 UNL     1       7.497  25.900  -3.532  1.00  0.00     0.002 C
HETATM   13  C23 UNL     1       7.280  26.884  -4.612  1.00  0.00     0.041 C
BRANCH   8  14
HETATM   14  N6  UNL     1       6.014  28.723  -5.301  1.00  0.00    -0.068 N
ATOM     15  H63 UNL     1       6.680  28.807  -6.069  1.00  0.00     0.275 HD
ATOM     16  H62 UNL     1       5.206  29.076  -5.814  1.00  0.00     0.275 HD
ATOM     17  H61 UNL     1       6.256  29.272  -4.476  1.00  0.00     0.275 HD
ENDBRANCH   8  14
ENDBRANCH   2   8
ENDBRANCH   1   2
BRANCH   1  18
HETATM   18  N2  UNL     1       3.363  28.181  -6.505  1.00  0.00    -0.366 NA
BRANCH  18  19
HETATM   19  C6  UNL     1       2.504  29.006  -6.347  1.00  0.00     0.262 A
HETATM   20  N3  UNL     1       1.848  29.331  -5.194  1.00  0.00    -0.300 N
HETATM   21  C7  UNL     1       0.974  30.300  -5.448  1.00  0.00     0.137 A
ATOM     22  H3  UNL     1       2.005  28.900  -4.282  1.00  0.00     0.171 HD
HETATM   23  N4  UNL     1       0.017  31.116  -4.901  1.00  0.00    -0.340 N
HETATM   24  C15 UNL     1       1.039  30.630  -6.771  1.00  0.00     0.093 A
HETATM   25  C8  UNL     1      -0.484  31.916  -5.858  1.00  0.00     0.046 A
ATOM     26  H4  UNL     1      -0.269  31.116  -3.922  1.00  0.00     0.167 HD
HETATM   27  C9  UNL     1      -1.451  32.908  -5.861  1.00  0.00     0.031 A
HETATM   28  C14 UNL     1       0.131  31.647  -7.060  1.00  0.00     0.022 A
HETATM   29  C10 UNL     1      -1.765  33.579  -7.019  1.00  0.00     0.009 A
HETATM   30  C11 UNL     1      -1.157  33.319  -8.230  1.00  0.00    -0.061 A
HETATM   31  C12 UNL     1      -1.526  34.067  -9.450  1.00  0.00     0.048 C
HETATM   32  C13 UNL     1      -0.184  32.323  -8.236  1.00  0.00     0.023 A
HETATM   33  N5  UNL     1       1.964  29.843  -7.297  1.00  0.00    -0.312 N
ATOM     34  H5  UNL     1       2.241  29.854  -8.279  1.00  0.00     0.170 HD
ENDBRANCH  18  19
ENDBRANCH   1  18
BRANCH   1  35
HETATM   35  S1  UNL     1       4.860  27.575  -8.493  1.00  0.00    -0.100 SA
BRANCH  35  36
HETATM   36  C16 UNL     1       6.574  27.874  -8.982  1.00  0.00     0.077 C
HETATM   37  C17 UNL     1       6.689  29.135  -9.836  1.00  0.00     0.016 C
ENDBRANCH  35  36
ENDBRANCH   1  35
TORSDOF 10
ENDMDL