MODEL 3
REMARK VINA RESULT: -8.122023127      6.241      9.284
REMARK  7 active torsions:
REMARK  status: ('A' for Active; 'I' for Inactive)
REMARK    1  A    between atoms: C7_7  and  C8_8
REMARK    2  A    between atoms: C8_8  and  C9_9
REMARK    3  A    between atoms: C20_20  and  N1_21
REMARK    4  A    between atoms: N1_21  and  C21_23
REMARK    5  A    between atoms: C21_23  and  C23_25
REMARK    6  A    between atoms: C23_25  and  N2_26
REMARK    7  A    between atoms: C23_25  and  C24_30
ROOT
HETATM    1  C1  UNL     1      -0.344  30.670  -6.660  1.00  0.00     0.068 C
HETATM    2  C2  UNL     1       0.816  29.789  -6.418  1.00  0.00     0.008 A
HETATM    3  C3  UNL     1       1.408  29.418  -5.220  1.00  0.00     0.040 A
HETATM    4  C4  UNL     1       2.477  28.569  -5.504  1.00  0.00     0.017 A
HETATM    5  C5  UNL     1       3.389  27.922  -4.664  1.00  0.00    -0.034 A
HETATM    6  C6  UNL     1       3.261  28.105  -3.197  1.00  0.00     0.050 C
HETATM    7  C7  UNL     1       4.345  27.140  -5.244  1.00  0.00     0.015 A
HETATM    8  C20 UNL     1       4.320  27.061  -6.644  1.00  0.00     0.114 A
HETATM    9  N3  UNL     1       3.435  27.690  -7.414  1.00  0.00    -0.327 N
ATOM     10  H3  UNL     1       3.480  27.584  -8.427  1.00  0.00     0.169 HD
HETATM   11  C25 UNL     1       2.490  28.461  -6.869  1.00  0.00     0.118 A
HETATM   12  N4  UNL     1       1.505  29.184  -7.408  1.00  0.00    -0.346 N
ATOM     13  H4  UNL     1       1.306  29.265  -8.405  1.00  0.00     0.167 HD
ENDROOT
BRANCH   7  14
HETATM   14  C8  UNL     1       5.411  26.464  -4.537  1.00  0.00     0.028 C
BRANCH  14  15
HETATM   15  C9  UNL     1       6.095  27.077  -3.420  1.00  0.00    -0.022 A
HETATM   16  C10 UNL     1       6.664  28.326  -3.405  1.00  0.00    -0.045 A
HETATM   17  C11 UNL     1       6.676  29.181  -4.633  1.00  0.00     0.049 C
HETATM   18  C12 UNL     1       7.239  28.825  -2.236  1.00  0.00    -0.049 A
HETATM   19  C13 UNL     1       7.866  30.171  -2.304  1.00  0.00     0.049 C
HETATM   20  C14 UNL     1       7.280  28.128  -1.049  1.00  0.00    -0.049 A
HETATM   21  C15 UNL     1       7.880  28.722   0.189  1.00  0.00     0.049 C
HETATM   22  C16 UNL     1       6.707  26.870  -1.065  1.00  0.00    -0.049 A
HETATM   23  C17 UNL     1       6.746  26.036   0.173  1.00  0.00     0.049 C
HETATM   24  C18 UNL     1       6.133  26.365  -2.209  1.00  0.00    -0.045 A
HETATM   25  C19 UNL     1       5.466  25.037  -2.075  1.00  0.00     0.049 C
ENDBRANCH  14  15
ENDBRANCH   7  14
BRANCH   8  26
HETATM   26  N1  UNL     1       5.226  26.383  -7.241  1.00  0.00    -0.369 N
ATOM     27  H1  UNL     1       5.466  25.488  -6.816  1.00  0.00     0.161 HD
BRANCH  26  28
HETATM   28  C21 UNL     1       5.939  26.720  -8.422  1.00  0.00     0.120 C
HETATM   29  C22 UNL     1       6.941  27.827  -8.234  1.00  0.00     0.035 C
BRANCH  28  30
HETATM   30  C23 UNL     1       4.880  27.149  -9.451  1.00  0.00     0.305 C
BRANCH  30  31
HETATM   31  N2  UNL     1       5.499  27.992 -10.471  1.00  0.00    -0.063 N
ATOM     32  H23 UNL     1       6.361  28.424 -10.140  1.00  0.00     0.275 HD
ATOM     33  H22 UNL     1       5.893  27.443 -11.235  1.00  0.00     0.275 HD
ATOM     34  H21 UNL     1       4.824  28.682 -10.801  1.00  0.00     0.275 HD
ENDBRANCH  30  31
BRANCH  30  35
HETATM   35  C24 UNL     1       4.262  25.963 -10.061  1.00  0.00     0.206 C
HETATM   36  O1  UNL     1       3.991  24.978  -9.335  1.00  0.00    -0.646 OA
HETATM   37  O2  UNL     1       3.998  25.965 -11.418  1.00  0.00    -0.646 OA
ENDBRANCH  30  35
ENDBRANCH  28  30
ENDBRANCH  26  28
ENDBRANCH   8  26
TORSDOF 7
ENDMDL