MODEL 3
REMARK VINA RESULT: -7.501350023      4.892      9.220
REMARK  6 active torsions:
REMARK  status: ('A' for Active; 'I' for Inactive)
REMARK    1  A    between atoms: C2_2  and  C3_3
REMARK    2  A    between atoms: C2_2  and  N1_28
REMARK    3  A    between atoms: C3_3  and  C4_4
REMARK    4  A    between atoms: C15_15  and  C16_16
REMARK    5  A    between atoms: C19_19  and  O1_20
REMARK       I    between atoms: N1_28  and  C26_30
REMARK       I    between atoms: C26_30  and  N2_32
REMARK    6  A    between atoms: N2_32  and  N3_33
ROOT
HETATM    1  C4  UNL     1      -0.379  38.133  -4.876  1.00  0.00    -0.004 C
HETATM    2  C5  UNL     1       0.822  37.854  -4.027  1.00  0.00     0.006 C
HETATM    3  C6  UNL     1       1.290  36.418  -4.372  1.00  0.00     0.010 C
HETATM    4  C7  UNL     1       0.922  36.323  -5.812  1.00  0.00    -0.036 C
HETATM    5  C8  UNL     1       1.933  37.132  -6.614  1.00  0.00     0.016 C
HETATM    6  C9  UNL     1      -0.408  37.009  -5.917  1.00  0.00    -0.002 C
HETATM    7  C10 UNL     1      -1.579  36.116  -5.804  1.00  0.00     0.006 C
HETATM    8  C11 UNL     1      -1.324  34.721  -5.314  1.00  0.00     0.011 C
HETATM    9  C12 UNL     1      -0.122  34.034  -5.785  1.00  0.00    -0.028 C
HETATM   10  C13 UNL     1       0.532  33.290  -4.641  1.00  0.00     0.011 C
HETATM   11  C14 UNL     1       0.553  31.844  -5.074  1.00  0.00     0.006 C
HETATM   12  C15 UNL     1       0.731  31.984  -6.554  1.00  0.00    -0.001 C
HETATM   13  C21 UNL     1      -0.288  33.012  -6.887  1.00  0.00    -0.032 C
HETATM   14  C22 UNL     1      -1.658  32.468  -7.023  1.00  0.00     0.016 C
HETATM   15  C23 UNL     1       0.093  33.670  -8.176  1.00  0.00     0.011 C
HETATM   16  C24 UNL     1       0.594  35.032  -7.842  1.00  0.00     0.007 C
HETATM   17  C25 UNL     1       0.932  34.937  -6.374  1.00  0.00     0.003 C
ENDROOT
BRANCH   1  18
HETATM   18  C3  UNL     1      -0.422  39.463  -5.540  1.00  0.00     0.057 C
BRANCH  18  19
HETATM   19  C2  UNL     1      -1.181  40.564  -4.951  1.00  0.00    -0.011 C
HETATM   20  C1  UNL     1      -2.284  41.171  -5.802  1.00  0.00     0.063 C
BRANCH  19  21
HETATM   21  N1  UNL     1      -0.559  41.437  -4.029  1.00  0.00    -0.303 N
HETATM   22  C26 UNL     1      -0.553  41.288  -2.628  1.00  0.00     0.415 C
HETATM   23  O2  UNL     1      -1.227  40.311  -2.175  1.00  0.00    -0.228 OA
HETATM   24  N2  UNL     1       0.139  42.133  -1.757  1.00  0.00    -0.272 NA
ATOM     25  H1  UNL     1      -0.072  42.247  -4.413  1.00  0.00     0.171 HD
BRANCH  24  26
HETATM   26  N3  UNL     1       0.779  42.913  -0.951  1.00  0.00    -0.275 N
ATOM     27  H32 UNL     1       0.247  42.343  -1.609  1.00  0.00     0.191 HD
ATOM     28  H31 UNL     1       1.284  43.528  -0.313  1.00  0.00     0.191 HD
ENDBRANCH  24  26
ENDBRANCH  19  21
ENDBRANCH  18  19
ENDBRANCH   1  18
BRANCH  12  29
HETATM   29  C16 UNL     1       0.866  30.779  -7.355  1.00  0.00    -0.007 C
HETATM   30  C17 UNL     1       0.691  29.449  -6.735  1.00  0.00     0.007 C
HETATM   31  C18 UNL     1       1.849  28.556  -7.211  1.00  0.00     0.032 C
HETATM   32  C19 UNL     1       2.316  29.298  -8.477  1.00  0.00     0.118 C
HETATM   33  C20 UNL     1       2.292  30.723  -7.913  1.00  0.00     0.036 C
BRANCH  32  34
HETATM   34  O1  UNL     1       3.577  28.920  -8.873  1.00  0.00    -0.396 OA
ATOM     35  H1  UNL     1       3.789  29.223  -9.748  1.00  0.00     0.210 HD
ENDBRANCH  32  34
ENDBRANCH  12  29
TORSDOF 6
ENDMDL