MODEL 1
REMARK VINA RESULT: -9.940168258      0.000      0.000
REMARK  7 active torsions:
REMARK  status: ('A' for Active; 'I' for Inactive)
REMARK    1  A    between atoms: C3_5  and  N2_6
REMARK       I    between atoms: N2_6  and  C4_8
REMARK       I    between atoms: C4_8  and  N3_10
REMARK    2  A    between atoms: N3_10  and  C5_12
REMARK    3  A    between atoms: C12_21  and  C13_22
REMARK    4  A    between atoms: C13_22  and  N5_24
REMARK    5  A    between atoms: C13_22  and  C15_28
REMARK    6  A    between atoms: C15_28  and  C16_29
REMARK    7  A    between atoms: C18_35  and  C19_36
ROOT
HETATM    1  C1  UNL     1       2.369  28.323  -9.612  1.00  0.00     0.069 C
HETATM    2  C2  UNL     1       2.713  28.182  -8.195  1.00  0.00     0.016 A
HETATM    3  N1  UNL     1       1.961  28.749  -7.229  1.00  0.00    -0.344 N
ATOM      4  H1  UNL     1       1.129  29.260  -7.523  1.00  0.00     0.167 HD
HETATM    5  C3  UNL     1       2.217  28.697  -5.916  1.00  0.00     0.139 A
HETATM    6  C11 UNL     1       3.379  27.978  -5.558  1.00  0.00     0.106 A
HETATM    7  N4  UNL     1       3.920  27.734  -4.362  1.00  0.00    -0.339 N
ATOM      8  H4  UNL     1       3.549  28.052  -3.467  1.00  0.00     0.167 HD
HETATM    9  C12 UNL     1       5.028  27.006  -4.530  1.00  0.00     0.119 A
HETATM   10  N6  UNL     1       5.205  26.779  -5.826  1.00  0.00    -0.341 N
ATOM     11  H6  UNL     1       5.968  26.251  -6.249  1.00  0.00     0.167 HD
HETATM   12  C17 UNL     1       4.179  27.382  -6.482  1.00  0.00     0.073 A
HETATM   13  C18 UNL     1       3.854  27.476  -7.837  1.00  0.00    -0.003 A
ENDROOT
BRANCH   5  14
HETATM   14  N2  UNL     1       1.545  29.225  -4.982  1.00  0.00    -0.293 N
HETATM   15  C4  UNL     1       0.750  30.302  -4.779  1.00  0.00     0.322 C
HETATM   16  O1  UNL     1      -0.221  30.177  -3.942  1.00  0.00    -0.247 OA
HETATM   17  N3  UNL     1       0.871  31.558  -5.386  1.00  0.00    -0.338 N
ATOM     18  H3  UNL     1       1.618  31.723  -6.062  1.00  0.00     0.164 HD
ATOM     19  H2  UNL     1       1.627  28.675  -4.127  1.00  0.00     0.172 HD
BRANCH  17  20
HETATM   20  C5  UNL     1      -0.077  32.650  -5.057  1.00  0.00     0.086 C
HETATM   21  C6  UNL     1      -1.172  32.573  -6.073  1.00  0.00     0.025 C
HETATM   22  C7  UNL     1      -1.840  33.850  -6.422  1.00  0.00     0.002 C
HETATM   23  C8  UNL     1      -1.549  34.882  -5.371  1.00  0.00     0.000 C
HETATM   24  C9  UNL     1      -0.060  35.132  -5.389  1.00  0.00     0.002 C
HETATM   25  C10 UNL     1       0.728  33.889  -5.055  1.00  0.00     0.025 C
ENDBRANCH  17  20
ENDBRANCH   5  14
BRANCH  13  26
HETATM   26  C19 UNL     1       4.647  26.862  -8.883  1.00  0.00     0.015 C
HETATM   27  C20 UNL     1       5.978  27.516  -9.186  1.00  0.00     0.015 C
HETATM   28  C21 UNL     1       4.854  25.349  -8.698  1.00  0.00     0.015 C
ENDBRANCH  13  26
BRANCH   9  29
HETATM   29  C13 UNL     1       5.886  26.561  -3.392  1.00  0.00     0.187 C
HETATM   30  C14 UNL     1       6.342  25.143  -3.523  1.00  0.00     0.055 C
BRANCH  29  31
HETATM   31  N5  UNL     1       5.104  26.668  -2.151  1.00  0.00    -0.063 N
ATOM     32  H53 UNL     1       5.357  27.486  -1.598  1.00  0.00     0.275 HD
ATOM     33  H52 UNL     1       4.128  26.912  -2.323  1.00  0.00     0.275 HD
ATOM     34  H51 UNL     1       5.204  25.796  -1.630  1.00  0.00     0.275 HD
ENDBRANCH  29  31
BRANCH  29  35
HETATM   35  C15 UNL     1       7.039  27.518  -3.308  1.00  0.00     0.159 C
BRANCH  35  36
HETATM   36  C16 UNL     1       6.632  28.938  -3.258  1.00  0.00     0.175 C
HETATM   37  O2  UNL     1       6.240  29.405  -2.130  1.00  0.00    -0.648 OA
HETATM   38  O3  UNL     1       6.633  29.807  -4.298  1.00  0.00    -0.648 OA
ENDBRANCH  35  36
ENDBRANCH  29  35
ENDBRANCH   9  29
TORSDOF 7
ENDMDL