MODEL 1
REMARK VINA RESULT: -10.114691248      0.000      0.000
REMARK  6 active torsions:
REMARK  status: ('A' for Active; 'I' for Inactive)
REMARK       I    between atoms: C1_4  and  N3_6
REMARK    1  A    between atoms: N3_6  and  C2_8
REMARK    2  A    between atoms: C5_11  and  C6_12
REMARK    3  A    between atoms: C6_12  and  N4_13
REMARK    4  A    between atoms: C9_16  and  N5_17
REMARK       I    between atoms: N5_17  and  C10_19
REMARK    5  A    between atoms: C10_19  and  C11_21
REMARK    6  A    between atoms: C23_33  and  O2_34
ROOT
HETATM    1  N4  UNL     1       5.508  26.907  -7.288  1.00  0.00    -0.389 N
HETATM    2  C7  UNL     1       4.584  26.334  -6.398  1.00  0.00     0.060 C
HETATM    3  C8  UNL     1       3.315  27.110  -6.192  1.00  0.00     0.069 C
HETATM    4  C9  UNL     1       2.674  27.582  -7.468  1.00  0.00     0.090 C
HETATM    5  C21 UNL     1       3.531  27.403  -8.671  1.00  0.00     0.045 C
HETATM    6  C22 UNL     1       4.998  27.598  -8.417  1.00  0.00     0.124 C
ENDROOT
BRANCH   1   7
HETATM    7  C6  UNL     1       6.623  27.576  -6.690  1.00  0.00     0.163 C
BRANCH   7   8
HETATM    8  C5  UNL     1       6.832  27.253  -5.271  1.00  0.00    -0.007 A
HETATM    9  C4  UNL     1       7.185  26.018  -4.791  1.00  0.00     0.014 A
HETATM   10  C3  UNL     1       7.397  25.754  -3.458  1.00  0.00     0.030 A
HETATM   11  C2  UNL     1       7.262  26.746  -2.514  1.00  0.00     0.037 A
HETATM   12  C24 UNL     1       6.906  28.012  -2.957  1.00  0.00     0.066 A
HETATM   13  C23 UNL     1       6.702  28.248  -4.291  1.00  0.00     0.075 A
BRANCH  11  14
HETATM   14  N3  UNL     1       7.476  26.506  -1.131  1.00  0.00    -0.331 N
HETATM   15  C1  UNL     1       6.892  27.361  -0.167  1.00  0.00     0.186 C
HETATM   16  N1  UNL     1       5.646  27.197   0.121  1.00  0.00    -0.373 N
HETATM   17  N2  UNL     1       7.663  28.372   0.468  1.00  0.00    -0.064 NA
ATOM     18  H12 UNL     1       5.225  27.814   0.816  1.00  0.00     0.158 HD
ATOM     19  H11 UNL     1       5.092  26.471  -0.335  1.00  0.00     0.158 HD
ATOM     20  H3  UNL     1       8.049  25.717  -0.833  1.00  0.00     0.168 HD
ENDBRANCH  11  14
BRANCH  13  21
HETATM   21  O2  UNL     1       6.342  29.522  -4.752  1.00  0.00    -0.360 OA
ATOM     22  H2  UNL     1       6.461  30.237  -4.138  1.00  0.00     0.217 HD
ENDBRANCH  13  21
ENDBRANCH   7   8
ENDBRANCH   1   7
BRANCH   4  23
HETATM   23  N5  UNL     1       2.285  28.962  -7.242  1.00  0.00    -0.355 N
HETATM   24  C10 UNL     1       0.994  29.367  -6.815  1.00  0.00     0.226 C
HETATM   25  O1  UNL     1       0.065  28.560  -6.588  1.00  0.00    -0.273 OA
ATOM     26  H5  UNL     1       2.984  29.687  -7.402  1.00  0.00     0.162 HD
BRANCH  24  27
HETATM   27  C11 UNL     1       0.719  30.810  -6.622  1.00  0.00     0.042 C
HETATM   28  C12 UNL     1       0.819  31.132  -5.151  1.00  0.00     0.024 C
HETATM   29  C13 UNL     1       0.648  32.597  -4.899  1.00  0.00    -0.013 C
HETATM   30  C14 UNL     1      -0.783  32.962  -5.289  1.00  0.00     0.009 C
HETATM   31  C18 UNL     1       1.595  33.405  -5.757  1.00  0.00     0.009 C
HETATM   32  C15 UNL     1      -1.009  32.561  -6.721  1.00  0.00    -0.013 C
HETATM   33  C16 UNL     1      -0.106  33.413  -7.607  1.00  0.00     0.009 C
HETATM   34  C20 UNL     1      -0.717  31.127  -7.017  1.00  0.00     0.024 C
HETATM   35  C17 UNL     1       1.313  33.124  -7.195  1.00  0.00    -0.013 C
HETATM   36  C19 UNL     1       1.608  31.670  -7.482  1.00  0.00     0.024 C
ENDBRANCH  24  27
ENDBRANCH   4  23
TORSDOF 6
ENDMDL