MODEL 4
REMARK VINA RESULT: -5.717205515      1.117      1.575
REMARK  14 active torsions:
REMARK  status: ('A' for Active; 'I' for Inactive)
REMARK    1  A    between atoms: S1_2  and  C2_3
REMARK    2  A    between atoms: C3_4  and  O1_5
REMARK    3  A    between atoms: O1_5  and  C4_6
REMARK    4  A    between atoms: C5_8  and  N1_9
REMARK    5  A    between atoms: N1_9  and  O3_10
REMARK    6  A    between atoms: C6_14  and  O4_15
REMARK    7  A    between atoms: C7_17  and  N3_18
REMARK    8  A    between atoms: C8_23  and  C9_24
REMARK    9  A    between atoms: C9_24  and  N4_25
REMARK   10  A    between atoms: C10_29  and  O6_30
REMARK   11  A    between atoms: O6_30  and  C11_31
REMARK   12  A    between atoms: C12_32  and  N5_33
REMARK   13  A    between atoms: C14_38  and  N6_39
REMARK   14  A    between atoms: C16_44  and  N7_45
ROOT
HETATM    1  C2  UNL     1      -9.845 -25.535  -1.370  1.00  0.00     0.133 C
HETATM    2  C3  UNL     1     -10.967 -26.429  -1.784  1.00  0.00     0.279 C
HETATM    3  O5  UNL     1     -11.369 -25.976  -3.042  1.00  0.00    -0.350 OA
HETATM    4  C8  UNL     1     -10.199 -25.536  -3.683  1.00  0.00     0.180 C
HETATM    5  C10 UNL     1      -9.427 -24.822  -2.638  1.00  0.00     0.171 C
ENDROOT
BRANCH   5   6
HETATM    6  O6  UNL     1      -8.080 -24.760  -2.808  1.00  0.00    -0.372 OA
BRANCH   6   7
HETATM    7  C11 UNL     1      -7.446 -23.633  -2.325  1.00  0.00     0.182 C
HETATM    8  C12 UNL     1      -6.525 -24.127  -1.205  1.00  0.00     0.216 C
HETATM    9  C13 UNL     1      -5.476 -23.152  -0.824  1.00  0.00     0.068 C
HETATM   10  C14 UNL     1      -5.529 -21.839  -1.559  1.00  0.00     0.187 C
HETATM   11  C15 UNL     1      -5.637 -22.031  -3.055  1.00  0.00     0.068 C
HETATM   12  C16 UNL     1      -6.636 -23.057  -3.468  1.00  0.00     0.216 C
BRANCH   8  13
HETATM   13  N5  UNL     1      -5.925 -25.397  -1.609  1.00  0.00    -0.072 N
ATOM     14  H53 UNL     1      -5.145 -25.667  -1.010  1.00  0.00     0.274 HD
ATOM     15  H52 UNL     1      -6.534 -26.192  -1.415  1.00  0.00     0.274 HD
ATOM     16  H51 UNL     1      -5.659 -25.342  -2.592  1.00  0.00     0.274 HD
ENDBRANCH   8  13
BRANCH  10  17
HETATM   17  N6  UNL     1      -6.557 -20.958  -1.061  1.00  0.00    -0.075 N
ATOM     18  H63 UNL     1      -7.253 -21.477  -0.525  1.00  0.00     0.274 HD
ATOM     19  H62 UNL     1      -6.194 -20.355  -0.322  1.00  0.00     0.274 HD
ATOM     20  H61 UNL     1      -6.999 -20.408  -1.797  1.00  0.00     0.274 HD
ENDBRANCH  10  17
BRANCH  12  21
HETATM   21  N7  UNL     1      -6.063 -24.099  -4.298  1.00  0.00    -0.072 N
ATOM     22  H73 UNL     1      -5.558 -24.785  -3.737  1.00  0.00     0.274 HD
ATOM     23  H72 UNL     1      -6.786 -24.707  -4.682  1.00  0.00     0.274 HD
ATOM     24  H71 UNL     1      -5.472 -23.713  -5.034  1.00  0.00     0.274 HD
ENDBRANCH  12  21
ENDBRANCH   6   7
ENDBRANCH   5   6
BRANCH   1  25
HETATM   25  S1  UNL     1     -10.402 -24.392  -0.081  1.00  0.00    -0.161 SA
HETATM   26  C1  UNL     1     -11.094 -22.883  -0.752  1.00  0.00     0.090 C
ENDBRANCH   1  25
BRANCH   4  27
HETATM   27  C9  UNL     1     -10.629 -24.658  -4.830  1.00  0.00     0.264 C
BRANCH  27  28
HETATM   28  N4  UNL     1      -9.603 -24.379  -5.784  1.00  0.00    -0.077 N
ATOM     29  H43 UNL     1     -10.010 -24.206  -6.703  1.00  0.00     0.274 HD
ATOM     30  H42 UNL     1      -9.188 -23.465  -5.601  1.00  0.00     0.274 HD
ATOM     31  H41 UNL     1      -8.876 -25.092  -5.847  1.00  0.00     0.274 HD
ENDBRANCH  27  28
ENDBRANCH   4  27
BRANCH   2  32
HETATM   32  O1  UNL     1     -12.088 -26.361  -0.972  1.00  0.00    -0.328 OA
BRANCH  32  33
HETATM   33  C4  UNL     1     -13.115 -27.176  -1.335  1.00  0.00     0.301 C
HETATM   34  O2  UNL     1     -14.278 -26.562  -1.712  1.00  0.00    -0.318 OA
HETATM   35  C5  UNL     1     -15.067 -27.494  -2.382  1.00  0.00     0.347 C
HETATM   36  N2  UNL     1     -15.377 -28.655  -1.617  1.00  0.00    -0.355 N
HETATM   37  C6  UNL     1     -14.247 -29.302  -1.024  1.00  0.00     0.252 C
ATOM     38  H2  UNL     1     -16.331 -28.998  -1.502  1.00  0.00     0.159 HD
HETATM   39  C7  UNL     1     -13.464 -28.213  -0.276  1.00  0.00     0.286 C
BRANCH  35  40
HETATM   40  N1  UNL     1     -14.508 -27.838  -3.675  1.00  0.00    -0.050 NA
BRANCH  40  41
HETATM   41  O3  UNL     1     -15.322 -28.585  -4.415  1.00  0.00    -0.292 OA
ATOM     42  H3  UNL     1     -15.032 -28.675  -5.315  1.00  0.00     0.238 HD
ENDBRANCH  40  41
ENDBRANCH  35  40
BRANCH  37  43
HETATM   43  O4  UNL     1     -14.655 -30.265  -0.128  1.00  0.00    -0.375 OA
ATOM     44  H4  UNL     1     -15.374 -29.942   0.404  1.00  0.00     0.212 HD
ENDBRANCH  37  43
BRANCH  39  45
HETATM   45  N3  UNL     1     -14.387 -27.676   0.709  1.00  0.00    -0.066 N
ATOM     46  H33 UNL     1     -13.954 -26.939   1.264  1.00  0.00     0.275 HD
ATOM     47  H32 UNL     1     -15.125 -27.128   0.269  1.00  0.00     0.275 HD
ATOM     48  H31 UNL     1     -14.771 -28.413   1.301  1.00  0.00     0.275 HD
ENDBRANCH  39  45
ENDBRANCH  32  33
ENDBRANCH   2  32
TORSDOF 14
ENDMDL