MODEL 5
REMARK VINA RESULT: -6.721414137      2.025      2.876
REMARK  7 active torsions:
REMARK  status: ('A' for Active; 'I' for Inactive)
REMARK    1  A    between atoms: C3_5  and  C4_6
REMARK    2  A    between atoms: C5_11  and  N3_12
REMARK       I    between atoms: N3_12  and  C6_14
REMARK       I    between atoms: C6_14  and  N4_15
REMARK       I    between atoms: C6_14  and  N5_19
REMARK    3  A    between atoms: C8_25  and  N7_26
REMARK    4  A    between atoms: C9_31  and  C10_32
REMARK       I    between atoms: C10_32  and  N10_34
REMARK       I    between atoms: N10_34  and  C11_36
REMARK       I    between atoms: C11_36  and  N12_40
REMARK    5  A    between atoms: N12_40  and  N13_42
REMARK    6  A    between atoms: C12_45  and  C13_46
REMARK       I    between atoms: C13_46  and  N14_48
REMARK    7  A    between atoms: N14_48  and  O5_50
ROOT
HETATM    1  N7  UNL     1     -10.332 -24.582  -1.870  1.00  0.00    -0.230 N
HETATM    2  N8  UNL     1     -11.241 -23.832  -1.235  1.00  0.00    -0.234 N
ATOM      3  H8  UNL     1     -11.053 -22.903  -0.857  1.00  0.00     0.209 HD
HETATM    4  N9  UNL     1     -12.376 -24.421  -1.160  1.00  0.00    -0.278 N
ATOM      5  H9  UNL     1     -13.213 -24.036  -0.721  1.00  0.00     0.189 HD
HETATM    6  C9  UNL     1     -12.288 -25.658  -1.766  1.00  0.00     0.152 A
HETATM    7  C12 UNL     1     -10.977 -25.718  -2.205  1.00  0.00     0.161 A
ENDROOT
BRANCH   1   8
HETATM    8  C8  UNL     1      -8.998 -24.190  -2.125  1.00  0.00     0.108 C
HETATM    9  C2  UNL     1      -8.778 -23.653  -3.370  1.00  0.00     0.038 C
HETATM   10  C1  UNL     1      -9.984 -23.089  -4.015  1.00  0.00     0.070 C
HETATM   11  N1  UNL     1      -7.602 -23.575  -4.065  1.00  0.00    -0.338 N
HETATM   12  C3  UNL     1      -6.363 -23.515  -3.574  1.00  0.00     0.185 C
ATOM     13  H1  UNL     1      -7.682 -23.560  -5.082  1.00  0.00     0.167 HD
HETATM   14  N2  UNL     1      -5.942 -23.940  -2.370  1.00  0.00    -0.322 N
HETATM   15  C5  UNL     1      -6.657 -24.238  -1.242  1.00  0.00     0.132 C
ATOM     16  H2  UNL     1      -4.932 -24.060  -2.284  1.00  0.00     0.169 HD
HETATM   17  C7  UNL     1      -8.030 -24.345  -1.147  1.00  0.00     0.120 C
HETATM   18  N6  UNL     1      -8.505 -24.661   0.147  1.00  0.00    -0.096 NA
BRANCH  12  19
HETATM   19  C4  UNL     1      -5.315 -22.918  -4.431  1.00  0.00     0.245 C
HETATM   20  O1  UNL     1      -4.813 -21.815  -4.198  1.00  0.00    -0.642 OA
HETATM   21  O2  UNL     1      -4.907 -23.651  -5.530  1.00  0.00    -0.642 OA
ENDBRANCH  12  19
BRANCH  15  22
HETATM   22  N3  UNL     1      -6.014 -24.447  -0.147  1.00  0.00    -0.325 N
HETATM   23  C6  UNL     1      -5.349 -23.335   0.488  1.00  0.00     0.481 C
HETATM   24  N4  UNL     1      -4.002 -23.699   0.904  1.00  0.00    -0.033 N
HETATM   25  N5  UNL     1      -6.107 -22.829   1.620  1.00  0.00    -0.033 N
ATOM     26  H43 UNL     1      -4.004 -24.526   1.501  1.00  0.00     0.278 HD
ATOM     27  H42 UNL     1      -3.456 -24.070   0.127  1.00  0.00     0.278 HD
ATOM     28  H41 UNL     1      -3.532 -22.913   1.353  1.00  0.00     0.278 HD
ATOM     29  H53 UNL     1      -7.061 -22.587   1.350  1.00  0.00     0.278 HD
ATOM     30  H52 UNL     1      -6.314 -23.570   2.289  1.00  0.00     0.278 HD
ATOM     31  H51 UNL     1      -5.637 -22.043   2.068  1.00  0.00     0.278 HD
ATOM     32  H3  UNL     1      -5.976 -25.380   0.264  1.00  0.00     0.165 HD
ENDBRANCH  15  22
ENDBRANCH   1   8
BRANCH   7  33
HETATM   33  C13 UNL     1     -10.372 -26.822  -2.919  1.00  0.00     0.296 C
HETATM   34  O4  UNL     1      -9.324 -27.322  -2.442  1.00  0.00    -0.264 OA
HETATM   35  N14 UNL     1     -10.876 -27.368  -4.107  1.00  0.00    -0.232 N
ATOM     36  H14 UNL     1     -11.723 -26.982  -4.524  1.00  0.00     0.197 HD
BRANCH  35  37
HETATM   37  O5  UNL     1     -10.233 -28.422  -4.712  1.00  0.00    -0.287 OA
ATOM     38  H5  UNL     1     -10.712 -29.212  -4.932  1.00  0.00     0.244 HD
ENDBRANCH  35  37
ENDBRANCH   7  33
BRANCH   6  39
HETATM   39  C10 UNL     1     -13.401 -26.563  -1.866  1.00  0.00     0.290 C
HETATM   40  O3  UNL     1     -13.150 -27.807  -2.015  1.00  0.00    -0.265 OA
HETATM   41  N10 UNL     1     -14.745 -26.182  -1.819  1.00  0.00    -0.153 N
HETATM   42  C11 UNL     1     -15.819 -27.123  -1.909  1.00  0.00     0.693 C
ATOM     43  H10 UNL     1     -14.970 -25.193  -1.718  1.00  0.00     0.187 HD
HETATM   44  N11 UNL     1     -17.020 -26.665  -1.856  1.00  0.00    -0.233 N
HETATM   45  N12 UNL     1     -15.624 -28.522  -2.053  1.00  0.00    -0.139 N
ATOM     46 2H11 UNL     1     -17.161 -25.660  -1.752  1.00  0.00     0.174 HD
ATOM     47 1H11 UNL     1     -17.787 -27.336  -1.920  1.00  0.00     0.174 HD
ATOM     48  H12 UNL     1     -15.134 -29.044  -1.326  1.00  0.00     0.205 HD
BRANCH  45  49
HETATM   49  N13 UNL     1     -16.100 -29.185  -3.187  1.00  0.00    -0.331 N
ATOM     50 2H13 UNL     1     -15.572 -29.115  -4.058  1.00  0.00     0.177 HD
ATOM     51 1H13 UNL     1     -16.962 -29.727  -3.139  1.00  0.00     0.177 HD
ENDBRANCH  45  49
ENDBRANCH   6  39
TORSDOF 7
ENDMDL