MODEL 4
REMARK VINA RESULT: -6.649870552      5.497      8.121
REMARK  9 active torsions:
REMARK  status: ('A' for Active; 'I' for Inactive)
REMARK    1  A    between atoms: C2_2  and  S1_3
REMARK    2  A    between atoms: S1_3  and  C3_4
REMARK    3  A    between atoms: N4_9  and  C4_10
REMARK    4  A    between atoms: C4_10  and  N5_11
REMARK    5  A    between atoms: C6_13  and  C7_14
REMARK    6  A    between atoms: C7_14  and  O1_15
REMARK    7  A    between atoms: C8_18  and  N6_19
REMARK    8  A    between atoms: C9_22  and  N8_23
REMARK       I    between atoms: N8_23  and  C10_24
REMARK       I    between atoms: C10_24  and  N9_25
REMARK       I    between atoms: C10_24  and  N10_29
REMARK    9  A    between atoms: C12_34  and  N11_35
ROOT
HETATM    1  N6  UNL     1      -8.043 -22.192  -2.230  1.00  0.00    -0.242 N
HETATM    2  N7  UNL     1      -7.414 -22.429  -1.126  1.00  0.00    -0.267 N
ATOM      3  H7  UNL     1      -7.819 -22.939  -0.341  1.00  0.00     0.190 HD
HETATM    4  C9  UNL     1      -6.136 -21.916  -1.127  1.00  0.00     0.210 A
HETATM    5  C11 UNL     1      -6.019 -21.307  -2.381  1.00  0.00     0.112 A
HETATM    6  C12 UNL     1      -4.985 -20.607  -3.007  1.00  0.00     0.118 A
HETATM    7  N12 UNL     1      -5.200 -20.120  -4.281  1.00  0.00    -0.338 N
ATOM      8  H12 UNL     1      -4.464 -19.605  -4.765  1.00  0.00     0.168 HD
HETATM    9  C13 UNL     1      -6.378 -20.327  -4.876  1.00  0.00     0.183 A
HETATM   10  N13 UNL     1      -7.371 -20.996  -4.280  1.00  0.00    -0.336 N
ATOM     11  H13 UNL     1      -8.257 -21.132  -4.767  1.00  0.00     0.168 HD
HETATM   12  C14 UNL     1      -7.202 -21.495  -3.026  1.00  0.00     0.144 A
ENDROOT
BRANCH   1  13
HETATM   13  C8  UNL     1      -9.399 -22.576  -2.626  1.00  0.00     0.274 C
HETATM   14  O2  UNL     1      -9.393 -23.053  -3.906  1.00  0.00    -0.354 OA
HETATM   15  C6  UNL     1      -9.381 -24.417  -4.060  1.00  0.00     0.176 C
HETATM   16  C5  UNL     1     -10.420 -25.173  -3.295  1.00  0.00     0.308 C
HETATM   17  N5  UNL     1     -11.148 -24.212  -2.454  1.00  0.00     0.114 N
HETATM   18  C15 UNL     1     -10.040 -23.558  -1.696  1.00  0.00     0.330 C
BRANCH  15  19
HETATM   19  C7  UNL     1      -9.684 -24.673  -5.558  1.00  0.00     0.197 C
BRANCH  19  20
HETATM   20  O1  UNL     1     -10.520 -23.671  -5.981  1.00  0.00    -0.398 OA
ATOM     21  H1  UNL     1     -11.411 -23.956  -5.813  1.00  0.00     0.209 HD
ENDBRANCH  19  20
ENDBRANCH  15  19
BRANCH  17  22
HETATM   22  C4  UNL     1     -11.920 -25.014  -1.483  1.00  0.00     0.420 C
BRANCH  22  23
HETATM   23  N4  UNL     1     -13.300 -25.064  -1.897  1.00  0.00    -0.227 N
HETATM   24  C3  UNL     1     -13.968 -26.094  -2.608  1.00  0.00     0.173 C
HETATM   25  N1  UNL     1     -15.121 -25.594  -3.007  1.00  0.00    -0.264 N
HETATM   26  N2  UNL     1     -15.236 -24.295  -2.592  1.00  0.00    -0.007 NA
ATOM     27  H1  UNL     1     -15.824 -26.102  -3.545  1.00  0.00     0.186 HD
HETATM   28  N3  UNL     1     -14.265 -24.041  -1.647  1.00  0.00    -0.003 NA
BRANCH  24  29
HETATM   29  S1  UNL     1     -13.426 -27.750  -2.944  1.00  0.00    -0.092 SA
BRANCH  29  30
HETATM   30  C2  UNL     1     -14.261 -29.042  -2.039  1.00  0.00     0.078 C
HETATM   31  C1  UNL     1     -13.893 -28.839  -0.555  1.00  0.00     0.016 C
ENDBRANCH  29  30
ENDBRANCH  24  29
ENDBRANCH  22  23
ENDBRANCH  17  22
ENDBRANCH   1  13
BRANCH   4  32
HETATM   32  N8  UNL     1      -5.338 -21.980  -0.217  1.00  0.00    -0.369 NA
HETATM   33  C10 UNL     1      -4.458 -22.045   0.774  1.00  0.00     0.556 C
HETATM   34  N9  UNL     1      -3.176 -22.712   0.467  1.00  0.00    -0.021 N
HETATM   35  N10 UNL     1      -4.049 -20.781   1.415  1.00  0.00    -0.021 N
ATOM     36  H93 UNL     1      -3.353 -23.647   0.101  1.00  0.00     0.280 HD
ATOM     37  H92 UNL     1      -2.745 -22.273  -0.347  1.00  0.00     0.280 HD
ATOM     38  H91 UNL     1      -2.500 -22.763   1.229  1.00  0.00     0.280 HD
ATOM     39 3H10 UNL     1      -3.703 -20.139   0.701  1.00  0.00     0.280 HD
ATOM     40 2H10 UNL     1      -4.879 -20.283   1.735  1.00  0.00     0.280 HD
ATOM     41 1H10 UNL     1      -3.373 -20.832   2.177  1.00  0.00     0.280 HD
ENDBRANCH   4  32
BRANCH   6  42
HETATM   42  N11 UNL     1      -3.865 -20.412  -2.476  1.00  0.00    -0.385 N
ATOM     43 2H11 UNL     1      -3.835 -19.957  -1.563  1.00  0.00     0.157 HD
ATOM     44 1H11 UNL     1      -2.983 -20.674  -2.916  1.00  0.00     0.157 HD
ENDBRANCH   6  42
TORSDOF 9
ENDMDL