MODEL 2
REMARK VINA RESULT: -7.128852991      0.942      1.413
REMARK  9 active torsions:
REMARK  status: ('A' for Active; 'I' for Inactive)
REMARK    1  A    between atoms: N1_1  and  C1_4
REMARK    2  A    between atoms: C3_8  and  O1_9
REMARK    3  A    between atoms: O1_9  and  C4_10
REMARK    4  A    between atoms: C4_10  and  C5_11
REMARK    5  A    between atoms: C7_15  and  C8_16
REMARK    6  A    between atoms: C9_20  and  S1_21
REMARK    7  A    between atoms: S1_21  and  N5_22
REMARK    8  A    between atoms: N5_22  and  N6_24
REMARK    9  A    between atoms: C10_34  and  N11_35
ROOT
HETATM    1  C5  UNL     1      -9.713 -24.545  -4.077  1.00  0.00     0.050 A
HETATM    2  C6  UNL     1     -10.936 -24.729  -4.636  1.00  0.00     0.115 A
HETATM    3  N3  UNL     1     -11.894 -25.429  -3.977  1.00  0.00    -0.362 N
ATOM      4  H3  UNL     1     -12.804 -25.552  -4.421  1.00  0.00     0.165 HD
HETATM    5  C7  UNL     1     -11.691 -25.966  -2.763  1.00  0.00     0.101 A
HETATM    6  C10 UNL     1     -10.413 -25.747  -2.228  1.00  0.00     0.125 A
HETATM    7  N12 UNL     1      -9.460 -25.054  -2.879  1.00  0.00    -0.342 N
ATOM      8  H12 UNL     1      -8.544 -24.921  -2.451  1.00  0.00     0.167 HD
ENDROOT
BRANCH   5   9
HETATM    9  C8  UNL     1     -12.712 -26.735  -2.006  1.00  0.00     0.384 C
HETATM   10  N4  UNL     1     -13.068 -27.866  -2.815  1.00  0.00    -0.018 N
HETATM   11  C9  UNL     1     -14.426 -27.883  -3.155  1.00  0.00     0.380 C
ATOM     12  H42 UNL     1     -12.483 -27.918  -3.649  1.00  0.00     0.282 HD
ATOM     13  H41 UNL     1     -12.793 -28.739  -2.366  1.00  0.00     0.282 HD
HETATM   14  N10 UNL     1     -14.888 -26.527  -3.417  1.00  0.00    -0.278 N
HETATM   15  S2  UNL     1     -14.207 -25.778  -1.984  1.00  0.00     0.264 S
ATOM     16  H10 UNL     1     -15.434 -26.138  -4.187  1.00  0.00     0.175 HD
HETATM   17  O2  UNL     1     -14.014 -24.330  -2.147  1.00  0.00    -0.203 OA
HETATM   18  O3  UNL     1     -15.084 -26.145  -0.825  1.00  0.00    -0.203 OA
BRANCH  11  19
HETATM   19  S1  UNL     1     -15.497 -28.547  -1.842  1.00  0.00     0.020 SA
BRANCH  19  20
HETATM   20  N5  UNL     1     -14.563 -29.111  -0.463  1.00  0.00    -0.235 N
ATOM     21  H5  UNL     1     -14.323 -28.464   0.288  1.00  0.00     0.198 HD
BRANCH  20  22
HETATM   22  N6  UNL     1     -14.153 -30.434  -0.395  1.00  0.00    -0.098 N
HETATM   23  N7  UNL     1     -13.414 -31.201   0.366  1.00  0.00    -0.193 N
HETATM   24  N8  UNL     1     -13.651 -32.273  -0.397  1.00  0.00     0.013 NA
ATOM     25  H7  UNL     1     -12.868 -31.042   1.212  1.00  0.00     0.208 HD
HETATM   26  N9  UNL     1     -14.396 -31.490  -1.159  1.00  0.00     0.034 NA
ENDBRANCH  20  22
ENDBRANCH  19  20
ENDBRANCH  11  19
ENDBRANCH   5   9
BRANCH   6  27
HETATM   27  N11 UNL     1     -10.215 -26.265  -1.054  1.00  0.00    -0.384 N
ATOM     28 2H11 UNL     1     -10.975 -26.649  -0.493  1.00  0.00     0.157 HD
ATOM     29 1H11 UNL     1      -9.245 -26.258  -0.738  1.00  0.00     0.157 HD
ENDBRANCH   6  27
BRANCH   1  30
HETATM   30  C4  UNL     1      -8.644 -23.784  -4.773  1.00  0.00     0.234 C
BRANCH  30  31
HETATM   31  O1  UNL     1      -7.419 -24.097  -4.176  1.00  0.00    -0.339 OA
BRANCH  31  32
HETATM   32  C3  UNL     1      -6.529 -23.183  -3.661  1.00  0.00     0.153 A
HETATM   33  C2  UNL     1      -5.667 -22.505  -4.491  1.00  0.00     0.148 A
HETATM   34  N2  UNL     1      -4.794 -21.611  -3.994  1.00  0.00    -0.199 N
HETATM   35  C1  UNL     1      -4.742 -21.356  -2.687  1.00  0.00     0.678 A
ATOM     36  H2  UNL     1      -4.162 -21.120  -4.626  1.00  0.00     0.183 HD
HETATM   37  N13 UNL     1      -5.594 -22.024  -1.864  1.00  0.00    -0.154 N
HETATM   38  C11 UNL     1      -6.484 -22.928  -2.309  1.00  0.00     0.294 A
ATOM     39  H13 UNL     1      -5.557 -21.830  -0.864  1.00  0.00     0.187 HD
HETATM   40  O4  UNL     1      -7.264 -23.531  -1.501  1.00  0.00    -0.265 OA
BRANCH  35  41
HETATM   41  N1  UNL     1      -3.910 -20.501  -2.209  1.00  0.00    -0.234 N
ATOM     42  H12 UNL     1      -2.912 -20.709  -2.181  1.00  0.00     0.174 HD
ATOM     43  H11 UNL     1      -4.227 -19.601  -1.848  1.00  0.00     0.174 HD
ENDBRANCH  35  41
ENDBRANCH  31  32
ENDBRANCH  30  31
ENDBRANCH   1  30
TORSDOF 9
ENDMDL