MODEL 1
REMARK VINA RESULT: -7.803365321      0.000      0.000
REMARK  9 active torsions:
REMARK  status: ('A' for Active; 'I' for Inactive)
REMARK    1  A    between atoms: C3_4  and  N2_5
REMARK    2  A    between atoms: N2_5  and  C4_7
REMARK    3  A    between atoms: C6_13  and  O1_14
REMARK    4  A    between atoms: C8_17  and  C9_18
REMARK    5  A    between atoms: C10_21  and  N5_22
REMARK    6  A    between atoms: N5_22  and  N6_24
REMARK       I    between atoms: N6_24  and  C11_26
REMARK    7  A    between atoms: C11_26  and  C12_28
REMARK    8  A    between atoms: C12_28  and  O5_29
REMARK    9  A    between atoms: C12_28  and  N7_31
ROOT
HETATM    1  N1  UNL     1      -9.226 -23.992  -5.619  1.00  0.00    -0.100 NA
HETATM    2  C1  UNL     1      -9.451 -24.388  -4.266  1.00  0.00     0.077 A
HETATM    3  C2  UNL     1     -10.647 -24.933  -3.860  1.00  0.00     0.058 A
HETATM    4  C3  UNL     1     -10.866 -25.324  -2.535  1.00  0.00     0.032 A
HETATM    5  C7  UNL     1      -9.824 -25.135  -1.658  1.00  0.00     0.050 A
HETATM    6  C8  UNL     1      -8.629 -24.587  -2.081  1.00  0.00     0.072 A
HETATM    7  C10 UNL     1      -8.406 -24.200  -3.377  1.00  0.00     0.089 A
ENDROOT
BRANCH   7   8
HETATM    8  N5  UNL     1      -7.178 -23.623  -3.775  1.00  0.00    -0.295 N
ATOM      9  H5  UNL     1      -6.421 -24.256  -4.031  1.00  0.00     0.187 HD
BRANCH   8  10
HETATM   10  N6  UNL     1      -6.930 -22.282  -3.842  1.00  0.00    -0.262 N
HETATM   11  C11 UNL     1      -6.570 -21.677  -5.108  1.00  0.00     0.312 C
HETATM   12  O4  UNL     1      -6.503 -22.404  -6.129  1.00  0.00    -0.262 OA
ATOM     13  H6  UNL     1      -6.996 -21.707  -3.002  1.00  0.00     0.190 HD
BRANCH  11  14
HETATM   14  C12 UNL     1      -6.294 -20.265  -5.198  1.00  0.00     0.236 C
BRANCH  14  15
HETATM   15  O5  UNL     1      -5.652 -19.792  -4.170  1.00  0.00    -0.341 OA
ATOM     16  H5  UNL     1      -5.965 -18.942  -3.883  1.00  0.00     0.219 HD
ENDBRANCH  14  15
BRANCH  14  17
HETATM   17  N7  UNL     1      -6.611 -19.355  -6.214  1.00  0.00    -0.184 N
HETATM   18  N8  UNL     1      -6.533 -19.639  -7.490  1.00  0.00    -0.239 N
HETATM   19  C13 UNL     1      -6.851 -18.693  -8.425  1.00  0.00     0.342 A
ATOM     20  H8  UNL     1      -6.234 -20.568  -7.787  1.00  0.00     0.192 HD
HETATM   21  O6  UNL     1      -6.756 -19.029  -9.643  1.00  0.00    -0.245 OA
HETATM   22  N9  UNL     1      -7.249 -17.459  -8.079  1.00  0.00    -0.270 N
HETATM   23  C14 UNL     1      -7.338 -17.140  -6.778  1.00  0.00     0.319 A
ATOM     24  H9  UNL     1      -7.482 -16.772  -8.796  1.00  0.00     0.174 HD
HETATM   25  O7  UNL     1      -7.712 -15.976  -6.439  1.00  0.00    -0.262 OA
HETATM   26  C15 UNL     1      -7.018 -18.088  -5.838  1.00  0.00     0.337 A
HETATM   27  O8  UNL     1      -7.106 -17.773  -4.620  1.00  0.00    -0.260 OA
ENDBRANCH  14  17
ENDBRANCH  11  14
ENDBRANCH   8  10
ENDBRANCH   7   8
BRANCH   6  28
HETATM   28  C9  UNL     1      -7.548 -24.416  -1.116  1.00  0.00     0.211 C
HETATM   29  O2  UNL     1      -7.614 -23.604  -0.143  1.00  0.00    -0.644 OA
HETATM   30  O3  UNL     1      -6.374 -25.147  -1.220  1.00  0.00    -0.644 OA
ENDBRANCH   6  28
BRANCH   4  31
HETATM   31  N2  UNL     1     -12.107 -25.881  -2.168  1.00  0.00    -0.365 N
ATOM     32  H2  UNL     1     -12.384 -25.879  -1.186  1.00  0.00     0.162 HD
BRANCH  31  33
HETATM   33  C4  UNL     1     -12.989 -26.449  -3.143  1.00  0.00     0.231 C
HETATM   34  N3  UNL     1     -13.010 -27.899  -3.090  1.00  0.00    -0.361 N
HETATM   35  C5  UNL     1     -14.212 -28.346  -3.181  1.00  0.00     0.175 C
ATOM     36  H3  UNL     1     -12.182 -28.485  -2.994  1.00  0.00     0.162 HD
HETATM   37  N4  UNL     1     -15.131 -27.265  -3.304  1.00  0.00    -0.357 N
HETATM   38  C6  UNL     1     -14.435 -26.107  -2.830  1.00  0.00     0.261 C
ATOM     39  H4  UNL     1     -16.087 -27.307  -3.657  1.00  0.00     0.162 HD
BRANCH  38  40
HETATM   40  O1  UNL     1     -14.805 -24.931  -3.476  1.00  0.00    -0.373 OA
ATOM     41  H1  UNL     1     -14.816 -24.206  -2.861  1.00  0.00     0.212 HD
ENDBRANCH  38  40
ENDBRANCH  31  33
ENDBRANCH   4  31
TORSDOF 9
ENDMDL