MODEL 5
REMARK VINA RESULT: -6.415846215      2.118      3.490
REMARK  14 active torsions:
REMARK  status: ('A' for Active; 'I' for Inactive)
REMARK    1  A    between atoms: C2_2  and  O1_3
REMARK    2  A    between atoms: C2_2  and  O2_5
REMARK    3  A    between atoms: C2_2  and  C3_7
REMARK       I    between atoms: C3_7  and  N1_9
REMARK    4  A    between atoms: N1_9  and  C4_11
REMARK    5  A    between atoms: C5_12  and  N2_13
REMARK    6  A    between atoms: N2_13  and  C6_15
REMARK    7  A    between atoms: C6_15  and  C7_20
REMARK    8  A    between atoms: N3_16  and  O4_18
REMARK    9  A    between atoms: C8_26  and  N6_27
REMARK   10  A    between atoms: C10_31  and  N7_32
REMARK   11  A    between atoms: C11_36  and  N8_37
REMARK   12  A    between atoms: N8_37  and  C12_39
REMARK   13  A    between atoms: C13_45  and  C14_46
REMARK   14  A    between atoms: C14_46  and  O7_47
ROOT
HETATM    1  C4  UNL     1      -8.202 -23.493  -2.453  1.00  0.00     0.132 C
HETATM    2  C5  UNL     1      -8.076 -22.432  -1.385  1.00  0.00     0.110 C
HETATM    3  C9  UNL     1      -8.979 -22.997  -0.337  1.00  0.00     0.062 C
HETATM    4  C10 UNL     1      -8.606 -24.430  -0.250  1.00  0.00     0.210 C
HETATM    5  C11 UNL     1      -8.194 -24.800  -1.667  1.00  0.00     0.138 C
ENDROOT
BRANCH   2   6
HETATM    6  N2  UNL     1      -6.727 -22.241  -0.979  1.00  0.00    -0.366 N
ATOM      7  H2  UNL     1      -6.263 -22.976  -0.446  1.00  0.00     0.161 HD
BRANCH   6   8
HETATM    8  C6  UNL     1      -5.994 -21.041  -1.296  1.00  0.00     0.154 C
HETATM    9  N3  UNL     1      -5.277 -20.460  -0.411  1.00  0.00    -0.251 N
ATOM     10  H3  UNL     1      -5.233 -20.859   0.527  1.00  0.00     0.196 HD
BRANCH   9  11
HETATM   11  O4  UNL     1      -4.576 -19.336  -0.675  1.00  0.00    -0.288 OA
ATOM     12  H4  UNL     1      -3.723 -19.168  -0.291  1.00  0.00     0.244 HD
ENDBRANCH   9  11
BRANCH   8  13
HETATM   13  C7  UNL     1      -6.063 -20.445  -2.617  1.00  0.00     0.147 A
HETATM   14  N4  UNL     1      -5.157 -20.659  -3.612  1.00  0.00    -0.234 N
HETATM   15  O5  UNL     1      -5.527 -19.988  -4.673  1.00  0.00    -0.155 OA
ATOM     16  H4  UNL     1      -4.326 -21.245  -3.541  1.00  0.00     0.197 HD
HETATM   17  N5  UNL     1      -6.618 -19.349  -4.436  1.00  0.00    -0.224 N
HETATM   18  C8  UNL     1      -7.006 -19.598  -3.157  1.00  0.00     0.154 A
ATOM     19  H5  UNL     1      -7.112 -18.751  -5.100  1.00  0.00     0.198 HD
BRANCH  18  20
HETATM   20  N6  UNL     1      -8.079 -19.129  -2.621  1.00  0.00    -0.382 N
ATOM     21  H62 UNL     1      -8.874 -19.701  -2.333  1.00  0.00     0.157 HD
ATOM     22  H61 UNL     1      -8.308 -18.167  -2.375  1.00  0.00     0.157 HD
ENDBRANCH  18  20
ENDBRANCH   8  13
ENDBRANCH   6   8
ENDBRANCH   2   6
BRANCH   1  23
HETATM   23  N1  UNL     1      -7.241 -23.429  -3.494  1.00  0.00    -0.348 N
HETATM   24  C3  UNL     1      -7.651 -23.222  -4.834  1.00  0.00     0.280 C
HETATM   25  O3  UNL     1      -8.882 -23.102  -5.059  1.00  0.00    -0.267 OA
ATOM     26  H1  UNL     1      -6.250 -23.531  -3.277  1.00  0.00     0.163 HD
BRANCH  24  27
HETATM   27  C2  UNL     1      -6.685 -23.147  -5.964  1.00  0.00     0.239 C
HETATM   28  C1  UNL     1      -5.345 -23.735  -5.625  1.00  0.00     0.090 C
BRANCH  27  29
HETATM   29  O1  UNL     1      -7.193 -23.846  -7.053  1.00  0.00    -0.358 OA
ATOM     30  H1  UNL     1      -7.500 -23.210  -7.688  1.00  0.00     0.213 HD
ENDBRANCH  27  29
BRANCH  27  31
HETATM   31  O2  UNL     1      -6.544 -21.812  -6.403  1.00  0.00    -0.358 OA
ATOM     32  H2  UNL     1      -7.275 -21.563  -6.956  1.00  0.00     0.213 HD
ENDBRANCH  27  31
ENDBRANCH  24  27
ENDBRANCH   1  23
BRANCH   5  33
HETATM   33  N8  UNL     1      -9.072 -25.757  -2.176  1.00  0.00    -0.364 N
ATOM     34  H8  UNL     1      -8.723 -26.706  -2.044  1.00  0.00     0.161 HD
BRANCH  33  35
HETATM   35  C12 UNL     1     -10.196 -25.740  -2.761  1.00  0.00     0.150 A
HETATM   36  N9  UNL     1     -10.306 -25.665  -4.125  1.00  0.00    -0.224 N
HETATM   37  O6  UNL     1     -11.546 -25.663  -4.414  1.00  0.00    -0.155 OA
ATOM     38  H9  UNL     1      -9.534 -25.619  -4.789  1.00  0.00     0.198 HD
HETATM   39  N10 UNL     1     -12.296 -25.731  -3.371  1.00  0.00    -0.240 N
HETATM   40  C13 UNL     1     -11.482 -25.783  -2.290  1.00  0.00     0.103 A
ATOM     41  H10 UNL     1     -13.316 -25.744  -3.361  1.00  0.00     0.196 HD
BRANCH  40  42
HETATM   42  C14 UNL     1     -11.930 -25.881  -0.892  1.00  0.00     0.227 C
BRANCH  42  43
HETATM   43  O7  UNL     1     -11.169 -26.860  -0.231  1.00  0.00    -0.395 OA
ATOM     44  H7  UNL     1     -11.474 -27.721  -0.493  1.00  0.00     0.209 HD
ENDBRANCH  42  43
ENDBRANCH  40  42
ENDBRANCH  33  35
ENDBRANCH   5  33
BRANCH   4  45
HETATM   45  N7  UNL     1      -7.502 -24.650   0.636  1.00  0.00    -0.073 N
ATOM     46  H73 UNL     1      -6.716 -24.043   0.404  1.00  0.00     0.274 HD
ATOM     47  H72 UNL     1      -7.706 -24.302   1.572  1.00  0.00     0.274 HD
ATOM     48  H71 UNL     1      -7.216 -25.629   0.661  1.00  0.00     0.274 HD
ENDBRANCH   4  45
TORSDOF 14
ENDMDL