MODEL 3
REMARK VINA RESULT: -5.664333524      2.536      5.709
REMARK  13 active torsions:
REMARK  status: ('A' for Active; 'I' for Inactive)
REMARK    1  A    between atoms: C2_2  and  O2_4
REMARK    2  A    between atoms: O2_4  and  C3_5
REMARK    3  A    between atoms: C3_5  and  C4_6
REMARK       I    between atoms: C4_6  and  N1_8
REMARK    4  A    between atoms: N1_8  and  N2_10
REMARK    5  A    between atoms: C6_16  and  N4_17
REMARK    6  A    between atoms: N4_17  and  O4_19
REMARK    7  A    between atoms: C7_23  and  O5_24
REMARK    8  A    between atoms: C9_27  and  O6_28
REMARK    9  A    between atoms: O6_28  and  C10_29
REMARK   10  A    between atoms: C11_31  and  O8_32
REMARK   11  A    between atoms: C11_31  and  C12_34
REMARK   12  A    between atoms: C13_37  and  C14_38
REMARK   13  A    between atoms: C14_38  and  O11_40
ROOT
HETATM    1  C3  UNL     1      -8.806 -23.736  -2.327  1.00  0.00     0.250 C
HETATM    2  C5  UNL     1      -7.735 -24.564  -2.867  1.00  0.00     0.289 C
HETATM    3  N3  UNL     1      -6.995 -25.076  -1.689  1.00  0.00    -0.194 N
ATOM      4  H3  UNL     1      -6.724 -26.057  -1.614  1.00  0.00     0.180 HD
HETATM    5  C6  UNL     1      -6.675 -24.130  -0.657  1.00  0.00     0.698 C
HETATM    6  N5  UNL     1      -7.251 -22.992  -0.633  1.00  0.00    -0.184 N
ATOM      7  H5  UNL     1      -6.997 -22.349   0.117  1.00  0.00     0.181 HD
HETATM    8  C7  UNL     1      -8.230 -22.551  -1.581  1.00  0.00     0.223 C
HETATM    9  C8  UNL     1      -7.548 -21.577  -2.455  1.00  0.00     0.049 C
HETATM   10  C9  UNL     1      -7.686 -20.330  -2.033  1.00  0.00     0.156 C
HETATM   11  C11 UNL     1      -6.727 -21.646  -3.687  1.00  0.00     0.205 C
HETATM   12  C13 UNL     1      -6.969 -22.923  -4.397  1.00  0.00     0.202 C
HETATM   13  O12 UNL     1      -6.795 -24.006  -3.661  1.00  0.00    -0.351 OA
ENDROOT
BRANCH   1  14
HETATM   14  O2  UNL     1      -9.747 -23.220  -3.267  1.00  0.00    -0.290 OA
BRANCH  14  15
HETATM   15  C2  UNL     1     -10.555 -24.004  -4.063  1.00  0.00     0.256 C
HETATM   16  C1  UNL     1     -10.135 -24.453  -5.404  1.00  0.00     0.126 C
HETATM   17  O1  UNL     1     -11.676 -24.351  -3.649  1.00  0.00    -0.266 OA
ENDBRANCH  14  15
ENDBRANCH   1  14
BRANCH   1  18
HETATM   18  C4  UNL     1      -9.620 -24.481  -1.352  1.00  0.00     0.281 C
HETATM   19  O3  UNL     1     -10.166 -24.012  -0.313  1.00  0.00    -0.268 OA
HETATM   20  N1  UNL     1      -9.886 -25.898  -1.507  1.00  0.00    -0.274 N
ATOM     21  H1  UNL     1      -9.496 -26.372  -2.321  1.00  0.00     0.189 HD
BRANCH  20  22
HETATM   22  N2  UNL     1     -10.635 -26.643  -0.620  1.00  0.00    -0.343 N
ATOM     23  H22 UNL     1     -10.646 -26.330   0.351  1.00  0.00     0.176 HD
ATOM     24  H21 UNL     1     -11.167 -27.472  -0.880  1.00  0.00     0.176 HD
ENDBRANCH  20  22
ENDBRANCH   1  18
BRANCH   8  25
HETATM   25  O5  UNL     1      -9.238 -21.884  -0.884  1.00  0.00    -0.363 OA
ATOM     26  H5  UNL     1      -9.375 -21.019  -1.252  1.00  0.00     0.213 HD
ENDBRANCH   8  25
BRANCH   5  27
HETATM   27  N4  UNL     1      -5.724 -24.448   0.335  1.00  0.00    -0.099 N
ATOM     28  H4  UNL     1      -4.980 -23.776   0.522  1.00  0.00     0.213 HD
BRANCH  27  29
HETATM   29  O4  UNL     1      -5.742 -25.602   1.055  1.00  0.00    -0.276 OA
ATOM     30  H4  UNL     1      -5.595 -25.640   1.993  1.00  0.00     0.245 HD
ENDBRANCH  27  29
ENDBRANCH   5  27
BRANCH  12  31
HETATM   31  C14 UNL     1      -6.009 -23.028  -5.617  1.00  0.00     0.147 C
HETATM   32  C15 UNL     1      -6.766 -23.537  -6.825  1.00  0.00     0.042 C
BRANCH  31  33
HETATM   33  O11 UNL     1      -4.882 -23.754  -5.329  1.00  0.00    -0.393 OA
ATOM     34  H11 UNL     1      -4.861 -24.584  -5.792  1.00  0.00     0.210 HD
ENDBRANCH  31  33
ENDBRANCH  12  31
BRANCH  10  35
HETATM   35  O6  UNL     1      -7.129 -19.226  -2.697  1.00  0.00    -0.298 OA
BRANCH  35  36
HETATM   36  C10 UNL     1      -6.517 -18.260  -1.940  1.00  0.00     0.402 C
HETATM   37  O7  UNL     1      -5.526 -18.564  -1.223  1.00  0.00    -0.276 OA
ENDBRANCH  35  36
ENDBRANCH  10  35
BRANCH  11  38
HETATM   38  O8  UNL     1      -7.256 -20.636  -4.544  1.00  0.00    -0.372 OA
ATOM     39  H8  UNL     1      -8.076 -20.990  -4.868  1.00  0.00     0.211 HD
ENDBRANCH  11  38
BRANCH  11  40
HETATM   40  C12 UNL     1      -5.308 -21.354  -3.406  1.00  0.00     0.216 C
HETATM   41  O9  UNL     1      -4.755 -22.049  -2.499  1.00  0.00    -0.645 OA
HETATM   42  O10 UNL     1      -4.509 -20.427  -4.006  1.00  0.00    -0.645 OA
ENDBRANCH  11  40
TORSDOF 13
ENDMDL