MODEL 1
REMARK VINA RESULT: -7.533421596      0.000      0.000
REMARK  12 active torsions:
REMARK  status: ('A' for Active; 'I' for Inactive)
REMARK    1  A    between atoms: C2_2  and  O1_3
REMARK    2  A    between atoms: O1_3  and  C3_4
REMARK    3  A    between atoms: C3_4  and  C4_6
REMARK    4  A    between atoms: C4_6  and  N1_7
REMARK    5  A    between atoms: N1_7  and  C5_9
REMARK    6  A    between atoms: C6_12  and  N3_13
REMARK    7  A    between atoms: C8_16  and  O4_17
REMARK    8  A    between atoms: C8_16  and  C9_19
REMARK    9  A    between atoms: C9_19  and  N4_20
REMARK   10  A    between atoms: C11_25  and  N7_26
REMARK   11  A    between atoms: C12_31  and  N9_32
REMARK   12  A    between atoms: C15_41  and  N12_42
ROOT
HETATM    1  N3  UNL     1      -9.910 -25.426  -2.773  1.00  0.00    -0.190 N
HETATM    2  C7  UNL     1     -10.322 -26.785  -3.024  1.00  0.00     0.315 C
HETATM    3  O3  UNL     1     -11.513 -26.621  -3.697  1.00  0.00    -0.332 OA
HETATM    4  C8  UNL     1     -12.188 -25.657  -2.955  1.00  0.00     0.198 C
HETATM    5  C14 UNL     1     -11.111 -24.710  -2.423  1.00  0.00     0.213 C
ENDROOT
BRANCH   4   6
HETATM    6  O4  UNL     1     -13.038 -24.896  -3.774  1.00  0.00    -0.363 OA
ATOM      7  H4  UNL     1     -13.463 -24.207  -3.277  1.00  0.00     0.213 HD
ENDBRANCH   4   6
BRANCH   4   8
HETATM    8  C9  UNL     1     -12.978 -26.301  -1.856  1.00  0.00     0.218 C
BRANCH   8   9
HETATM    9  N4  UNL     1     -13.828 -27.378  -2.299  1.00  0.00    -0.253 N
HETATM   10  N5  UNL     1     -14.545 -27.493  -3.403  1.00  0.00    -0.018 NA
HETATM   11  N6  UNL     1     -15.192 -28.665  -3.423  1.00  0.00    -0.277 N
HETATM   12  C10 UNL     1     -14.899 -29.336  -2.314  1.00  0.00     0.136 A
ATOM     13  H6  UNL     1     -15.810 -28.989  -4.167  1.00  0.00     0.184 HD
HETATM   14  C11 UNL     1     -15.262 -30.564  -1.792  1.00  0.00     0.146 A
HETATM   15  C13 UNL     1     -14.039 -28.529  -1.602  1.00  0.00     0.168 A
HETATM   16  N8  UNL     1     -14.766 -30.951  -0.589  1.00  0.00    -0.175 N
HETATM   17  C12 UNL     1     -13.932 -30.154   0.091  1.00  0.00     0.679 A
ATOM     18  H8  UNL     1     -15.030 -31.857  -0.201  1.00  0.00     0.186 HD
HETATM   19  N10 UNL     1     -13.585 -28.960  -0.428  1.00  0.00    -0.173 N
ATOM     20  H10 UNL     1     -12.948 -28.364   0.099  1.00  0.00     0.186 HD
BRANCH  14  21
HETATM   21  N7  UNL     1     -16.054 -31.350  -2.413  1.00  0.00    -0.383 N
ATOM     22  H72 UNL     1     -17.046 -31.118  -2.450  1.00  0.00     0.157 HD
ATOM     23  H71 UNL     1     -15.719 -32.199  -2.868  1.00  0.00     0.157 HD
ENDBRANCH  14  21
BRANCH  17  24
HETATM   24  N9  UNL     1     -13.431 -30.467   1.251  1.00  0.00    -0.234 N
ATOM     25  H92 UNL     1     -14.089 -30.650   2.009  1.00  0.00     0.174 HD
ATOM     26  H91 UNL     1     -12.430 -30.540   1.427  1.00  0.00     0.174 HD
ENDBRANCH  17  24
ENDBRANCH   8   9
ENDBRANCH   4   8
BRANCH   1  27
HETATM   27  C6  UNL     1      -8.596 -24.907  -2.855  1.00  0.00     0.711 A
HETATM   28  N2  UNL     1      -8.205 -24.084  -3.842  1.00  0.00    -0.021 N
HETATM   29  C5  UNL     1      -6.947 -23.585  -3.937  1.00  0.00     0.707 A
ATOM     30  H2  UNL     1      -8.887 -23.822  -4.555  1.00  0.00     0.203 HD
HETATM   31  N13 UNL     1      -6.081 -23.955  -2.979  1.00  0.00    -0.022 N
HETATM   32  C15 UNL     1      -6.459 -24.790  -1.970  1.00  0.00     0.705 A
ATOM     33  H13 UNL     1      -5.123 -23.605  -3.007  1.00  0.00     0.203 HD
HETATM   34  N11 UNL     1      -7.712 -25.262  -1.909  1.00  0.00    -0.021 N
ATOM     35  H11 UNL     1      -7.991 -25.885  -1.151  1.00  0.00     0.203 HD
BRANCH  29  36
HETATM   36  N1  UNL     1      -6.616 -22.796  -4.902  1.00  0.00    -0.216 N
ATOM     37  H1  UNL     1      -6.915 -23.009  -5.853  1.00  0.00     0.178 HD
BRANCH  36  38
HETATM   38  C4  UNL     1      -5.836 -21.630  -4.654  1.00  0.00     0.249 C
BRANCH  38  39
HETATM   39  C3  UNL     1      -6.590 -20.424  -5.125  1.00  0.00     0.277 C
HETATM   40  O2  UNL     1      -7.130 -19.658  -4.283  1.00  0.00    -0.263 OA
BRANCH  39  41
HETATM   41  O1  UNL     1      -6.731 -20.093  -6.464  1.00  0.00    -0.321 OA
BRANCH  41  42
HETATM   42  C2  UNL     1      -6.686 -18.724  -6.894  1.00  0.00     0.174 C
HETATM   43  C1  UNL     1      -6.776 -18.669  -8.403  1.00  0.00     0.034 C
ENDBRANCH  41  42
ENDBRANCH  39  41
ENDBRANCH  38  39
ENDBRANCH  36  38
ENDBRANCH  29  36
BRANCH  32  44
HETATM   44  N12 UNL     1      -5.629 -25.147  -1.047  1.00  0.00    -0.234 N
ATOM     45 2H12 UNL     1      -5.679 -24.753  -0.107  1.00  0.00     0.174 HD
ATOM     46 1H12 UNL     1      -4.917 -25.839  -1.282  1.00  0.00     0.174 HD
ENDBRANCH  32  44
ENDBRANCH   1  27
TORSDOF 12
ENDMDL