MODEL 2
REMARK VINA RESULT: -5.642870638      2.155      6.179
REMARK  14 active torsions:
REMARK  status: ('A' for Active; 'I' for Inactive)
REMARK    1  A    between atoms: C2_2  and  O1_3
REMARK    2  A    between atoms: O1_3  and  C3_4
REMARK    3  A    between atoms: C3_4  and  O2_5
REMARK    4  A    between atoms: C6_8  and  O3_9
REMARK    5  A    between atoms: C7_11  and  O4_13
REMARK    6  A    between atoms: C9_15  and  O5_17
REMARK    7  A    between atoms: C11_19  and  O6_20
REMARK    8  A    between atoms: C11_19  and  N1_22
REMARK    9  A    between atoms: N1_22  and  C12_24
REMARK   10  A    between atoms: C13_26  and  O8_28
REMARK   11  A    between atoms: N2_31  and  N3_33
REMARK   12  A    between atoms: C16_36  and  O9_37
REMARK   13  A    between atoms: C16_36  and  C17_39
REMARK   14  A    between atoms: C17_39  and  O10_40
ROOT
HETATM    1  C3  UNL     1      -5.284 -23.165  -0.702  1.00  0.00     0.190 C
HETATM    2  C5  UNL     1      -5.866 -22.538  -1.746  1.00  0.00     0.067 C
HETATM    3  C6  UNL     1      -5.344 -21.294  -2.350  1.00  0.00     0.194 C
HETATM    4  C7  UNL     1      -5.791 -21.457  -3.797  1.00  0.00     0.119 C
HETATM    5  C8  UNL     1      -5.656 -20.181  -4.573  1.00  0.00     0.052 C
HETATM    6  C9  UNL     1      -7.255 -21.828  -3.555  1.00  0.00     0.141 C
HETATM    7  C10 UNL     1      -7.942 -20.602  -3.043  1.00  0.00     0.054 C
HETATM    8  C11 UNL     1      -7.100 -22.915  -2.483  1.00  0.00     0.198 C
ENDROOT
BRANCH   8   9
HETATM    9  O6  UNL     1      -6.868 -24.119  -3.116  1.00  0.00    -0.364 OA
ATOM     10  H6  UNL     1      -6.564 -23.933  -3.996  1.00  0.00     0.213 HD
ENDBRANCH   8   9
BRANCH   8  11
HETATM   11  N1  UNL     1      -8.173 -22.896  -1.551  1.00  0.00    -0.338 N
ATOM     12  H1  UNL     1      -8.148 -22.278  -0.740  1.00  0.00     0.161 HD
BRANCH  11  13
HETATM   13  C12 UNL     1      -9.276 -23.753  -1.772  1.00  0.00     0.375 C
HETATM   14  O7  UNL     1      -9.230 -24.981  -1.112  1.00  0.00    -0.302 OA
HETATM   15  C13 UNL     1     -10.558 -25.412  -0.919  1.00  0.00     0.209 C
HETATM   16  C14 UNL     1     -11.280 -24.527   0.057  1.00  0.00     0.086 C
HETATM   17  C15 UNL     1     -11.222 -25.320  -2.241  1.00  0.00     0.129 C
HETATM   18  N2  UNL     1     -12.478 -25.552  -2.301  1.00  0.00    -0.305 N
HETATM   19  C16 UNL     1     -10.386 -24.977  -3.403  1.00  0.00     0.234 C
ATOM     20  H2  UNL     1     -12.914 -25.482  -3.221  1.00  0.00     0.186 HD
HETATM   21  O11 UNL     1      -9.583 -23.884  -3.104  1.00  0.00    -0.299 OA
BRANCH  15  22
HETATM   22  O8  UNL     1     -10.502 -26.718  -0.451  1.00  0.00    -0.361 OA
ATOM     23  H8  UNL     1     -11.229 -26.832   0.150  1.00  0.00     0.213 HD
ENDBRANCH  15  22
BRANCH  18  24
HETATM   24  N3  UNL     1     -13.305 -25.887  -1.248  1.00  0.00    -0.345 N
ATOM     25  H32 UNL     1     -13.141 -25.377  -0.380  1.00  0.00     0.176 HD
ATOM     26  H31 UNL     1     -14.051 -26.582  -1.257  1.00  0.00     0.176 HD
ENDBRANCH  18  24
BRANCH  19  27
HETATM   27  O9  UNL     1      -9.595 -26.100  -3.676  1.00  0.00    -0.359 OA
ATOM     28  H9  UNL     1      -9.585 -26.205  -4.621  1.00  0.00     0.213 HD
ENDBRANCH  19  27
BRANCH  19  29
HETATM   29  C17 UNL     1     -11.173 -24.638  -4.634  1.00  0.00     0.239 C
BRANCH  29  30
HETATM   30  O10 UNL     1     -10.464 -23.859  -5.536  1.00  0.00    -0.395 OA
ATOM     31  H10 UNL     1     -10.163 -24.346  -6.294  1.00  0.00     0.209 HD
ENDBRANCH  29  30
ENDBRANCH  19  29
ENDBRANCH  11  13
ENDBRANCH   8  11
BRANCH   6  32
HETATM   32  O5  UNL     1      -7.734 -22.315  -4.745  1.00  0.00    -0.382 OA
ATOM     33  H5  UNL     1      -8.320 -23.030  -4.528  1.00  0.00     0.211 HD
ENDBRANCH   6  32
BRANCH   1  34
HETATM   34  O1  UNL     1      -5.846 -24.311  -0.217  1.00  0.00    -0.331 OA
BRANCH  34  35
HETATM   35  C2  UNL     1      -6.441 -24.546   1.010  1.00  0.00     0.173 C
HETATM   36  C1  UNL     1      -5.697 -25.475   1.914  1.00  0.00     0.034 C
ENDBRANCH  34  35
ENDBRANCH   1  34
BRANCH   1  37
HETATM   37  O2  UNL     1      -4.147 -22.644  -0.147  1.00  0.00    -0.335 OA
HETATM   38  C4  UNL     1      -3.095 -23.270   0.489  1.00  0.00     0.212 C
ENDBRANCH   1  37
BRANCH   3  39
HETATM   39  O3  UNL     1      -3.977 -21.138  -2.247  1.00  0.00    -0.388 OA
ATOM     40  H3  UNL     1      -3.704 -20.364  -1.768  1.00  0.00     0.210 HD
ENDBRANCH   3  39
BRANCH   4  41
HETATM   41  O4  UNL     1      -5.153 -22.533  -4.365  1.00  0.00    -0.384 OA
ATOM     42  H4  UNL     1      -5.609 -23.335  -4.140  1.00  0.00     0.210 HD
ENDBRANCH   4  41
TORSDOF 14
ENDMDL