MODEL 3
REMARK VINA RESULT: -6.657128765      2.436      3.901
REMARK  14 active torsions:
REMARK  status: ('A' for Active; 'I' for Inactive)
REMARK       I    between atoms: C2_5  and  N3_6
REMARK       I    between atoms: C2_5  and  N5_17
REMARK    1  A    between atoms: N3_6  and  O1_8
REMARK    2  A    between atoms: O1_8  and  C3_9
REMARK    3  A    between atoms: C3_9  and  C4_10
REMARK    4  A    between atoms: C4_10  and  O2_11
REMARK    5  A    between atoms: N4_13  and  O3_15
REMARK    6  A    between atoms: N5_17  and  S1_19
REMARK    7  A    between atoms: S1_19  and  N6_20
REMARK    8  A    between atoms: N6_20  and  C5_21
REMARK    9  A    between atoms: C7_23  and  O4_24
REMARK   10  A    between atoms: O4_24  and  C8_25
REMARK   11  A    between atoms: C10_28  and  O6_29
REMARK   12  A    between atoms: C11_31  and  O7_32
REMARK   13  A    between atoms: C12_34  and  N7_35
REMARK   14  A    between atoms: C14_40  and  N8_41
ROOT
HETATM    1  N1  UNL     1      -6.093 -23.278  -6.716  1.00  0.00    -0.171 NA
HETATM    2  C1  UNL     1      -6.402 -22.547  -5.882  1.00  0.00     0.196 C
HETATM    3  N2  UNL     1      -6.772 -21.680  -4.860  1.00  0.00    -0.124 N
ATOM      4  H2  UNL     1      -7.024 -22.048  -3.942  1.00  0.00     0.197 HD
HETATM    5  C2  UNL     1      -6.797 -20.389  -5.079  1.00  0.00     0.718 C
HETATM    6  N3  UNL     1      -6.455 -19.855  -6.336  1.00  0.00    -0.088 N
ATOM      7  H3  UNL     1      -6.001 -20.447  -7.032  1.00  0.00     0.213 HD
HETATM    8  N5  UNL     1      -7.174 -19.493  -4.039  1.00  0.00    -0.147 N
ATOM      9  H5  UNL     1      -8.028 -18.938  -4.090  1.00  0.00     0.194 HD
ENDROOT
BRANCH   6  10
HETATM   10  O1  UNL     1      -6.727 -18.554  -6.628  1.00  0.00    -0.206 OA
BRANCH  10  11
HETATM   11  C3  UNL     1      -6.959 -18.086  -7.912  1.00  0.00     0.190 C
HETATM   12  N4  UNL     1      -7.622 -16.994  -8.051  1.00  0.00    -0.247 N
ATOM     13  H4  UNL     1      -7.798 -16.640  -8.991  1.00  0.00     0.196 HD
BRANCH  11  14
HETATM   14  C4  UNL     1      -6.459 -18.817  -9.119  1.00  0.00     0.252 C
BRANCH  14  15
HETATM   15  O2  UNL     1      -6.788 -20.150  -9.088  1.00  0.00    -0.393 OA
ATOM     16  H2  UNL     1      -7.712 -20.285  -8.915  1.00  0.00     0.210 HD
ENDBRANCH  14  15
ENDBRANCH  11  14
BRANCH  12  17
HETATM   17  O3  UNL     1      -8.096 -16.296  -6.988  1.00  0.00    -0.288 OA
ATOM     18  H3  UNL     1      -8.490 -16.723  -6.236  1.00  0.00     0.244 HD
ENDBRANCH  12  17
ENDBRANCH  10  11
ENDBRANCH   6  10
BRANCH   8  19
HETATM   19  S1  UNL     1      -6.071 -19.398  -2.647  1.00  0.00     0.070 SA
BRANCH  19  20
HETATM   20  N6  UNL     1      -6.919 -20.088  -1.265  1.00  0.00    -0.151 NA
BRANCH  20  21
HETATM   21  C5  UNL     1      -6.775 -21.523  -1.323  1.00  0.00     0.122 C
HETATM   22  C6  UNL     1      -8.092 -22.219  -1.499  1.00  0.00     0.058 C
HETATM   23  C7  UNL     1      -7.814 -23.677  -1.823  1.00  0.00     0.157 C
HETATM   24  C12 UNL     1      -6.373 -24.033  -1.651  1.00  0.00     0.214 C
HETATM   25  C13 UNL     1      -5.766 -23.523  -0.373  1.00  0.00     0.070 C
HETATM   26  C14 UNL     1      -6.118 -22.085  -0.084  1.00  0.00     0.205 C
BRANCH  23  27
HETATM   27  O4  UNL     1      -8.170 -23.868  -3.149  1.00  0.00    -0.351 OA
BRANCH  27  28
HETATM   28  C8  UNL     1      -9.446 -23.368  -3.348  1.00  0.00     0.291 C
HETATM   29  O5  UNL     1      -9.604 -22.822  -4.622  1.00  0.00    -0.356 OA
HETATM   30  C9  UNL     1      -9.862 -23.943  -5.441  1.00  0.00     0.205 C
HETATM   31  C10 UNL     1     -10.922 -24.658  -4.667  1.00  0.00     0.175 C
HETATM   32  C11 UNL     1     -10.437 -24.505  -3.237  1.00  0.00     0.204 C
BRANCH  31  33
HETATM   33  O6  UNL     1     -11.032 -25.997  -4.943  1.00  0.00    -0.391 OA
ATOM     34  H6  UNL     1     -11.104 -26.557  -4.179  1.00  0.00     0.210 HD
ENDBRANCH  31  33
BRANCH  32  35
HETATM   35  O7  UNL     1     -11.470 -24.134  -2.396  1.00  0.00    -0.388 OA
ATOM     36  H7  UNL     1     -11.321 -23.250  -2.081  1.00  0.00     0.210 HD
ENDBRANCH  32  35
ENDBRANCH  27  28
ENDBRANCH  23  27
BRANCH  24  37
HETATM   37  N7  UNL     1      -6.288 -25.502  -1.588  1.00  0.00    -0.072 N
ATOM     38  H73 UNL     1      -5.348 -25.839  -1.382  1.00  0.00     0.274 HD
ATOM     39  H72 UNL     1      -6.751 -25.893  -0.767  1.00  0.00     0.274 HD
ATOM     40  H71 UNL     1      -6.659 -25.865  -2.466  1.00  0.00     0.274 HD
ENDBRANCH  24  37
BRANCH  26  41
HETATM   41  N8  UNL     1      -7.125 -22.081   0.978  1.00  0.00    -0.073 N
ATOM     42  H83 UNL     1      -7.133 -22.943   1.524  1.00  0.00     0.274 HD
ATOM     43  H82 UNL     1      -6.899 -21.444   1.741  1.00  0.00     0.274 HD
ATOM     44  H81 UNL     1      -8.023 -21.876   0.539  1.00  0.00     0.274 HD
ENDBRANCH  26  41
ENDBRANCH  20  21
ENDBRANCH  19  20
ENDBRANCH   8  19
TORSDOF 14
ENDMDL