MODEL 3
REMARK VINA RESULT: -5.726474196      3.070      4.199
REMARK  4 active torsions:
REMARK  status: ('A' for Active; 'I' for Inactive)
REMARK    1  A    between atoms: N1_1  and  C1_5
REMARK    2  A    between atoms: C6_10  and  C7_11
REMARK    3  A    between atoms: C7_11  and  O1_12
REMARK    4  A    between atoms: C8_14  and  O2_15
ROOT
HETATM    1  C1  UNL     1      -4.759  20.423  -7.498  1.00  0.00     0.188 C
HETATM    2  C2  UNL     1      -4.072  19.441  -8.446  1.00  0.00     0.040 C
HETATM    3  C3  UNL     1      -3.393  18.484  -7.523  1.00  0.00     0.017 C
HETATM    4  C4  UNL     1      -4.432  18.409  -6.399  1.00  0.00     0.014 C
HETATM    5  C5  UNL     1      -4.422  19.915  -6.093  1.00  0.00     0.025 C
HETATM    6  C6  UNL     1      -2.978  20.190  -5.885  1.00  0.00     0.044 C
HETATM    7  C8  UNL     1      -2.286  19.232  -6.805  1.00  0.00     0.128 C
ENDROOT
BRANCH   1   8
HETATM    8  N1  UNL     1      -6.179  20.428  -7.647  1.00  0.00    -0.075 N
ATOM      9  H13 UNL     1      -6.602  19.644  -7.151  1.00  0.00     0.274 HD
ATOM     10  H12 UNL     1      -6.599  21.198  -7.127  1.00  0.00     0.274 HD
ATOM     11  H11 UNL     1      -6.471  20.443  -8.625  1.00  0.00     0.274 HD
ENDBRANCH   1   8
BRANCH   6  12
HETATM   12  C7  UNL     1      -2.532  20.111  -4.461  1.00  0.00     0.171 C
BRANCH  12  13
HETATM   13  O1  UNL     1      -3.542  20.190  -3.533  1.00  0.00    -0.400 OA
ATOM     14  H1  UNL     1      -4.036  21.002  -3.546  1.00  0.00     0.209 HD
ENDBRANCH  12  13
ENDBRANCH   6  12
BRANCH   7  15
HETATM   15  O2  UNL     1      -1.397  18.403  -6.165  1.00  0.00    -0.395 OA
ATOM     16  H2  UNL     1      -0.535  18.787  -6.061  1.00  0.00     0.210 HD
ENDBRANCH   7  15
TORSDOF 4
ENDMDL