MODEL 1
REMARK VINA RESULT: -5.432784684      0.000      0.000
REMARK  6 active torsions:
REMARK  status: ('A' for Active; 'I' for Inactive)
REMARK    1  A    between atoms: N1_1  and  C1_5
REMARK    2  A    between atoms: C1_5  and  C2_6
REMARK    3  A    between atoms: C3_7  and  C4_8
REMARK    4  A    between atoms: C4_8  and  O1_9
REMARK    5  A    between atoms: C4_8  and  C5_11
REMARK    6  A    between atoms: C5_11  and  O2_12
ROOT
HETATM    1  C1  UNL     1      -3.910  18.539  -8.614  1.00  0.00     0.194 A
HETATM    2  C6  UNL     1      -3.857  17.081  -8.405  1.00  0.00     0.042 A
HETATM    3  C7  UNL     1      -4.895  16.294  -9.252  1.00  0.00     0.017 A
HETATM    4  C8  UNL     1      -5.195  17.658  -8.702  1.00  0.00     0.042 A
ENDROOT
BRANCH   1   5
HETATM    5  N1  UNL     1      -3.597  19.128  -9.906  1.00  0.00    -0.059 N
ATOM      6  H13 UNL     1      -4.212  18.725 -10.614  1.00  0.00     0.276 HD
ATOM      7  H12 UNL     1      -3.903  20.101  -9.912  1.00  0.00     0.276 HD
ATOM      8  H11 UNL     1      -2.634  19.080 -10.238  1.00  0.00     0.276 HD
ENDBRANCH   1   5
BRANCH   1   9
HETATM    9  C2  UNL     1      -3.822  19.394  -7.419  1.00  0.00    -0.064 C
HETATM   10  C3  UNL     1      -3.728  20.097  -6.441  1.00  0.00    -0.070 C
BRANCH  10  11
HETATM   11  C4  UNL     1      -3.593  20.967  -5.255  1.00  0.00     0.220 C
BRANCH  11  12
HETATM   12  O1  UNL     1      -2.868  22.131  -5.591  1.00  0.00    -0.381 OA
ATOM     13  H1  UNL     1      -3.430  22.894  -5.526  1.00  0.00     0.211 HD
ENDBRANCH  11  12
BRANCH  11  14
HETATM   14  C5  UNL     1      -2.710  20.206  -4.271  1.00  0.00     0.208 C
BRANCH  14  15
HETATM   15  O2  UNL     1      -3.375  20.085  -3.035  1.00  0.00    -0.397 OA
ATOM     16  H2  UNL     1      -2.907  20.579  -2.372  1.00  0.00     0.209 HD
ENDBRANCH  14  15
ENDBRANCH  11  14
ENDBRANCH  10  11
ENDBRANCH   1   9
TORSDOF 6
ENDMDL