MODEL 5
REMARK VINA RESULT: -5.681195829      1.945      2.386
REMARK  1 active torsions:
REMARK  status: ('A' for Active; 'I' for Inactive)
REMARK       I    between atoms: N1_2  and  C2_4
REMARK       I    between atoms: C2_4  and  N3_8
REMARK    1  A    between atoms: N3_8  and  C3_10
ROOT
HETATM    1  C1  UNL     1      -2.952  20.122  -4.523  1.00  0.00     0.165 C
HETATM    2  N1  UNL     1      -2.442  20.903  -5.634  1.00  0.00    -0.231 N
ATOM      3  H1  UNL     1      -1.591  21.459  -5.553  1.00  0.00     0.177 HD
HETATM    4  C2  UNL     1      -3.181  20.854  -6.832  1.00  0.00     0.669 C
HETATM    5  N2  UNL     1      -2.730  20.178  -7.813  1.00  0.00    -0.235 N
ATOM      6  H21 UNL     1      -3.265  20.142  -8.681  1.00  0.00     0.174 HD
ATOM      7  H22 UNL     1      -1.848  19.670  -7.759  1.00  0.00     0.174 HD
HETATM    8  N3  UNL     1      -4.400  21.555  -6.908  1.00  0.00    -0.198 N
ATOM      9  H3  UNL     1      -5.150  21.280  -6.274  1.00  0.00     0.180 HD
ENDROOT
BRANCH   8  10
HETATM   10  C3  UNL     1      -4.652  22.637  -7.824  1.00  0.00     0.262 C
HETATM   11  C4  UNL     1      -3.868  23.883  -7.474  1.00  0.00     0.073 C
HETATM   12  C5  UNL     1      -3.921  24.601  -8.809  1.00  0.00     0.124 C
HETATM   13  N4  UNL     1      -4.410  23.571  -9.720  1.00  0.00    -0.199 NA
HETATM   14  C6  UNL     1      -3.712  23.697 -10.974  1.00  0.00     0.143 C
HETATM   15  O1  UNL     1      -4.184  22.388  -9.107  1.00  0.00    -0.277 OA
ENDBRANCH   8  10
TORSDOF 1
ENDMDL