MODEL 1
REMARK VINA RESULT: -5.551922108      0.000      0.000
REMARK  2 active torsions:
REMARK  status: ('A' for Active; 'I' for Inactive)
REMARK    1  A    between atoms: N1_2  and  C2_5
REMARK    2  A    between atoms: N3_12  and  N4_13
ROOT
HETATM    1  C2  UNL     1      -4.499  18.284  -8.237  1.00  0.00     0.350 C
HETATM    2  C3  UNL     1      -4.504  18.262  -6.828  1.00  0.00    -0.119 C
HETATM    3  C4  UNL     1      -4.288  18.361  -5.433  1.00  0.00     0.177 C
HETATM    4  N2  UNL     1      -2.953  18.997  -5.214  1.00  0.00    -0.286 NA
HETATM    5  C5  UNL     1      -3.120  20.235  -4.537  1.00  0.00     0.116 C
HETATM    6  C6  UNL     1      -2.127  19.019  -6.382  1.00  0.00     0.073 C
HETATM    7  C7  UNL     1      -2.492  19.574  -7.656  1.00  0.00     0.097 C
HETATM    8  N3  UNL     1      -3.171  18.806  -8.692  1.00  0.00    -0.172 NA
ENDROOT
BRANCH   1   9
HETATM    9  N1  UNL     1      -5.551  19.084  -8.899  1.00  0.00    -0.051 N
HETATM   10  C1  UNL     1      -6.212  19.957  -8.007  1.00  0.00     0.270 C
ATOM     11  H12 UNL     1      -6.218  18.484  -9.384  1.00  0.00     0.279 HD
ATOM     12  H11 UNL     1      -5.176  19.594  -9.698  1.00  0.00     0.279 HD
ENDBRANCH   1   9
BRANCH   8  13
HETATM   13  N4  UNL     1      -3.304  19.580  -9.818  1.00  0.00    -0.357 NA
ATOM     14  H42 UNL     1      -4.277  19.564 -10.126  1.00  0.00     0.171 HD
ATOM     15  H41 UNL     1      -2.660  19.279 -10.549  1.00  0.00     0.171 HD
ENDBRANCH   8  13
TORSDOF 2
ENDMDL