MODEL 2
REMARK VINA RESULT: -6.155250107      3.075      4.532
REMARK  1 active torsions:
REMARK  status: ('A' for Active; 'I' for Inactive)
REMARK       I    between atoms: C2_4  and  N2_5
REMARK       I    between atoms: C2_4  and  N4_9
REMARK    1  A    between atoms: N4_9  and  N5_11
ROOT
HETATM    1  C1  UNL     1      -4.983  24.891  -6.228  1.00  0.00     0.165 C
HETATM    2  N1  UNL     1      -4.877  23.504  -5.828  1.00  0.00    -0.229 N
ATOM      3  H1  UNL     1      -5.433  23.190  -5.032  1.00  0.00     0.177 HD
HETATM    4  C2  UNL     1      -4.126  22.647  -6.415  1.00  0.00     0.701 C
HETATM    5  N2  UNL     1      -3.316  22.972  -7.526  1.00  0.00    -0.125 N
ATOM      6  H2  UNL     1      -2.299  22.967  -7.445  1.00  0.00     0.197 HD
HETATM    7  C3  UNL     1      -3.930  23.299  -8.734  1.00  0.00     0.196 C
HETATM    8  N3  UNL     1      -4.435  23.574  -9.743  1.00  0.00    -0.171 NA
HETATM    9  N4  UNL     1      -4.099  21.326  -5.942  1.00  0.00    -0.131 N
ATOM     10  H4  UNL     1      -4.059  21.139  -4.940  1.00  0.00     0.205 HD
ENDROOT
BRANCH   9  11
HETATM   11  N5  UNL     1      -4.129  20.278  -6.846  1.00  0.00    -0.277 N
HETATM   12  C4  UNL     1      -4.331  19.069  -6.457  1.00  0.00     0.104 C
HETATM   13  C5  UNL     1      -4.357  17.966  -7.450  1.00  0.00     0.086 C
HETATM   14  N6  UNL     1      -4.527  18.815  -5.085  1.00  0.00    -0.087 NA
ATOM     15  H5  UNL     1      -3.988  20.469  -7.838  1.00  0.00     0.188 HD
ENDBRANCH   9  11
TORSDOF 1
ENDMDL