MODEL 4
REMARK VINA RESULT: -5.869988613      3.040      4.735
REMARK  3 active torsions:
REMARK  status: ('A' for Active; 'I' for Inactive)
REMARK       I    between atoms: N1_2  and  C2_4
REMARK       I    between atoms: C2_4  and  N2_5
REMARK    1  A    between atoms: N3_7  and  N4_9
REMARK    2  A    between atoms: C3_11  and  O1_13
REMARK    3  A    between atoms: N5_15  and  N6_17
ROOT
HETATM    1  C1  UNL     1      -5.795  25.412  -5.373  1.00  0.00     0.165 C
HETATM    2  N1  UNL     1      -4.436  25.083  -5.757  1.00  0.00    -0.228 N
ATOM      3  H1  UNL     1      -3.644  25.377  -5.186  1.00  0.00     0.177 HD
HETATM    4  C2  UNL     1      -4.239  24.342  -6.947  1.00  0.00     0.709 C
HETATM    5  N2  UNL     1      -4.013  22.944  -6.846  1.00  0.00    -0.116 N
ATOM      6  H2  UNL     1      -4.695  22.323  -6.412  1.00  0.00     0.207 HD
HETATM    7  N3  UNL     1      -2.920  22.505  -7.321  1.00  0.00    -0.227 N
ATOM      8  H3  UNL     1      -2.239  23.129  -7.754  1.00  0.00     0.209 HD
HETATM    9  N5  UNL     1      -4.264  24.918  -8.082  1.00  0.00    -0.117 N
ATOM     10  H5  UNL     1      -4.431  25.925  -8.096  1.00  0.00     0.207 HD
ENDROOT
BRANCH   9  11
HETATM   11  N6  UNL     1      -4.083  24.281  -9.298  1.00  0.00    -0.235 N
HETATM   12  N7  UNL     1      -3.840  24.968 -10.321  1.00  0.00    -0.330 N
ATOM     13  H72 UNL     1      -3.779  25.983 -10.240  1.00  0.00     0.178 HD
ATOM     14  H71 UNL     1      -3.707  24.499 -11.216  1.00  0.00     0.178 HD
ATOM     15  H6  UNL     1      -4.147  23.265  -9.363  1.00  0.00     0.208 HD
ENDBRANCH   9  11
BRANCH   7  16
HETATM   16  N4  UNL     1      -2.687  21.111  -7.224  1.00  0.00    -0.269 N
HETATM   17  C3  UNL     1      -2.519  20.562  -6.068  1.00  0.00     0.127 C
HETATM   18  C4  UNL     1      -2.280  19.110  -6.001  1.00  0.00     0.098 C
ATOM     19  H4  UNL     1      -2.652  20.541  -8.069  1.00  0.00     0.190 HD
BRANCH  17  20
HETATM   20  O1  UNL     1      -2.570  21.354  -4.923  1.00  0.00    -0.349 OA
ATOM     21  H1  UNL     1      -2.094  21.081  -4.148  1.00  0.00     0.219 HD
ENDBRANCH  17  20
ENDBRANCH   7  16
TORSDOF 3
ENDMDL