MODEL 4
REMARK VINA RESULT: -5.612858519      2.716      4.715
REMARK  4 active torsions:
REMARK  status: ('A' for Active; 'I' for Inactive)
REMARK    1  A    between atoms: C2_4  and  C3_5
REMARK    2  A    between atoms: C3_5  and  N1_6
REMARK    3  A    between atoms: C5_8  and  O2_9
REMARK    4  A    between atoms: C6_11  and  O3_12
ROOT
HETATM    1  O1  UNL     1      -0.875  21.263 -11.453  1.00  0.00    -0.314 OA
ATOM      2  H1  UNL     1      -0.170  21.383 -12.078  1.00  0.00     0.230 HD
HETATM    3  C1  UNL     1      -1.913  21.093 -10.553  1.00  0.00     0.053 C
HETATM    4  C2  UNL     1      -2.813  20.940  -9.755  1.00  0.00    -0.046 C
ENDROOT
BRANCH   4   5
HETATM    5  C3  UNL     1      -3.878  20.746  -8.800  1.00  0.00     0.368 C
BRANCH   5   6
HETATM    6  N1  UNL     1      -3.441  19.748  -7.853  1.00  0.00     0.104 N
HETATM    7  C4  UNL     1      -4.531  19.081  -7.204  1.00  0.00     0.307 C
HETATM    8  C5  UNL     1      -3.979  18.723  -5.862  1.00  0.00     0.176 C
HETATM    9  C6  UNL     1      -3.135  19.933  -5.490  1.00  0.00     0.176 C
HETATM   10  C7  UNL     1      -2.680  20.448  -6.820  1.00  0.00     0.307 C
BRANCH   8  11
HETATM   11  O2  UNL     1      -4.955  18.443  -4.909  1.00  0.00    -0.391 OA
ATOM     12  H2  UNL     1      -4.957  17.540  -4.617  1.00  0.00     0.210 HD
ENDBRANCH   8  11
BRANCH   9  13
HETATM   13  O3  UNL     1      -4.001  20.876  -4.909  1.00  0.00    -0.391 OA
ATOM     14  H3  UNL     1      -3.539  21.262  -4.174  1.00  0.00     0.210 HD
ENDBRANCH   9  13
ENDBRANCH   5   6
ENDBRANCH   4   5
TORSDOF 4
ENDMDL