MODEL 3
REMARK VINA RESULT: -5.351488255      1.820      2.271
REMARK  4 active torsions:
REMARK  status: ('A' for Active; 'I' for Inactive)
REMARK    1  A    between atoms: C4_5  and  O1_6
REMARK    2  A    between atoms: C5_8  and  O2_9
REMARK    3  A    between atoms: C6_11  and  C7_12
REMARK    4  A    between atoms: C7_12  and  N2_13
ROOT
HETATM    1  C1  UNL     1      -2.228  19.692  -5.603  1.00  0.00     0.143 C
HETATM    2  N1  UNL     1      -3.610  19.540  -5.907  1.00  0.00    -0.408 N
HETATM    3  C2  UNL     1      -4.027  18.211  -6.185  1.00  0.00     0.119 C
HETATM    4  C3  UNL     1      -3.978  17.810  -7.618  1.00  0.00     0.053 C
HETATM    5  C4  UNL     1      -4.234  18.896  -8.594  1.00  0.00     0.150 C
HETATM    6  C5  UNL     1      -3.649  20.234  -8.189  1.00  0.00     0.170 C
HETATM    7  C6  UNL     1      -4.143  20.528  -6.804  1.00  0.00     0.135 C
ENDROOT
BRANCH   7   8
HETATM    8  C7  UNL     1      -3.758  21.907  -6.398  1.00  0.00     0.257 C
BRANCH   8   9
HETATM    9  N2  UNL     1      -4.816  22.865  -6.486  1.00  0.00    -0.077 N
ATOM     10  H23 UNL     1      -5.697  22.452  -6.179  1.00  0.00     0.274 HD
ATOM     11  H22 UNL     1      -4.704  23.586  -5.773  1.00  0.00     0.274 HD
ATOM     12  H21 UNL     1      -4.923  23.290  -7.407  1.00  0.00     0.274 HD
ENDBRANCH   8   9
ENDBRANCH   7   8
BRANCH   6  13
HETATM   13  O2  UNL     1      -4.139  21.196  -9.067  1.00  0.00    -0.391 OA
ATOM     14  H2  UNL     1      -4.079  22.040  -8.635  1.00  0.00     0.210 HD
ENDBRANCH   6  13
BRANCH   5  15
HETATM   15  O1  UNL     1      -3.704  18.543  -9.835  1.00  0.00    -0.393 OA
ATOM     16  H1  UNL     1      -3.946  19.195 -10.482  1.00  0.00     0.210 HD
ENDBRANCH   5  15
TORSDOF 4
ENDMDL