MODEL 1
REMARK VINA RESULT: -5.845159323      0.000      0.000
REMARK  4 active torsions:
REMARK  status: ('A' for Active; 'I' for Inactive)
REMARK    1  A    between atoms: O1_1  and  C1_3
REMARK    2  A    between atoms: C1_3  and  C2_4
REMARK    3  A    between atoms: C6_8  and  O2_9
REMARK    4  A    between atoms: C7_11  and  O3_12
ROOT
HETATM    1  C2  UNL     1      -4.738  18.195  -8.431  1.00  0.00     0.252 C
HETATM    2  C3  UNL     1      -3.678  19.116  -9.036  1.00  0.00     0.074 C
HETATM    3  C4  UNL     1      -3.940  20.027  -7.862  1.00  0.00     0.231 C
HETATM    4  C5  UNL     1      -2.744  20.248  -6.960  1.00  0.00     0.072 C
HETATM    5  C6  UNL     1      -3.269  19.724  -5.635  1.00  0.00     0.179 C
HETATM    6  C7  UNL     1      -4.068  18.513  -6.099  1.00  0.00     0.386 C
HETATM    7  N1  UNL     1      -4.726  18.991  -7.259  1.00  0.00     0.131 N
ENDROOT
BRANCH   1   8
HETATM    8  C1  UNL     1      -4.181  16.801  -8.332  1.00  0.00     0.200 C
BRANCH   8   9
HETATM    9  O1  UNL     1      -4.822  15.885  -9.126  1.00  0.00    -0.399 OA
ATOM     10  H1  UNL     1      -4.398  15.732  -9.961  1.00  0.00     0.209 HD
ENDBRANCH   8   9
ENDBRANCH   1   8
BRANCH   6  11
HETATM   11  O3  UNL     1      -4.959  18.222  -5.051  1.00  0.00    -0.366 OA
ATOM     12  H3  UNL     1      -5.108  17.284  -5.093  1.00  0.00     0.212 HD
ENDBRANCH   6  11
BRANCH   5  13
HETATM   13  O2  UNL     1      -2.256  19.244  -4.819  1.00  0.00    -0.391 OA
ATOM     14  H2  UNL     1      -1.638  19.922  -4.574  1.00  0.00     0.210 HD
ENDBRANCH   5  13
TORSDOF 4
ENDMDL