MODEL 2
REMARK VINA RESULT: -5.640794271      2.036      2.748
REMARK  4 active torsions:
REMARK  status: ('A' for Active; 'I' for Inactive)
REMARK    1  A    between atoms: C3_3  and  O1_4
REMARK    2  A    between atoms: C5_7  and  C6_8
REMARK    3  A    between atoms: C6_8  and  N1_9
REMARK    4  A    between atoms: C8_14  and  O2_15
ROOT
HETATM    1  C1  UNL     1      -3.282  20.463  -9.753  1.00  0.00     0.021 C
HETATM    2  C2  UNL     1      -4.168  20.018  -8.615  1.00  0.00     0.015 A
HETATM    3  C3  UNL     1      -4.338  18.539  -8.461  1.00  0.00     0.129 C
HETATM    4  C4  UNL     1      -4.593  18.269  -6.996  1.00  0.00     0.039 C
HETATM    5  C5  UNL     1      -4.246  19.515  -6.254  1.00  0.00     0.021 C
HETATM    6  C7  UNL     1      -3.977  20.586  -7.264  1.00  0.00     0.034 A
HETATM    7  C8  UNL     1      -5.154  20.981  -8.108  1.00  0.00     0.134 A
ENDROOT
BRANCH   5   8
HETATM    8  C6  UNL     1      -3.116  19.342  -5.270  1.00  0.00     0.234 C
BRANCH   8   9
HETATM    9  N1  UNL     1      -2.247  18.308  -5.794  1.00  0.00    -0.079 N
ATOM     10  H13 UNL     1      -1.292  18.370  -5.438  1.00  0.00     0.274 HD
ATOM     11  H12 UNL     1      -2.463  17.381  -5.428  1.00  0.00     0.274 HD
ATOM     12  H11 UNL     1      -2.298  18.359  -6.811  1.00  0.00     0.274 HD
ENDBRANCH   8   9
ENDBRANCH   5   8
BRANCH   3  13
HETATM   13  O1  UNL     1      -5.307  17.996  -9.265  1.00  0.00    -0.395 OA
ATOM     14  H1  UNL     1      -5.853  17.348  -8.836  1.00  0.00     0.210 HD
ENDBRANCH   3  13
BRANCH   7  15
HETATM   15  O2  UNL     1      -6.434  20.597  -7.723  1.00  0.00    -0.394 OA
ATOM     16  H2  UNL     1      -6.766  20.751  -6.846  1.00  0.00     0.210 HD
ENDBRANCH   7  15
TORSDOF 4
ENDMDL