MODEL 1
REMARK VINA RESULT: -5.467822482      0.000      0.000
REMARK  9 active torsions:
REMARK  status: ('A' for Active; 'I' for Inactive)
REMARK    1  A    between atoms: N1_1  and  C1_4
REMARK    2  A    between atoms: N3_7  and  N4_8
REMARK    3  A    between atoms: N7_17  and  C4_18
REMARK    4  A    between atoms: C6_21  and  N8_22
REMARK       I    between atoms: N8_22  and  C7_24
REMARK    5  A    between atoms: C7_24  and  C8_26
REMARK    6  A    between atoms: C8_26  and  C9_27
REMARK    7  A    between atoms: C9_27  and  N9_28
REMARK    8  A    between atoms: C10_32  and  O3_33
REMARK    9  A    between atoms: C11_35  and  N10_36
ROOT
HETATM    1  C4  UNL     1      54.892  16.462  10.241  1.00  0.00     0.280 C
HETATM    2  O1  UNL     1      55.999  15.692  10.453  1.00  0.00    -0.360 OA
HETATM    3  C5  UNL     1      56.567  15.148   9.322  1.00  0.00     0.198 C
HETATM    4  C6  UNL     1      57.119  16.319   8.515  1.00  0.00     0.139 C
HETATM    5  C10 UNL     1      55.980  17.201   8.080  1.00  0.00     0.177 C
HETATM    6  C11 UNL     1      54.925  17.407   9.105  1.00  0.00     0.264 C
ENDROOT
BRANCH   1   7
HETATM    7  N7  UNL     1      53.756  15.533  10.114  1.00  0.00    -0.225 N
HETATM    8  C2  UNL     1      53.241  14.785  11.113  1.00  0.00     0.197 A
HETATM    9  N3  UNL     1      53.389  14.503  12.420  1.00  0.00    -0.180 N
HETATM   10  C3  UNL     1      52.180  14.041  10.602  1.00  0.00     0.143 A
HETATM   11  N2  UNL     1      52.455  13.603  12.759  1.00  0.00    -0.261 N
HETATM   12  C1  UNL     1      51.708  13.307  11.674  1.00  0.00     0.148 A
ATOM     13  H2  UNL     1      52.328  13.205  13.690  1.00  0.00     0.191 HD
HETATM   14  N5  UNL     1      52.104  14.380   9.305  1.00  0.00    -0.279 N
HETATM   15  N6  UNL     1      53.049  15.268   9.036  1.00  0.00    -0.236 N
ATOM     16  H5  UNL     1      51.426  14.014   8.636  1.00  0.00     0.189 HD
ATOM     17  H6  UNL     1      53.207  15.688   8.120  1.00  0.00     0.208 HD
BRANCH   9  18
HETATM   18  N4  UNL     1      54.360  15.071  13.247  1.00  0.00    -0.322 N
ATOM     19  H42 UNL     1      54.246  15.231  14.247  1.00  0.00     0.179 HD
ATOM     20  H41 UNL     1      55.290  15.393  12.980  1.00  0.00     0.179 HD
ENDBRANCH   9  18
BRANCH  12  21
HETATM   21  N1  UNL     1      50.732  12.494  11.624  1.00  0.00    -0.382 N
ATOM     22  H12 UNL     1      50.306  12.045  12.435  1.00  0.00     0.157 HD
ATOM     23  H11 UNL     1      50.245  12.179  10.785  1.00  0.00     0.157 HD
ENDBRANCH  12  21
ENDBRANCH   1   7
BRANCH   6  24
HETATM   24  N10 UNL     1      54.986  18.777   9.631  1.00  0.00    -0.068 N
ATOM     25 3H10 UNL     1      55.752  18.907  10.293  1.00  0.00     0.275 HD
ATOM     26 2H10 UNL     1      55.291  19.450   8.928  1.00  0.00     0.275 HD
ATOM     27 1H10 UNL     1      54.079  19.017  10.032  1.00  0.00     0.275 HD
ENDBRANCH   6  24
BRANCH   5  28
HETATM   28  O3  UNL     1      55.451  16.614   6.907  1.00  0.00    -0.391 OA
ATOM     29  H3  UNL     1      55.225  15.720   7.137  1.00  0.00     0.210 HD
ENDBRANCH   5  28
BRANCH   4  30
HETATM   30  N8  UNL     1      57.828  15.746   7.390  1.00  0.00    -0.352 N
HETATM   31  C7  UNL     1      59.219  15.498   7.550  1.00  0.00     0.219 C
HETATM   32  O2  UNL     1      59.829  15.755   8.607  1.00  0.00    -0.274 OA
ATOM     33  H8  UNL     1      57.349  15.528   6.516  1.00  0.00     0.163 HD
BRANCH  31  34
HETATM   34  C8  UNL     1      59.964  14.904   6.386  1.00  0.00     0.130 C
BRANCH  34  35
HETATM   35  C9  UNL     1      59.527  13.471   6.198  1.00  0.00     0.238 C
BRANCH  35  36
HETATM   36  N9  UNL     1      60.661  12.596   6.240  1.00  0.00    -0.079 N
ATOM     37  H93 UNL     1      61.505  13.048   5.886  1.00  0.00     0.274 HD
ATOM     38  H92 UNL     1      60.973  12.424   7.196  1.00  0.00     0.274 HD
ATOM     39  H91 UNL     1      60.459  11.728   5.744  1.00  0.00     0.274 HD
ENDBRANCH  35  36
ENDBRANCH  34  35
ENDBRANCH  31  34
ENDBRANCH   4  30
TORSDOF 9
ENDMDL