MODEL 3
REMARK VINA RESULT: -5.405611776      3.834      6.040
REMARK  7 active torsions:
REMARK  status: ('A' for Active; 'I' for Inactive)
REMARK    1  A    between atoms: C2_5  and  N3_6
REMARK    2  A    between atoms: C2_5  and  N4_10
REMARK       I    between atoms: N4_10  and  C3_12
REMARK    3  A    between atoms: C3_12  and  C4_14
REMARK    4  A    between atoms: C4_14  and  N5_15
REMARK       I    between atoms: N5_15  and  C5_17
REMARK    5  A    between atoms: C5_17  and  C6_19
REMARK    6  A    between atoms: C9_26  and  C10_27
REMARK    7  A    between atoms: C10_27  and  O3_28
ROOT
HETATM    1  N1  UNL     1      47.791  13.655  11.542  1.00  0.00    -0.063 NA
HETATM    2  C1  UNL     1      48.684  14.425  10.750  1.00  0.00     0.193 C
HETATM    3  N2  UNL     1      49.396  15.299  11.329  1.00  0.00    -0.313 N
ATOM      4  H2  UNL     1      49.217  15.328  12.332  1.00  0.00     0.166 HD
HETATM    5  C2  UNL     1      50.379  16.252  10.943  1.00  0.00     0.299 C
HETATM    6  C9  UNL     1      50.063  16.969   9.657  1.00  0.00     0.186 C
HETATM    7  N8  UNL     1      49.839  16.108   8.546  1.00  0.00    -0.352 N
ATOM      8  H8  UNL     1      50.226  16.472   7.674  1.00  0.00     0.162 HD
HETATM    9  C11 UNL     1      49.190  14.846   8.387  1.00  0.00     0.191 C
HETATM   10  N9  UNL     1      49.054  14.297   7.095  1.00  0.00    -0.063 NA
HETATM   11  N10 UNL     1      48.703  14.140   9.340  1.00  0.00    -0.305 N
ATOM     12  H10 UNL     1      48.271  13.258   9.061  1.00  0.00     0.171 HD
ENDROOT
BRANCH   5  13
HETATM   13  N3  UNL     1      50.566  17.299  11.959  1.00  0.00    -0.031 N
ATOM     14  H33 UNL     1      50.796  18.195  11.529  1.00  0.00     0.279 HD
ATOM     15  H32 UNL     1      49.680  17.551  12.397  1.00  0.00     0.279 HD
ATOM     16  H31 UNL     1      51.262  17.036  12.658  1.00  0.00     0.279 HD
ENDBRANCH   5  13
BRANCH   5  17
HETATM   17  N4  UNL     1      51.649  15.578  10.813  1.00  0.00    -0.308 N
HETATM   18  C3  UNL     1      52.177  14.909  11.941  1.00  0.00     0.238 C
HETATM   19  O1  UNL     1      51.546  14.910  13.025  1.00  0.00    -0.272 OA
ATOM     20  H4  UNL     1      52.154  15.585   9.927  1.00  0.00     0.166 HD
BRANCH  18  21
HETATM   21  C4  UNL     1      53.483  14.185  11.901  1.00  0.00     0.225 C
BRANCH  21  22
HETATM   22  N5  UNL     1      54.308  14.687  10.829  1.00  0.00    -0.347 N
HETATM   23  C5  UNL     1      55.663  15.037  11.134  1.00  0.00     0.270 C
HETATM   24  O2  UNL     1      56.130  14.915  12.292  1.00  0.00    -0.266 OA
ATOM     25  H5  UNL     1      53.938  14.790   9.884  1.00  0.00     0.163 HD
BRANCH  23  26
HETATM   26  C6  UNL     1      56.538  15.548  10.097  1.00  0.00     0.117 A
HETATM   27  C7  UNL     1      56.539  15.216   8.765  1.00  0.00     0.124 A
HETATM   28  N6  UNL     1      57.501  15.903   8.128  1.00  0.00    -0.360 N
HETATM   29  C8  UNL     1      58.119  16.674   9.038  1.00  0.00     0.180 A
ATOM     30  H6  UNL     1      57.723  15.850   7.134  1.00  0.00     0.166 HD
HETATM   31  N7  UNL     1      57.541  16.461  10.222  1.00  0.00    -0.347 N
ATOM     32  H7  UNL     1      57.811  16.916  11.095  1.00  0.00     0.167 HD
ENDBRANCH  23  26
ENDBRANCH  21  22
ENDBRANCH  18  21
ENDBRANCH   5  17
BRANCH   6  33
HETATM   33  C10 UNL     1      51.081  18.024   9.325  1.00  0.00     0.195 C
BRANCH  33  34
HETATM   34  O3  UNL     1      50.509  19.268   9.604  1.00  0.00    -0.399 OA
ATOM     35  H3  UNL     1      50.474  19.759   8.791  1.00  0.00     0.209 HD
ENDBRANCH  33  34
ENDBRANCH   6  33
TORSDOF 7
ENDMDL