MODEL 1
REMARK VINA RESULT: -5.936818874      0.000      0.000
REMARK  8 active torsions:
REMARK  status: ('A' for Active; 'I' for Inactive)
REMARK    1  A    between atoms: C2_2  and  O1_3
REMARK    2  A    between atoms: C8_16  and  N4_17
REMARK       I    between atoms: N4_17  and  C9_19
REMARK    3  A    between atoms: C9_19  and  C10_21
REMARK    4  A    between atoms: C10_21  and  C11_22
REMARK    5  A    between atoms: C11_22  and  O3_23
REMARK    6  A    between atoms: N5_25  and  N6_27
REMARK    7  A    between atoms: N6_27  and  N7_29
REMARK    8  A    between atoms: C12_34  and  O4_35
ROOT
HETATM    1  C1  UNL     1      46.273  12.757  10.793  1.00  0.00     0.054 C
HETATM    2  C2  UNL     1      47.510  12.746   9.979  1.00  0.00     0.114 C
HETATM    3  C3  UNL     1      48.209  11.372   9.973  1.00  0.00     0.163 C
HETATM    4  N1  UNL     1      49.541  11.766   9.531  1.00  0.00    -0.385 N
ATOM      5  H1  UNL     1      50.181  11.168   9.008  1.00  0.00     0.159 HD
HETATM    6  C4  UNL     1      49.800  13.001   9.903  1.00  0.00     0.080 C
HETATM    7  C5  UNL     1      48.645  13.513  10.629  1.00  0.00     0.068 C
HETATM    8  N2  UNL     1      48.600  14.360  11.544  1.00  0.00    -0.387 N
ATOM      9  H2  UNL     1      47.660  14.553  11.891  1.00  0.00     0.159 HD
HETATM   10  C6  UNL     1      49.630  15.106  12.191  1.00  0.00     0.140 C
HETATM   11  C7  UNL     1      50.633  14.211  12.880  1.00  0.00     0.157 C
HETATM   12  N3  UNL     1      51.993  14.466  12.603  1.00  0.00    -0.225 N
ATOM     13  H3  UNL     1      52.501  14.977  13.324  1.00  0.00     0.177 HD
HETATM   14  C8  UNL     1      52.684  14.139  11.554  1.00  0.00     0.679 C
HETATM   15  N8  UNL     1      52.158  13.421  10.465  1.00  0.00    -0.194 N
ATOM     16  H8  UNL     1      52.625  12.542  10.240  1.00  0.00     0.180 HD
HETATM   17  C12 UNL     1      51.038  13.776   9.628  1.00  0.00     0.287 C
ENDROOT
BRANCH  14  18
HETATM   18  N4  UNL     1      54.050  14.539  11.566  1.00  0.00    -0.155 N
HETATM   19  C9  UNL     1      54.722  15.208  10.534  1.00  0.00     0.285 C
HETATM   20  O2  UNL     1      54.020  15.477   9.498  1.00  0.00    -0.265 OA
ATOM     21  H4  UNL     1      54.589  14.320  12.403  1.00  0.00     0.187 HD
BRANCH  19  22
HETATM   22  C10 UNL     1      56.088  15.599  10.549  1.00  0.00     0.118 C
HETATM   23  N5  UNL     1      56.977  15.458   9.676  1.00  0.00    -0.283 N
ATOM     24  H5  UNL     1      57.873  15.843   9.974  1.00  0.00     0.188 HD
BRANCH  22  25
HETATM   25  C11 UNL     1      56.562  16.300  11.820  1.00  0.00     0.228 C
BRANCH  25  26
HETATM   26  O3  UNL     1      56.693  15.402  12.872  1.00  0.00    -0.395 OA
ATOM     27  H3  UNL     1      55.852  15.215  13.273  1.00  0.00     0.209 HD
ENDBRANCH  25  26
ENDBRANCH  22  25
BRANCH  23  28
HETATM   28  N6  UNL     1      57.038  14.922   8.438  1.00  0.00    -0.249 N
ATOM     29  H6  UNL     1      57.620  14.102   8.266  1.00  0.00     0.207 HD
BRANCH  28  30
HETATM   30  N7  UNL     1      56.302  15.492   7.391  1.00  0.00    -0.331 N
ATOM     31  H72 UNL     1      56.069  16.485   7.432  1.00  0.00     0.178 HD
ATOM     32  H71 UNL     1      56.008  14.916   6.602  1.00  0.00     0.178 HD
ENDBRANCH  28  30
ENDBRANCH  23  28
ENDBRANCH  19  22
ENDBRANCH  14  18
BRANCH  17  33
HETATM   33  O4  UNL     1      51.384  13.462   8.279  1.00  0.00    -0.370 OA
ATOM     34  H4  UNL     1      52.261  13.808   8.160  1.00  0.00     0.212 HD
ENDBRANCH  17  33
BRANCH   2  35
HETATM   35  O1  UNL     1      47.390  13.194   8.687  1.00  0.00    -0.382 OA
ATOM     36  H1  UNL     1      46.629  12.890   8.206  1.00  0.00     0.211 HD
ENDBRANCH   2  35
TORSDOF 8
ENDMDL