MODEL 5
REMARK VINA RESULT: -6.362004693      2.448      6.691
REMARK  9 active torsions:
REMARK  status: ('A' for Active; 'I' for Inactive)
REMARK    1  A    between atoms: N1_1  and  C1_4
REMARK    2  A    between atoms: C3_11  and  N4_12
REMARK       I    between atoms: N4_12  and  C4_14
REMARK    3  A    between atoms: C4_14  and  C5_16
REMARK    4  A    between atoms: C5_16  and  C6_17
REMARK    5  A    between atoms: C5_16  and  N8_30
REMARK    6  A    between atoms: C6_17  and  N5_18
REMARK    7  A    between atoms: C8_20  and  C9_21
REMARK    8  A    between atoms: C9_21  and  O3_22
REMARK    9  A    between atoms: C9_21  and  O4_24
ROOT
HETATM    1  C5  UNL     1      58.746  15.480   7.467  1.00  0.00     0.242 C
ENDROOT
BRANCH   1   2
HETATM    2  C4  UNL     1      59.281  16.700   6.788  1.00  0.00     0.264 C
HETATM    3  N4  UNL     1      58.656  17.937   7.103  1.00  0.00    -0.157 N
ATOM      4  H4  UNL     1      57.692  18.094   6.813  1.00  0.00     0.187 HD
HETATM    5  O2  UNL     1      60.247  16.640   5.967  1.00  0.00    -0.270 OA
BRANCH   3   6
HETATM    6  C3  UNL     1      59.272  18.859   7.742  1.00  0.00     0.703 A
HETATM    7  N3  UNL     1      60.087  19.676   7.052  1.00  0.00    -0.140 N
HETATM    8  C2  UNL     1      60.745  20.653   7.704  1.00  0.00     0.352 A
ATOM      9  H3  UNL     1      60.207  19.556   6.046  1.00  0.00     0.189 HD
HETATM   10  N2  UNL     1      60.590  20.816   9.031  1.00  0.00    -0.141 N
HETATM   11  O1  UNL     1      61.506  21.413   7.060  1.00  0.00    -0.246 OA
HETATM   12  C1  UNL     1      59.786  20.014   9.723  1.00  0.00     0.694 A
ATOM     13  H2  UNL     1      61.094  21.561   9.510  1.00  0.00     0.189 HD
HETATM   14  N12 UNL     1      59.117  19.022   9.067  1.00  0.00    -0.022 N
ATOM     15  H12 UNL     1      58.496  18.400   9.586  1.00  0.00     0.203 HD
BRANCH  12  16
HETATM   16  N1  UNL     1      59.608  20.138  11.006  1.00  0.00    -0.234 N
ATOM     17  H12 UNL     1      58.669  20.006  11.381  1.00  0.00     0.174 HD
ATOM     18  H11 UNL     1      60.370  20.361  11.648  1.00  0.00     0.174 HD
ENDBRANCH  12  16
ENDBRANCH   3   6
ENDBRANCH   1   2
BRANCH   1  19
HETATM   19  C6  UNL     1      57.306  15.346   7.090  1.00  0.00     0.188 C
BRANCH  19  20
HETATM   20  N5  UNL     1      56.447  15.285   8.267  1.00  0.00    -0.284 N
HETATM   21  C7  UNL     1      56.850  15.279   9.552  1.00  0.00     0.143 A
HETATM   22  C8  UNL     1      55.753  15.214  10.388  1.00  0.00     0.098 A
HETATM   23  N6  UNL     1      54.689  15.181   9.556  1.00  0.00    -0.284 N
HETATM   24  N7  UNL     1      55.130  15.225   8.306  1.00  0.00    -0.240 N
ATOM     25  H6  UNL     1      53.711  15.132   9.842  1.00  0.00     0.188 HD
ATOM     26  H7  UNL     1      54.529  15.213   7.483  1.00  0.00     0.208 HD
BRANCH  22  27
HETATM   27  C9  UNL     1      55.755  15.187  11.873  1.00  0.00     0.308 C
BRANCH  27  28
HETATM   28  O3  UNL     1      56.929  15.677  12.407  1.00  0.00    -0.366 OA
ATOM     29  H3  UNL     1      56.965  15.582  13.351  1.00  0.00     0.213 HD
ENDBRANCH  27  28
BRANCH  27  30
HETATM   30  O4  UNL     1      54.693  15.912  12.403  1.00  0.00    -0.366 OA
ATOM     31  H4  UNL     1      54.052  15.346  12.817  1.00  0.00     0.213 HD
ENDBRANCH  27  30
ENDBRANCH  22  27
ENDBRANCH  19  20
ENDBRANCH   1  19
BRANCH   1  32
HETATM   32  N8  UNL     1      59.463  14.328   6.971  1.00  0.00    -0.187 N
HETATM   33  N9  UNL     1      60.724  13.943   7.108  1.00  0.00    -0.208 N
HETATM   34  N10 UNL     1      60.496  12.873   6.383  1.00  0.00    -0.211 N
ATOM     35  H9  UNL     1      61.542  14.325   7.584  1.00  0.00     0.211 HD
HETATM   36  N11 UNL     1      59.238  13.258   6.248  1.00  0.00    -0.208 N
ATOM     37  H10 UNL     1      61.052  12.081   6.061  1.00  0.00     0.211 HD
ATOM     38  H11 UNL     1      58.421  12.876   5.772  1.00  0.00     0.211 HD
ENDBRANCH   1  32
TORSDOF 9
ENDMDL