MODEL 2
REMARK VINA RESULT: -5.927052369      4.754      9.470
REMARK  9 active torsions:
REMARK  status: ('A' for Active; 'I' for Inactive)
REMARK       I    between atoms: N1_2  and  C2_3
REMARK    1  A    between atoms: N1_2  and  C6_13
REMARK    2  A    between atoms: C2_3  and  O2_5
REMARK    3  A    between atoms: O2_5  and  C3_6
REMARK    4  A    between atoms: C3_6  and  C4_7
REMARK    5  A    between atoms: C4_7  and  O3_8
REMARK    6  A    between atoms: C4_7  and  C5_10
REMARK    7  A    between atoms: C5_10  and  O4_11
REMARK       I    between atoms: N4_18  and  C8_19
REMARK       I    between atoms: C8_19  and  N5_21
REMARK    8  A    between atoms: N5_21  and  N6_23
REMARK    9  A    between atoms: N6_23  and  N7_24
ROOT
HETATM    1  C6  UNL     1      55.955  17.537   9.788  1.00  0.00     0.150 C
HETATM    2  C7  UNL     1      55.989  18.203  10.934  1.00  0.00     0.164 C
HETATM    3  N2  UNL     1      56.876  17.759  11.932  1.00  0.00    -0.079 NA
HETATM    4  N3  UNL     1      55.245  19.358  11.369  1.00  0.00    -0.271 N
ATOM      5  H3  UNL     1      55.711  19.929  12.073  1.00  0.00     0.189 HD
HETATM    6  N4  UNL     1      53.971  19.821  10.973  1.00  0.00    -0.150 N
HETATM    7  C8  UNL     1      53.490  20.983  11.575  1.00  0.00     0.362 C
HETATM    8  O5  UNL     1      54.221  21.516  12.494  1.00  0.00    -0.243 OA
HETATM    9  N5  UNL     1      52.304  21.630  11.286  1.00  0.00    -0.234 N
ATOM     10  H5  UNL     1      51.703  21.241  10.559  1.00  0.00     0.189 HD
HETATM   11  C9  UNL     1      53.168  19.146  10.014  1.00  0.00     0.352 C
HETATM   12  O6  UNL     1      51.933  19.149  10.195  1.00  0.00    -0.244 OA
HETATM   13  N8  UNL     1      53.669  18.468   8.868  1.00  0.00    -0.272 N
ATOM     14  H8  UNL     1      53.048  18.409   8.061  1.00  0.00     0.174 HD
HETATM   15  C10 UNL     1      54.970  17.855   8.732  1.00  0.00     0.280 C
HETATM   16  O7  UNL     1      55.230  17.584   7.561  1.00  0.00    -0.265 OA
ENDROOT
BRANCH   1  17
HETATM   17  N1  UNL     1      56.758  16.420   9.563  1.00  0.00    -0.290 N
HETATM   18  C1  UNL     1      56.113  15.086   9.789  1.00  0.00     0.162 C
HETATM   19  C2  UNL     1      58.008  16.359   8.924  1.00  0.00     0.367 C
HETATM   20  O1  UNL     1      58.770  17.318   8.798  1.00  0.00    -0.238 OA
BRANCH  19  21
HETATM   21  O2  UNL     1      58.465  15.145   8.371  1.00  0.00    -0.301 OA
BRANCH  21  22
HETATM   22  C3  UNL     1      58.826  15.104   7.028  1.00  0.00     0.214 C
BRANCH  22  23
HETATM   23  C4  UNL     1      60.225  14.643   6.823  1.00  0.00     0.166 C
BRANCH  23  24
HETATM   24  O3  UNL     1      60.898  14.639   8.047  1.00  0.00    -0.391 OA
ATOM     25  H3  UNL     1      61.460  13.875   8.096  1.00  0.00     0.210 HD
ENDBRANCH  23  24
BRANCH  23  26
HETATM   26  C5  UNL     1      60.267  13.191   6.315  1.00  0.00     0.198 C
BRANCH  26  27
HETATM   27  O4  UNL     1      59.605  12.327   7.169  1.00  0.00    -0.398 OA
ATOM     28  H4  UNL     1      59.962  11.447   7.128  1.00  0.00     0.209 HD
ENDBRANCH  26  27
ENDBRANCH  23  26
ENDBRANCH  22  23
ENDBRANCH  21  22
ENDBRANCH  19  21
ENDBRANCH   1  17
BRANCH   9  29
HETATM   29  N6  UNL     1      51.886  22.806  11.949  1.00  0.00    -0.026 NA
BRANCH  29  30
HETATM   30  N7  UNL     1      51.408  22.516  13.229  1.00  0.00    -0.329 N
ATOM     31  H72 UNL     1      50.575  22.944  13.632  1.00  0.00     0.174 HD
ATOM     32  H71 UNL     1      52.001  21.829  13.695  1.00  0.00     0.174 HD
ENDBRANCH  29  30
ENDBRANCH   9  29
TORSDOF 9
ENDMDL