MODEL 4
REMARK VINA RESULT: -5.706178900      3.501      5.588
REMARK  11 active torsions:
REMARK  status: ('A' for Active; 'I' for Inactive)
REMARK       I    between atoms: C2_2  and  N1_4
REMARK    1  A    between atoms: N1_4  and  C3_6
REMARK    2  A    between atoms: C3_6  and  O2_7
REMARK    3  A    between atoms: C3_6  and  N2_9
REMARK    4  A    between atoms: C4_10  and  C5_11
REMARK    5  A    between atoms: C5_11  and  N3_12
REMARK    6  A    between atoms: C5_11  and  C7_22
REMARK    7  A    between atoms: N3_12  and  C6_14
REMARK    8  A    between atoms: C7_22  and  C8_24
REMARK    9  A    between atoms: C8_24  and  O4_25
REMARK   10  A    between atoms: C8_24  and  O5_27
REMARK   11  A    between atoms: C9_33  and  N10_34
ROOT
HETATM    1  N2  UNL     1      51.878  16.141  10.141  1.00  0.00    -0.094 N
HETATM    2  C4  UNL     1      52.941  15.347  10.431  1.00  0.00     0.155 A
HETATM    3  N8  UNL     1      52.536  14.080  10.271  1.00  0.00    -0.272 N
ATOM      4  H8  UNL     1      53.117  13.255  10.417  1.00  0.00     0.189 HD
HETATM    5  N9  UNL     1      51.307  14.061   9.906  1.00  0.00    -0.130 N
ATOM      6  H9  UNL     1      50.765  13.218   9.718  1.00  0.00     0.205 HD
HETATM    7  C9  UNL     1      50.833  15.338   9.806  1.00  0.00     0.701 A
ENDROOT
BRANCH   2   8
HETATM    8  C5  UNL     1      54.344  15.680  10.793  1.00  0.00     0.244 C
BRANCH   8   9
HETATM    9  N3  UNL     1      55.324  14.847  10.173  1.00  0.00    -0.205 N
ATOM     10  H3  UNL     1      55.137  13.844  10.164  1.00  0.00     0.179 HD
BRANCH   9  11
HETATM   11  C6  UNL     1      56.422  15.241   9.624  1.00  0.00     0.707 A
HETATM   12  N4  UNL     1      57.279  16.187  10.047  1.00  0.00    -0.118 N
HETATM   13  N5  UNL     1      58.274  16.254   9.197  1.00  0.00    -0.212 N
ATOM     14  H4  UNL     1      57.173  16.757  10.886  1.00  0.00     0.207 HD
HETATM   15  N6  UNL     1      58.112  15.379   8.212  1.00  0.00     0.009 NA
ATOM     16  H5  UNL     1      59.066  16.892   9.281  1.00  0.00     0.206 HD
HETATM   17  N7  UNL     1      56.974  14.764   8.486  1.00  0.00    -0.114 N
ATOM     18  H7  UNL     1      56.565  14.027   7.913  1.00  0.00     0.203 HD
ENDBRANCH   9  11
ENDBRANCH   8   9
BRANCH   8  19
HETATM   19  C7  UNL     1      54.491  15.579  12.276  1.00  0.00     0.211 C
HETATM   20  O3  UNL     1      53.639  14.894  12.850  1.00  0.00    -0.290 OA
BRANCH  19  21
HETATM   21  C8  UNL     1      55.578  16.245  13.021  1.00  0.00     0.328 C
BRANCH  21  22
HETATM   22  O4  UNL     1      56.746  15.487  12.919  1.00  0.00    -0.365 OA
ATOM     23  H4  UNL     1      57.412  15.852  13.489  1.00  0.00     0.213 HD
ENDBRANCH  21  22
BRANCH  21  24
HETATM   24  O5  UNL     1      55.855  17.447  12.330  1.00  0.00    -0.365 OA
ATOM     25  H5  UNL     1      55.381  18.132  12.786  1.00  0.00     0.213 HD
ENDBRANCH  21  24
ENDBRANCH  19  21
ENDBRANCH   8  19
ENDBRANCH   2   8
BRANCH   1  26
HETATM   26  C3  UNL     1      51.856  17.514  10.348  1.00  0.00     0.247 C
BRANCH  26  27
HETATM   27  N1  UNL     1      52.394  18.654   9.769  1.00  0.00    -0.292 N
HETATM   28  C2  UNL     1      51.964  19.898   9.371  1.00  0.00     0.220 C
HETATM   29  C1  UNL     1      52.974  20.850   8.729  1.00  0.00     0.117 C
HETATM   30  O1  UNL     1      50.840  20.371   9.463  1.00  0.00    -0.274 OA
ATOM     31  H1  UNL     1      53.391  18.537   9.588  1.00  0.00     0.172 HD
ENDBRANCH  26  27
BRANCH  26  32
HETATM   32  O2  UNL     1      51.100  17.837  11.415  1.00  0.00    -0.331 OA
ATOM     33  H2  UNL     1      51.354  17.322  12.173  1.00  0.00     0.221 HD
ENDBRANCH  26  32
ENDBRANCH   1  26
BRANCH   7  34
HETATM   34  N10 UNL     1      49.610  15.591   9.517  1.00  0.00    -0.233 N
ATOM     35 2H10 UNL     1      49.347  16.127   8.689  1.00  0.00     0.174 HD
ATOM     36 1H10 UNL     1      48.730  15.305   9.946  1.00  0.00     0.174 HD
ENDBRANCH   7  34
TORSDOF 11
ENDMDL