MODEL 5
REMARK VINA RESULT: -5.756296265      2.631      7.126
REMARK  8 active torsions:
REMARK  status: ('A' for Active; 'I' for Inactive)
REMARK    1  A    between atoms: C2_2  and  C3_3
REMARK    2  A    between atoms: C3_3  and  N1_4
REMARK    3  A    between atoms: C3_3  and  C11_32
REMARK       I    between atoms: N1_4  and  C4_6
REMARK    4  A    between atoms: C4_6  and  C5_8
REMARK    5  A    between atoms: C8_17  and  N6_18
REMARK    6  A    between atoms: C10_27  and  N10_28
REMARK    7  A    between atoms: C11_32  and  O3_33
REMARK    8  A    between atoms: C11_32  and  O4_35
ROOT
HETATM    1  C5  UNL     1      58.523  16.693   7.886  1.00  0.00     0.224 C
HETATM    2  C6  UNL     1      59.357  15.444   7.816  1.00  0.00     0.276 C
HETATM    3  O2  UNL     1      60.319  15.114   8.548  1.00  0.00    -0.270 OA
HETATM    4  N2  UNL     1      58.884  14.639   6.747  1.00  0.00    -0.042 N
HETATM    5  C7  UNL     1      59.578  13.552   6.131  1.00  0.00     0.738 A
HETATM    6  N3  UNL     1      60.668  12.785   6.259  1.00  0.00    -0.112 N
ATOM      7  H3  UNL     1      61.442  12.736   6.923  1.00  0.00     0.203 HD
HETATM    8  N4  UNL     1      60.329  12.119   5.168  1.00  0.00     0.013 NA
HETATM    9  N5  UNL     1      59.243  12.861   5.017  1.00  0.00    -0.055 N
HETATM   10  C8  UNL     1      58.141  12.978   4.123  1.00  0.00     0.426 C
HETATM   11  N7  UNL     1      57.016  13.685   4.560  1.00  0.00    -0.318 N
ATOM     12  H7  UNL     1      56.198  13.441   4.002  1.00  0.00     0.166 HD
HETATM   13  C9  UNL     1      56.713  14.547   5.453  1.00  0.00     0.211 C
HETATM   14  N8  UNL     1      55.373  14.990   5.511  1.00  0.00    -0.062 NA
HETATM   15  N9  UNL     1      57.595  15.105   6.394  1.00  0.00    -0.208 N
HETATM   16  C10 UNL     1      57.280  16.293   7.168  1.00  0.00     0.330 C
ENDROOT
BRANCH   1  17
HETATM   17  C4  UNL     1      58.332  17.176   9.243  1.00  0.00     0.235 C
HETATM   18  N1  UNL     1      57.308  16.608  10.050  1.00  0.00    -0.351 N
ATOM     19  H1  UNL     1      56.722  15.868   9.660  1.00  0.00     0.163 HD
HETATM   20  O1  UNL     1      59.079  18.087   9.676  1.00  0.00    -0.272 OA
BRANCH  18  21
HETATM   21  C3  UNL     1      57.070  17.050  11.418  1.00  0.00     0.139 C
BRANCH  21  22
HETATM   22  C2  UNL     1      56.392  15.993  12.241  1.00  0.00     0.025 C
HETATM   23  C1  UNL     1      55.758  14.914  11.419  1.00  0.00     0.007 C
ENDBRANCH  21  22
BRANCH  21  24
HETATM   24  C11 UNL     1      56.314  18.362  11.442  1.00  0.00     0.276 C
BRANCH  24  25
HETATM   25  O3  UNL     1      57.209  19.394  11.720  1.00  0.00    -0.369 OA
ATOM     26  H3  UNL     1      57.191  20.018  11.005  1.00  0.00     0.212 HD
ENDBRANCH  24  25
BRANCH  24  27
HETATM   27  O4  UNL     1      55.381  18.325  12.454  1.00  0.00    -0.369 OA
ATOM     28  H4  UNL     1      55.239  19.206  12.778  1.00  0.00     0.212 HD
ENDBRANCH  24  27
ENDBRANCH  21  24
ENDBRANCH  18  21
ENDBRANCH   1  17
BRANCH  16  29
HETATM   29  N10 UNL     1      56.914  17.321   6.180  1.00  0.00    -0.055 N
ATOM     30 3H10 UNL     1      56.859  18.250   6.599  1.00  0.00     0.276 HD
ATOM     31 2H10 UNL     1      57.668  17.500   5.518  1.00  0.00     0.276 HD
ATOM     32 1H10 UNL     1      56.047  17.063   5.710  1.00  0.00     0.276 HD
ENDBRANCH  16  29
BRANCH  10  33
HETATM   33  N6  UNL     1      58.628  13.604   2.883  1.00  0.00    -0.038 N
ATOM     34  H63 UNL     1      59.643  13.707   2.864  1.00  0.00     0.279 HD
ATOM     35  H62 UNL     1      58.538  12.993   2.071  1.00  0.00     0.279 HD
ATOM     36  H61 UNL     1      58.140  14.492   2.766  1.00  0.00     0.279 HD
ENDBRANCH  10  33
TORSDOF 8
ENDMDL