MODEL 4
REMARK VINA RESULT: -5.818452134      2.250      6.489
REMARK  8 active torsions:
REMARK  status: ('A' for Active; 'I' for Inactive)
REMARK    1  A    between atoms: C1_2  and  C2_4
REMARK    2  A    between atoms: N2_9  and  N3_10
REMARK    3  A    between atoms: C5_12  and  C6_13
REMARK    4  A    between atoms: C6_13  and  O3_14
REMARK    5  A    between atoms: C6_13  and  N4_16
REMARK    6  A    between atoms: N4_16  and  O4_18
REMARK    7  A    between atoms: C9_26  and  O7_27
REMARK    8  A    between atoms: C9_26  and  C10_29
ROOT
HETATM    1  N3  UNL     1      56.695  14.990   7.051  1.00  0.00    -0.213 N
HETATM    2  C4  UNL     1      57.004  15.400   8.293  1.00  0.00     0.138 A
HETATM    3  C5  UNL     1      56.047  15.793   9.246  1.00  0.00     0.077 A
HETATM    4  C7  UNL     1      54.754  15.734   8.826  1.00  0.00     0.261 A
HETATM    5  O5  UNL     1      53.803  16.064   9.586  1.00  0.00    -0.267 OA
HETATM    6  N5  UNL     1      54.478  15.316   7.565  1.00  0.00    -0.273 N
ATOM      7  H5  UNL     1      53.500  15.282   7.277  1.00  0.00     0.173 HD
HETATM    8  C8  UNL     1      55.413  14.942   6.665  1.00  0.00     0.348 A
HETATM    9  O6  UNL     1      55.040  14.567   5.513  1.00  0.00    -0.245 OA
ENDROOT
BRANCH   1  10
HETATM   10  N2  UNL     1      57.746  14.607   6.165  1.00  0.00    -0.245 N
HETATM   11  C3  UNL     1      57.521  14.719   4.712  1.00  0.00     0.380 C
HETATM   12  N1  UNL     1      58.796  14.681   4.095  1.00  0.00    -0.038 N
HETATM   13  C2  UNL     1      59.499  13.737   4.908  1.00  0.00     0.355 C
ATOM     14  H12 UNL     1      59.252  15.588   3.995  1.00  0.00     0.280 HD
ATOM     15  H11 UNL     1      58.785  14.467   3.097  1.00  0.00     0.280 HD
HETATM   16  C9  UNL     1      59.047  14.111   6.358  1.00  0.00     0.279 C
BRANCH  13  17
HETATM   17  C1  UNL     1      59.135  12.333   4.607  1.00  0.00     0.210 C
HETATM   18  O1  UNL     1      60.009  11.424   4.564  1.00  0.00    -0.646 OA
HETATM   19  O2  UNL     1      57.824  11.959   4.361  1.00  0.00    -0.646 OA
ENDBRANCH  13  17
BRANCH  16  20
HETATM   20  O7  UNL     1      59.093  12.898   7.065  1.00  0.00    -0.359 OA
ATOM     21  H7  UNL     1      59.701  12.358   6.573  1.00  0.00     0.213 HD
ENDBRANCH  16  20
BRANCH  16  22
HETATM   22  C10 UNL     1      60.071  15.052   6.830  1.00  0.00     0.236 C
HETATM   23  O8  UNL     1      60.439  16.076   6.201  1.00  0.00    -0.644 OA
HETATM   24  O9  UNL     1      60.696  14.824   8.050  1.00  0.00    -0.644 OA
ENDBRANCH  16  22
ENDBRANCH   1  10
BRANCH   3  25
HETATM   25  C6  UNL     1      56.506  16.208  10.587  1.00  0.00     0.280 C
BRANCH  25  26
HETATM   26  O3  UNL     1      55.980  17.494  10.877  1.00  0.00    -0.371 OA
ATOM     27  H3  UNL     1      55.836  17.960  10.061  1.00  0.00     0.212 HD
ENDBRANCH  25  26
BRANCH  25  28
HETATM   28  N4  UNL     1      56.226  15.352  11.670  1.00  0.00    -0.272 N
ATOM     29  H4  UNL     1      55.556  14.588  11.581  1.00  0.00     0.190 HD
BRANCH  28  30
HETATM   30  O4  UNL     1      56.868  15.578  12.810  1.00  0.00    -0.292 OA
ATOM     31  H4  UNL     1      57.818  15.594  12.782  1.00  0.00     0.244 HD
ENDBRANCH  28  30
ENDBRANCH  25  28
ENDBRANCH   3  25
TORSDOF 8
ENDMDL