MODEL 5
REMARK VINA RESULT: -4.843429529      2.719      3.456
REMARK  10 active torsions:
REMARK  status: ('A' for Active; 'I' for Inactive)
REMARK    1  A    between atoms: N1_1  and  C1_5
REMARK    2  A    between atoms: C1_5  and  N2_6
REMARK    3  A    between atoms: C1_5  and  C2_10
REMARK    4  A    between atoms: C2_10  and  O1_11
REMARK    5  A    between atoms: C2_10  and  C3_13
REMARK    6  A    between atoms: C4_14  and  C5_15
REMARK    7  A    between atoms: C7_21  and  C8_22
REMARK    8  A    between atoms: C9_25  and  C10_26
REMARK    9  A    between atoms: C10_26  and  O7_27
REMARK   10  A    between atoms: C10_26  and  O8_29
ROOT
HETATM    1  C3  UNL     1      55.328  15.492   7.349  1.00  0.00     0.058 C
HETATM    2  C4  UNL     1      56.398  15.235   8.102  1.00  0.00     0.123 C
HETATM    3  N3  UNL     1      57.441  14.823   7.221  1.00  0.00    -0.329 N
HETATM    4  C6  UNL     1      57.125  15.372   5.887  1.00  0.00     0.301 C
HETATM    5  O4  UNL     1      57.756  14.565   4.992  1.00  0.00    -0.341 OA
HETATM    6  C7  UNL     1      58.408  13.548   5.634  1.00  0.00     0.253 C
HETATM    7  C9  UNL     1      58.647  14.107   7.031  1.00  0.00     0.182 C
HETATM    8  C11 UNL     1      55.640  15.264   5.926  1.00  0.00     0.209 C
HETATM    9  O9  UNL     1      54.877  15.038   4.991  1.00  0.00    -0.288 OA
ENDROOT
BRANCH   1  10
HETATM   10  C2  UNL     1      54.006  15.951   7.798  1.00  0.00     0.215 C
BRANCH  10  11
HETATM   11  C1  UNL     1      53.579  17.280   7.207  1.00  0.00     0.410 C
BRANCH  11  12
HETATM   12  N1  UNL     1      52.667  17.141   6.105  1.00  0.00    -0.048 N
ATOM     13  H13 UNL     1      52.965  16.409   5.459  1.00  0.00     0.276 HD
ATOM     14  H12 UNL     1      51.780  16.734   6.400  1.00  0.00     0.276 HD
ATOM     15  H11 UNL     1      52.532  18.032   5.627  1.00  0.00     0.276 HD
ENDBRANCH  11  12
BRANCH  11  16
HETATM   16  N2  UNL     1      53.062  18.180   8.188  1.00  0.00    -0.048 N
ATOM     17  H23 UNL     1      52.874  19.101   7.793  1.00  0.00     0.276 HD
ATOM     18  H22 UNL     1      52.111  17.932   8.462  1.00  0.00     0.276 HD
ATOM     19  H21 UNL     1      53.683  18.237   8.996  1.00  0.00     0.276 HD
ENDBRANCH  11  16
ENDBRANCH  10  11
BRANCH  10  20
HETATM   20  O1  UNL     1      52.993  15.039   7.429  1.00  0.00    -0.387 OA
ATOM     21  H1  UNL     1      52.342  15.560   6.974  1.00  0.00     0.210 HD
ENDBRANCH  10  20
ENDBRANCH   1  10
BRANCH   2  22
HETATM   22  C5  UNL     1      56.532  15.342   9.550  1.00  0.00     0.227 C
HETATM   23  O2  UNL     1      57.278  16.265  10.000  1.00  0.00    -0.643 OA
HETATM   24  O3  UNL     1      55.933  14.547  10.487  1.00  0.00    -0.643 OA
ENDBRANCH   2  22
BRANCH   7  25
HETATM   25  C10 UNL     1      59.799  15.069   7.077  1.00  0.00     0.279 C
BRANCH  25  26
HETATM   26  O7  UNL     1      60.967  14.573   7.586  1.00  0.00    -0.369 OA
ATOM     27  H7  UNL     1      61.030  13.626   7.628  1.00  0.00     0.212 HD
ENDBRANCH  25  26
BRANCH  25  28
HETATM   28  O8  UNL     1      59.426  16.197   7.778  1.00  0.00    -0.369 OA
ATOM     29  H8  UNL     1      59.642  16.970   7.270  1.00  0.00     0.212 HD
ENDBRANCH  25  28
ENDBRANCH   7  25
BRANCH   6  30
HETATM   30  C8  UNL     1      59.599  13.048   4.967  1.00  0.00     0.205 C
HETATM   31  O5  UNL     1      59.825  13.260   3.752  1.00  0.00    -0.646 OA
HETATM   32  O6  UNL     1      60.535  12.310   5.672  1.00  0.00    -0.646 OA
ENDBRANCH   6  30
TORSDOF 10
ENDMDL