MODEL 3
REMARK VINA RESULT: -4.844224690      5.183      8.855
REMARK  11 active torsions:
REMARK  status: ('A' for Active; 'I' for Inactive)
REMARK    1  A    between atoms: N1_1  and  N2_4
REMARK    2  A    between atoms: N2_4  and  N3_5
REMARK       I    between atoms: N3_5  and  C1_7
REMARK    3  A    between atoms: C1_7  and  O2_9
REMARK    4  A    between atoms: O2_9  and  C2_10
REMARK    5  A    between atoms: C4_12  and  N4_13
REMARK    6  A    between atoms: C5_17  and  N5_18
REMARK    7  A    between atoms: C7_23  and  N6_24
REMARK    8  A    between atoms: N6_24  and  C8_26
REMARK    9  A    between atoms: N8_32  and  C10_33
REMARK   10  A    between atoms: C10_33  and  C11_34
REMARK   11  A    between atoms: C11_34  and  O5_35
ROOT
HETATM    1  C2  UNL     1      58.728  17.329   8.453  1.00  0.00     0.159 C
HETATM    2  C3  UNL     1      59.272  18.606   7.888  1.00  0.00     0.069 C
HETATM    3  C4  UNL     1      58.186  19.654   7.997  1.00  0.00     0.216 C
HETATM    4  C5  UNL     1      58.066  19.950   9.479  1.00  0.00     0.216 C
HETATM    5  C6  UNL     1      57.567  18.730  10.171  1.00  0.00     0.063 C
HETATM    6  C7  UNL     1      58.217  17.441   9.862  1.00  0.00     0.131 C
ENDROOT
BRANCH   6   7
HETATM    7  N6  UNL     1      57.306  16.379  10.165  1.00  0.00    -0.217 N
ATOM      8  H6  UNL     1      57.640  15.714  10.862  1.00  0.00     0.178 HD
BRANCH   7   9
HETATM    9  C8  UNL     1      56.138  16.129   9.702  1.00  0.00     0.705 A
HETATM   10  N7  UNL     1      55.698  15.726   8.511  1.00  0.00    -0.086 N
HETATM   11  O3  UNL     1      54.409  15.607   8.557  1.00  0.00    -0.165 OA
ATOM     12  H7  UNL     1      56.281  15.540   7.695  1.00  0.00     0.214 HD
HETATM   13  C9  UNL     1      53.992  15.923   9.750  1.00  0.00     0.404 A
HETATM   14  O4  UNL     1      52.778  15.908  10.111  1.00  0.00    -0.235 OA
HETATM   15  N8  UNL     1      55.029  16.257  10.507  1.00  0.00    -0.121 N
BRANCH  15  16
HETATM   16  C10 UNL     1      55.025  16.682  11.911  1.00  0.00     0.179 C
BRANCH  16  17
HETATM   17  C11 UNL     1      55.388  15.427  12.722  1.00  0.00     0.185 C
BRANCH  17  18
HETATM   18  O5  UNL     1      56.764  15.379  12.929  1.00  0.00    -0.399 OA
ATOM     19  H5  UNL     1      57.002  14.550  13.328  1.00  0.00     0.209 HD
ENDBRANCH  17  18
ENDBRANCH  16  17
ENDBRANCH  15  16
ENDBRANCH   7   9
ENDBRANCH   6   7
BRANCH   1  20
HETATM   20  O2  UNL     1      59.668  16.266   8.331  1.00  0.00    -0.295 OA
BRANCH  20  21
HETATM   21  C1  UNL     1      59.419  15.170   7.545  1.00  0.00     0.378 C
HETATM   22  N3  UNL     1      60.244  14.846   6.401  1.00  0.00    -0.230 N
ATOM     23  H3  UNL     1      61.030  15.458   6.181  1.00  0.00     0.189 HD
HETATM   24  O1  UNL     1      58.441  14.449   7.858  1.00  0.00    -0.237 OA
BRANCH  22  25
HETATM   25  N2  UNL     1      60.020  13.750   5.593  1.00  0.00    -0.025 NA
BRANCH  25  26
HETATM   26  N1  UNL     1      60.470  12.590   6.257  1.00  0.00    -0.329 N
ATOM     27  H12 UNL     1      61.267  12.558   6.892  1.00  0.00     0.174 HD
ATOM     28  H11 UNL     1      59.872  11.806   5.998  1.00  0.00     0.174 HD
ENDBRANCH  25  26
ENDBRANCH  22  25
ENDBRANCH  20  21
ENDBRANCH   1  20
BRANCH   4  29
HETATM   29  N5  UNL     1      57.040  20.986   9.619  1.00  0.00    -0.073 N
ATOM     30  H53 UNL     1      57.414  21.933   9.567  1.00  0.00     0.274 HD
ATOM     31  H52 UNL     1      56.419  21.049   8.812  1.00  0.00     0.274 HD
ATOM     32  H51 UNL     1      56.547  20.794  10.492  1.00  0.00     0.274 HD
ENDBRANCH   4  29
BRANCH   3  33
HETATM   33  N4  UNL     1      58.515  20.847   7.241  1.00  0.00    -0.073 N
ATOM     34  H43 UNL     1      59.167  20.640   6.484  1.00  0.00     0.274 HD
ATOM     35  H42 UNL     1      57.722  21.165   6.685  1.00  0.00     0.274 HD
ATOM     36  H41 UNL     1      58.870  21.589   7.844  1.00  0.00     0.274 HD
ENDBRANCH   3  33
TORSDOF 11
ENDMDL