MODEL 1
REMARK VINA RESULT: -5.257676384      0.000      0.000
REMARK  2 active torsions:
REMARK  status: ('A' for Active; 'I' for Inactive)
REMARK    1  A    between atoms: C2_2  and  N1_4
REMARK       I    between atoms: N1_4  and  C4_6
REMARK       I    between atoms: C4_6  and  N2_8
REMARK    2  A    between atoms: N2_8  and  C5_10
ROOT
HETATM    1  C5  UNL     1      11.243  -7.699 -10.352  1.00  0.00     0.038 C
HETATM    2  C6  UNL     1      11.703  -7.737  -8.914  1.00  0.00     0.036 C
HETATM    3  C7  UNL     1      12.971  -8.543  -8.817  1.00  0.00    -0.009 C
HETATM    4  C8  UNL     1      14.072  -8.034  -9.686  1.00  0.00     0.009 C
HETATM    5  C9  UNL     1      13.567  -7.998 -11.130  1.00  0.00    -0.009 C
HETATM    6  C10 UNL     1      13.293  -9.400 -11.567  1.00  0.00     0.048 C
HETATM    7  C11 UNL     1      12.252  -9.984 -10.646  1.00  0.00     0.106 C
HETATM    8  F1  UNL     1      11.957 -11.256 -11.056  1.00  0.00    -0.243 F
HETATM    9  C12 UNL     1      12.690  -9.974  -9.198  1.00  0.00     0.048 C
HETATM   10  C13 UNL     1      11.013  -9.157 -10.757  1.00  0.00     0.074 C
HETATM   11  C14 UNL     1      12.371  -7.095 -11.174  1.00  0.00     0.036 C
ENDROOT
BRANCH   1  12
HETATM   12  N2  UNL     1       9.999  -6.993 -10.530  1.00  0.00    -0.334 N
HETATM   13  C4  UNL     1       9.852  -5.593 -10.485  1.00  0.00     0.317 C
HETATM   14  N1  UNL     1       8.589  -4.991 -10.669  1.00  0.00    -0.339 N
HETATM   15  O1  UNL     1      10.858  -4.884 -10.278  1.00  0.00    -0.247 OA
ATOM     16  H1  UNL     1       7.774  -5.581 -10.837  1.00  0.00     0.164 HD
ATOM     17  H2  UNL     1       9.162  -7.550 -10.702  1.00  0.00     0.165 HD
BRANCH  14  18
HETATM   18  C2  UNL     1       8.426  -3.547 -10.625  1.00  0.00     0.078 C
HETATM   19  C1  UNL     1       7.695  -3.119  -9.396  1.00  0.00     0.032 C
HETATM   20  C3  UNL     1       7.627  -3.164 -11.854  1.00  0.00     0.032 C
ENDBRANCH  14  18
ENDBRANCH   1  12
TORSDOF 2
ENDMDL