MODEL 5
REMARK VINA RESULT: -4.656873554      2.938      3.980
REMARK  1 active torsions:
REMARK  status: ('A' for Active; 'I' for Inactive)
REMARK    1  A    between atoms: C5_6  and  C6_7
ROOT
HETATM    1  C1  UNL     1      11.754  -9.484 -11.278  1.00  0.00     0.017 C
HETATM    2  C2  UNL     1      11.365  -8.131 -10.800  1.00  0.00    -0.024 C
HETATM    3  C3  UNL     1      11.594  -7.936  -9.349  1.00  0.00     0.068 C
HETATM    4 BR1  UNL     1      13.429  -8.377  -8.949  1.00  0.00    -0.090 Br
HETATM    5  C4  UNL     1      11.292  -6.546  -8.841  1.00  0.00     0.033 C
HETATM    6  C5  UNL     1      10.725  -5.742  -9.984  1.00  0.00     0.017 C
HETATM    7  C7  UNL     1       9.536  -6.447 -10.604  1.00  0.00     0.022 C
HETATM    8  C8  UNL     1      10.001  -7.694 -11.288  1.00  0.00    -0.003 C
HETATM    9  C9  UNL     1      10.723  -7.235 -12.566  1.00  0.00     0.011 C
HETATM   10  C10 UNL     1      11.942  -7.032 -11.664  1.00  0.00    -0.003 C
HETATM   11  C11 UNL     1      11.814  -5.680 -11.044  1.00  0.00     0.022 C
ENDROOT
BRANCH   6  12
HETATM   12  C6  UNL     1      10.353  -4.403  -9.505  1.00  0.00     0.095 C
HETATM   13  N1  UNL     1      11.249  -3.589  -9.094  1.00  0.00    -0.390 N
ATOM     14  H12 UNL     1      12.211  -3.927  -9.117  1.00  0.00     0.157 HD
ATOM     15  H11 UNL     1      10.991  -2.659  -8.761  1.00  0.00     0.157 HD
HETATM   16  N2  UNL     1       9.015  -3.932  -9.472  1.00  0.00    -0.087 NA
ENDBRANCH   6  12
TORSDOF 1
ENDMDL