MODEL 4
REMARK VINA RESULT: -4.454147064      1.227      2.221
REMARK  4 active torsions:
REMARK  status: ('A' for Active; 'I' for Inactive)
REMARK    1  A    between atoms: C2_2  and  N1_4
REMARK    2  A    between atoms: N1_4  and  C4_6
REMARK    3  A    between atoms: C4_6  and  N2_8
REMARK    4  A    between atoms: N2_8  and  C5_10
ROOT
HETATM    1  C5  UNL     1       9.556  -6.074 -11.138  1.00  0.00     0.084 C
HETATM    2  C6  UNL     1       9.512  -7.368 -10.390  1.00  0.00     0.032 C
HETATM    3  C7  UNL     1      10.876  -7.935 -10.113  1.00  0.00     0.022 C
HETATM    4  C8  UNL     1      11.746  -7.907 -11.379  1.00  0.00     0.008 C
HETATM    5  C9  UNL     1      12.515  -6.611 -11.343  1.00  0.00     0.008 C
HETATM    6  C10 UNL     1      11.876  -5.861 -10.198  1.00  0.00     0.022 C
HETATM    7  C11 UNL     1      10.659  -5.164 -10.733  1.00  0.00     0.032 C
HETATM    8  C12 UNL     1      11.626  -6.962  -9.232  1.00  0.00     0.178 C
HETATM    9  F1  UNL     1      11.063  -6.663  -8.055  1.00  0.00    -0.249 F
ENDROOT
BRANCH   1  10
HETATM   10  N2  UNL     1       8.301  -5.387 -11.278  1.00  0.00    -0.363 N
ATOM     11  H2  UNL     1       7.541  -5.748 -10.702  1.00  0.00     0.162 HD
BRANCH  10  12
HETATM   12  C4  UNL     1       7.970  -4.303 -12.082  1.00  0.00     0.168 C
HETATM   13  S1  UNL     1       7.960  -4.514 -13.726  1.00  0.00    -0.041 SA
BRANCH  12  14
HETATM   14  N1  UNL     1       7.635  -3.025 -11.616  1.00  0.00    -0.363 N
ATOM     15  H1  UNL     1       7.854  -2.207 -12.184  1.00  0.00     0.162 HD
BRANCH  14  16
HETATM   16  C2  UNL     1       6.975  -2.849 -10.322  1.00  0.00     0.075 C
HETATM   17  C1  UNL     1       7.997  -2.868  -9.216  1.00  0.00     0.032 C
HETATM   18  C3  UNL     1       6.191  -1.555 -10.269  1.00  0.00     0.032 C
ENDBRANCH  14  16
ENDBRANCH  12  14
ENDBRANCH  10  12
ENDBRANCH   1  10
TORSDOF 4
ENDMDL