MODEL 5
REMARK VINA RESULT: -5.006061127      1.719      2.631
REMARK  1 active torsions:
REMARK  status: ('A' for Active; 'I' for Inactive)
REMARK    1  A    between atoms: C3_8  and  C4_9
ROOT
HETATM    1  N1  UNL     1       9.538  -3.938 -12.663  1.00  0.00    -0.388 N
ATOM      2  H11 UNL     1      10.207  -3.336 -13.141  1.00  0.00     0.157 HD
ATOM      3  H12 UNL     1       8.636  -3.647 -13.041  1.00  0.00     0.157 HD
HETATM    4  C1  UNL     1       9.673  -4.857 -11.792  1.00  0.00     0.089 C
HETATM    5  N2  UNL     1       8.741  -5.696 -11.124  1.00  0.00    -0.378 N
ATOM      6  H2  UNL     1       7.731  -5.551 -11.113  1.00  0.00     0.160 HD
HETATM    7  C2  UNL     1       9.429  -6.791 -10.459  1.00  0.00     0.128 C
HETATM    8  C3  UNL     1      10.764  -6.751 -11.163  1.00  0.00     0.038 C
HETATM    9  C14 UNL     1      11.011  -5.288 -11.231  1.00  0.00     0.155 C
HETATM   10 CL1  UNL     1      11.020  -4.519  -9.605  1.00  0.00    -0.116 Cl
ENDROOT
BRANCH   8  11
HETATM   11  C4  UNL     1      11.797  -7.632 -10.639  1.00  0.00    -0.032 C
HETATM   12  C5  UNL     1      11.457  -9.056 -11.108  1.00  0.00     0.014 C
HETATM   13  C6  UNL     1      12.574 -10.010 -10.848  1.00  0.00    -0.013 C
HETATM   14  C7  UNL     1      13.817  -9.521 -11.539  1.00  0.00     0.009 C
HETATM   15  C11 UNL     1      12.760 -10.076  -9.332  1.00  0.00     0.009 C
HETATM   16  C8  UNL     1      14.226  -8.184 -10.944  1.00  0.00    -0.013 C
HETATM   17  C9  UNL     1      14.397  -8.281  -9.458  1.00  0.00     0.009 C
HETATM   18  C13 UNL     1      13.137  -7.204 -11.253  1.00  0.00     0.014 C
HETATM   19  C10 UNL     1      13.079  -8.708  -8.845  1.00  0.00    -0.013 C
HETATM   20  C12 UNL     1      11.986  -7.689  -9.170  1.00  0.00     0.014 C
ENDBRANCH   8  11
TORSDOF 1
ENDMDL