MODEL 4
REMARK VINA RESULT: -4.666613582      2.792      4.494
REMARK  2 active torsions:
REMARK  status: ('A' for Active; 'I' for Inactive)
REMARK    1  A    between atoms: C1_2  and  N2_4
REMARK    2  A    between atoms: N2_4  and  C2_6
ROOT
HETATM    1  C2  UNL     1      10.983  -7.469 -10.549  1.00  0.00     0.063 C
HETATM    2  C3  UNL     1      11.658  -6.812 -11.723  1.00  0.00     0.038 C
HETATM    3  C4  UNL     1      11.588  -5.323 -11.750  1.00  0.00    -0.011 C
HETATM    4  C5  UNL     1      10.233  -4.869 -12.245  1.00  0.00     0.009 C
HETATM    5  C6  UNL     1       9.150  -5.263 -11.260  1.00  0.00    -0.011 C
HETATM    6  C7  UNL     1       9.491  -4.980  -9.841  1.00  0.00     0.009 C
HETATM    7  C8  UNL     1      10.898  -5.205  -9.437  1.00  0.00    -0.011 C
HETATM    8  C9  UNL     1      11.857  -4.629 -10.461  1.00  0.00     0.009 C
HETATM    9  C10 UNL     1      11.211  -6.644  -9.285  1.00  0.00     0.038 C
HETATM   10  C11 UNL     1       8.797  -6.695 -11.526  1.00  0.00     0.044 C
HETATM   11  C12 UNL     1       9.530  -7.685 -10.676  1.00  0.00     0.198 C
HETATM   12  F1  UNL     1       9.133  -8.937 -11.096  1.00  0.00    -0.247 F
ENDROOT
BRANCH   1  13
HETATM   13  N2  UNL     1      11.682  -8.731 -10.304  1.00  0.00    -0.357 N
ATOM     14  H2  UNL     1      11.437  -9.518 -10.905  1.00  0.00     0.162 HD
BRANCH  13  15
HETATM   15  C1  UNL     1      12.655  -8.961  -9.322  1.00  0.00     0.181 C
HETATM   16  N1  UNL     1      12.492  -9.563  -8.065  1.00  0.00    -0.070 NA
HETATM   17  S1  UNL     1      14.205  -8.468  -9.662  1.00  0.00    -0.044 SA
ENDBRANCH  13  15
ENDBRANCH   1  13
TORSDOF 2
ENDMDL