MODEL 1
REMARK VINA RESULT: -5.148681669      0.000      0.000
REMARK  1 active torsions:
REMARK  status: ('A' for Active; 'I' for Inactive)
REMARK       I    between atoms: N1_2  and  C2_4
REMARK       I    between atoms: C2_4  and  N3_8
REMARK    1  A    between atoms: N3_8  and  C3_10
ROOT
HETATM    1  C3  UNL     1       9.905  -4.840 -10.774  1.00  0.00     0.050 C
HETATM    2  C4  UNL     1       8.801  -5.787 -11.192  1.00  0.00     0.036 C
HETATM    3  C5  UNL     1       9.290  -7.180 -11.432  1.00  0.00    -0.010 C
HETATM    4  C6  UNL     1      10.305  -7.128 -12.555  1.00  0.00     0.009 C
HETATM    5  C7  UNL     1      11.438  -6.260 -12.110  1.00  0.00    -0.010 C
HETATM    6  C8  UNL     1      12.112  -6.744 -10.860  1.00  0.00     0.030 C
HETATM    7  C9  UNL     1      11.041  -6.784  -9.763  1.00  0.00     0.040 C
HETATM    8 CL1  UNL     1      11.762  -7.439  -8.276  1.00  0.00    -0.119 Cl
HETATM    9  C10 UNL     1       9.991  -7.757 -10.225  1.00  0.00     0.030 C
HETATM   10  C11 UNL     1      10.498  -5.409  -9.494  1.00  0.00     0.057 C
HETATM   11  C12 UNL     1      10.946  -4.860 -11.868  1.00  0.00     0.036 C
ENDROOT
BRANCH   1  12
HETATM   12  N3  UNL     1       9.367  -3.529 -10.583  1.00  0.00    -0.217 N
HETATM   13  C2  UNL     1       8.108  -3.242 -10.008  1.00  0.00     0.667 C
HETATM   14  N1  UNL     1       7.050  -2.687 -10.774  1.00  0.00    -0.231 N
HETATM   15  N2  UNL     1       7.887  -3.480  -8.762  1.00  0.00    -0.235 N
HETATM   16  C1  UNL     1       6.219  -1.588 -10.294  1.00  0.00     0.165 C
ATOM     17  H1  UNL     1       6.863  -3.073 -11.700  1.00  0.00     0.177 HD
ATOM     18  H22 UNL     1       6.978  -3.273  -8.347  1.00  0.00     0.174 HD
ATOM     19  H21 UNL     1       8.647  -3.879  -8.212  1.00  0.00     0.174 HD
ATOM     20  H3  UNL     1       9.936  -2.738 -10.886  1.00  0.00     0.178 HD
ENDBRANCH   1  12
TORSDOF 1
ENDMDL