MODEL 3
REMARK VINA RESULT: -4.851503916      3.581      5.616
REMARK  2 active torsions:
REMARK  status: ('A' for Active; 'I' for Inactive)
REMARK    1  A    between atoms: C2_2  and  C3_3
REMARK    2  A    between atoms: C11_11  and  N1_12
REMARK       I    between atoms: N1_12  and  C12_14
ROOT
HETATM    1  C3  UNL     1       9.075  -4.870 -10.529  1.00  0.00     0.017 C
HETATM    2  C4  UNL     1       8.233  -4.732 -11.807  1.00  0.00    -0.007 C
HETATM    3  C5  UNL     1       9.020  -4.006 -12.842  1.00  0.00     0.010 C
HETATM    4  C6  UNL     1      10.267  -4.818 -13.128  1.00  0.00    -0.012 C
HETATM    5  C7  UNL     1       9.821  -6.155 -13.687  1.00  0.00     0.009 C
HETATM    6  C8  UNL     1       9.083  -6.860 -12.585  1.00  0.00    -0.012 C
HETATM    7  C9  UNL     1       7.812  -6.081 -12.289  1.00  0.00     0.010 C
HETATM    8  C10 UNL     1       9.938  -6.971 -11.378  1.00  0.00     0.036 C
HETATM    9  C11 UNL     1      10.352  -5.580 -10.813  1.00  0.00     0.037 C
HETATM   10  C14 UNL     1      11.155  -4.961 -11.911  1.00  0.00     0.036 C
ENDROOT
BRANCH   9  11
HETATM   11  N1  UNL     1      11.044  -5.924  -9.622  1.00  0.00    -0.355 N
HETATM   12  C12 UNL     1      11.912  -7.041  -9.464  1.00  0.00     0.184 C
HETATM   13  N2  UNL     1      13.032  -7.275 -10.288  1.00  0.00    -0.064 NA
HETATM   14  N3  UNL     1      11.688  -7.893  -8.534  1.00  0.00    -0.369 N
HETATM   15  C13 UNL     1      12.563  -9.024  -8.369  1.00  0.00     0.148 C
ATOM     16  H3  UNL     1      10.890  -7.769  -7.910  1.00  0.00     0.161 HD
ATOM     17  H1  UNL     1      10.907  -5.321  -8.811  1.00  0.00     0.163 HD
ENDBRANCH   9  11
BRANCH   1  18
HETATM   18  C2  UNL     1       9.141  -3.521  -9.926  1.00  0.00     0.003 C
HETATM   19  C1  UNL     1       7.869  -2.911  -9.430  1.00  0.00     0.005 C
ENDBRANCH   1  18
TORSDOF 2
ENDMDL