MODEL 3
REMARK VINA RESULT: -4.340479023      2.635      3.385
REMARK  2 active torsions:
REMARK  status: ('A' for Active; 'I' for Inactive)
REMARK    1  A    between atoms: C4_6  and  N1_7
REMARK    2  A    between atoms: N1_7  and  C5_9
ROOT
HETATM    1  C1  UNL     1       7.287  -2.542  -9.622  1.00  0.00     0.077 C
HETATM    2  C2  UNL     1       8.352  -3.522 -10.000  1.00  0.00     0.059 A
HETATM    3  O1  UNL     1       9.153  -4.169  -9.186  1.00  0.00    -0.305 OA
HETATM    4  C3  UNL     1       9.971  -4.955  -9.883  1.00  0.00     0.149 A
HETATM    5 BR1  UNL     1      11.331  -6.111  -9.204  1.00  0.00    -0.021 Br
HETATM    6  C4  UNL     1       9.698  -4.820 -11.221  1.00  0.00     0.084 A
HETATM    7  C6  UNL     1       8.672  -3.913 -11.307  1.00  0.00    -0.003 A
HETATM    8  C7  UNL     1       8.005  -3.419 -12.539  1.00  0.00     0.053 C
ENDROOT
BRANCH   6   9
HETATM    9  N1  UNL     1      10.325  -5.469 -12.307  1.00  0.00    -0.332 N
ATOM     10  H1  UNL     1       9.980  -6.389 -12.581  1.00  0.00     0.168 HD
BRANCH   9  11
HETATM   11  C5  UNL     1      11.400  -4.919 -13.036  1.00  0.00     0.185 C
HETATM   12  N2  UNL     1      11.166  -4.052 -14.115  1.00  0.00    -0.070 NA
HETATM   13  S1  UNL     1      12.922  -5.290 -12.622  1.00  0.00    -0.044 SA
ENDBRANCH   9  11
ENDBRANCH   6   9
TORSDOF 2
ENDMDL