MODEL 3
REMARK VINA RESULT: -4.555383982      1.672      2.694
REMARK  3 active torsions:
REMARK  status: ('A' for Active; 'I' for Inactive)
REMARK    1  A    between atoms: C1_2  and  N1_3
REMARK    2  A    between atoms: C1_2  and  N2_6
REMARK    3  A    between atoms: N2_6  and  C2_8
ROOT
HETATM    1  C2  UNL     1       9.237  -5.632 -10.595  1.00  0.00     0.092 C
HETATM    2  C3  UNL     1       9.609  -7.068 -10.923  1.00  0.00     0.009 C
HETATM    3  C4  UNL     1      10.387  -7.599  -9.741  1.00  0.00     0.011 C
HETATM    4  C5  UNL     1      11.664  -6.801  -9.621  1.00  0.00    -0.013 C
HETATM    5  C6  UNL     1      12.493  -6.952 -10.865  1.00  0.00     0.009 C
HETATM    6  C7  UNL     1      11.719  -6.434 -12.040  1.00  0.00    -0.013 C
HETATM    7  C8  UNL     1      10.410  -7.233 -12.162  1.00  0.00     0.011 C
HETATM    8  C9  UNL     1      11.306  -5.007 -11.907  1.00  0.00     0.011 C
HETATM    9  C10 UNL     1      10.524  -4.836 -10.624  1.00  0.00     0.009 C
HETATM   10  C11 UNL     1      11.347  -5.341  -9.441  1.00  0.00     0.011 C
ENDROOT
BRANCH   1  11
HETATM   11  N2  UNL     1       8.204  -5.139 -11.433  1.00  0.00    -0.361 N
ATOM     12  H2  UNL     1       7.749  -5.788 -12.076  1.00  0.00     0.162 HD
BRANCH  11  13
HETATM   13  C1  UNL     1       7.775  -3.787 -11.421  1.00  0.00     0.182 C
HETATM   14  S1  UNL     1       7.252  -3.053 -10.045  1.00  0.00    -0.040 SA
BRANCH  13  15
HETATM   15  N1  UNL     1       7.754  -2.995 -12.597  1.00  0.00    -0.275 N
HETATM   16 CL1  UNL     1       9.049  -3.020 -13.728  1.00  0.00     0.013 Cl
ATOM     17  H1  UNL     1       6.949  -2.394 -12.777  1.00  0.00     0.183 HD
ENDBRANCH  13  15
ENDBRANCH  11  13
ENDBRANCH   1  11
TORSDOF 3
ENDMDL