MODEL 2
REMARK VINA RESULT: -5.858863980      0.956      1.479
REMARK  2 active torsions:
REMARK  status: ('A' for Active; 'I' for Inactive)
REMARK       I    between atoms: C2_4  and  N3_6
REMARK    1  A    between atoms: N3_6  and  C3_8
REMARK    2  A    between atoms: C3_8  and  C4_9
ROOT
HETATM    1  C4  UNL     1      10.907  -5.670 -10.729  1.00  0.00     0.058 C
HETATM    2  C5  UNL     1      12.151  -5.130 -11.324  1.00  0.00     0.013 C
HETATM    3  C6  UNL     1      12.694  -6.035 -12.441  1.00  0.00     0.001 C
HETATM    4  C7  UNL     1      13.825  -6.911 -11.872  1.00  0.00     0.000 C
HETATM    5  C8  UNL     1      13.388  -8.312 -11.709  1.00  0.00     0.000 C
HETATM    6  C9  UNL     1      13.701  -9.034 -10.475  1.00  0.00     0.000 C
HETATM    7  C10 UNL     1      13.641  -8.327  -9.167  1.00  0.00     0.000 C
HETATM    8  C11 UNL     1      12.445  -8.582  -8.327  1.00  0.00     0.000 C
HETATM    9  C12 UNL     1      11.311  -7.632  -8.417  1.00  0.00     0.003 C
HETATM   10  C13 UNL     1      11.618  -6.191  -8.380  1.00  0.00     0.038 C
HETATM   11  C14 UNL     1      10.742  -5.326  -9.262  1.00  0.00     0.179 C
HETATM   12  F1  UNL     1      11.226  -4.041  -9.090  1.00  0.00    -0.249 F
ENDROOT
BRANCH   1  13
HETATM   13  C3  UNL     1       9.632  -5.410 -11.461  1.00  0.00     0.071 C
BRANCH  13  14
HETATM   14  N3  UNL     1       9.378  -4.134 -11.999  1.00  0.00    -0.344 N
HETATM   15  C2  UNL     1       8.143  -3.490 -12.109  1.00  0.00     0.187 C
HETATM   16  N1  UNL     1       7.694  -2.811 -13.087  1.00  0.00    -0.369 N
HETATM   17  N2  UNL     1       7.250  -3.583 -10.973  1.00  0.00    -0.064 NA
HETATM   18  C1  UNL     1       8.449  -2.618 -14.286  1.00  0.00     0.148 C
ATOM     19  H1  UNL     1       6.767  -2.391 -13.014  1.00  0.00     0.161 HD
ATOM     20  H3  UNL     1      10.188  -3.621 -12.347  1.00  0.00     0.167 HD
ENDBRANCH  13  14
ENDBRANCH   1  13
TORSDOF 2
ENDMDL