MODEL 3
REMARK VINA RESULT: -4.416400616      2.376      4.873
REMARK  5 active torsions:
REMARK  status: ('A' for Active; 'I' for Inactive)
REMARK    1  A    between atoms: C6_6  and  O1_7
REMARK    2  A    between atoms: C6_6  and  N1_9
REMARK    3  A    between atoms: C13_16  and  C14_17
REMARK    4  A    between atoms: C13_16  and  C15_20
REMARK    5  A    between atoms: C14_17  and  O2_18
ROOT
HETATM    1  C1  UNL     1      10.656  -8.218 -11.322  1.00  0.00     0.024 C
HETATM    2  C2  UNL     1      11.422  -6.885 -11.273  1.00  0.00     0.027 C
HETATM    3  C3  UNL     1      12.155  -6.772 -10.005  1.00  0.00     0.017 C
HETATM    4  C4  UNL     1      11.253  -6.087  -9.003  1.00  0.00     0.006 C
HETATM    5  C5  UNL     1      11.054  -4.690  -9.521  1.00  0.00     0.072 C
HETATM    6  C6  UNL     1      10.253  -4.681 -10.828  1.00  0.00     0.264 C
HETATM    7  C12 UNL     1      10.669  -5.693 -11.770  1.00  0.00     0.086 C
HETATM    8  C13 UNL     1      11.779  -5.512 -12.765  1.00  0.00     0.064 C
HETATM    9  C16 UNL     1      12.322  -6.867 -12.481  1.00  0.00     0.148 C
HETATM   10  O3  UNL     1      13.120  -7.637 -12.969  1.00  0.00    -0.296 OA
ENDROOT
BRANCH   6  11
HETATM   11  O1  UNL     1      10.395  -3.398 -11.346  1.00  0.00    -0.362 OA
ATOM     12  H1  UNL     1      11.331  -3.253 -11.420  1.00  0.00     0.212 HD
ENDBRANCH   6  11
BRANCH   6  13
HETATM   13  N1  UNL     1       8.847  -4.711 -10.400  1.00  0.00     0.123 N
HETATM   14  C7  UNL     1       8.500  -3.482  -9.726  1.00  0.00     0.276 C
HETATM   15  C8  UNL     1       7.135  -2.939 -10.075  1.00  0.00     0.030 C
HETATM   16  C9  UNL     1       7.112  -2.712 -11.554  1.00  0.00     0.003 C
HETATM   17  C10 UNL     1       7.357  -4.006 -12.238  1.00  0.00     0.030 C
HETATM   18  C11 UNL     1       7.871  -5.097 -11.318  1.00  0.00     0.276 C
ENDBRANCH   6  13
BRANCH   8  19
HETATM   19  C14 UNL     1      11.232  -5.494 -14.202  1.00  0.00     0.183 C
BRANCH  19  20
HETATM   20  O2  UNL     1      10.401  -4.473 -14.482  1.00  0.00    -0.400 OA
ATOM     21  H2  UNL     1       9.745  -4.659 -15.143  1.00  0.00     0.209 HD
ENDBRANCH  19  20
ENDBRANCH   8  19
BRANCH   8  22
HETATM   22  C15 UNL     1      12.787  -4.468 -12.555  1.00  0.00     0.134 C
HETATM   23 CL1  UNL     1      13.664  -4.171 -14.089  1.00  0.00    -0.129 Cl
ENDBRANCH   8  22
TORSDOF 5
ENDMDL