MODEL 4
REMARK VINA RESULT: -6.031520032      4.619      7.794
REMARK  3 active torsions:
REMARK  status: ('A' for Active; 'I' for Inactive)
REMARK    1  A    between atoms: C6_6  and  C7_7
REMARK    2  A    between atoms: C9_11  and  N2_12
REMARK    3  A    between atoms: N2_12  and  N3_14
ROOT
HETATM    1  C7  UNL     1      13.663  -7.802 -11.472  1.00  0.00     0.045 C
HETATM    2  C8  UNL     1      15.083  -7.744 -11.307  1.00  0.00     0.061 A
HETATM    3  N1  UNL     1      15.668  -8.678 -10.473  1.00  0.00    -0.190 N
ATOM      4  H1  UNL     1      15.059  -9.339  -9.991  1.00  0.00     0.184 HD
HETATM    5  C9  UNL     1      16.984  -8.770 -10.260  1.00  0.00     0.700 A
HETATM    6  N4  UNL     1      17.839  -7.917 -10.875  1.00  0.00    -0.154 N
ATOM      7  H4  UNL     1      18.845  -7.977 -10.719  1.00  0.00     0.187 HD
HETATM    8  C12 UNL     1      17.321  -6.994 -11.693  1.00  0.00     0.267 A
HETATM    9  O1  UNL     1      18.083  -6.192 -12.276  1.00  0.00    -0.267 OA
HETATM   10  C13 UNL     1      15.933  -6.885 -11.929  1.00  0.00     0.034 A
HETATM   11  C14 UNL     1      15.414  -5.865 -12.819  1.00  0.00     0.056 C
ENDROOT
BRANCH   1  12
HETATM   12  C6  UNL     1      12.722  -6.831 -11.033  1.00  0.00     0.011 A
HETATM   13  C4  UNL     1      12.303  -6.747  -9.731  1.00  0.00    -0.048 A
HETATM   14  C3  UNL     1      11.356  -5.836  -9.289  1.00  0.00     0.014 A
HETATM   15  C5  UNL     1      12.838  -7.664  -8.661  1.00  0.00     0.049 C
HETATM   16  C2  UNL     1      10.798  -4.967 -10.176  1.00  0.00    -0.059 A
HETATM   17  C1  UNL     1       9.761  -3.970  -9.687  1.00  0.00     0.048 C
HETATM   18  C16 UNL     1      11.169  -5.001 -11.484  1.00  0.00     0.049 A
HETATM   19  C15 UNL     1      12.113  -5.924 -11.879  1.00  0.00     0.127 A
HETATM   20  F1  UNL     1      12.378  -5.921 -13.219  1.00  0.00    -0.205 F
ENDBRANCH   1  12
BRANCH   5  21
HETATM   21  N2  UNL     1      17.507  -9.649  -9.478  1.00  0.00    -0.135 N
ATOM     22  H2  UNL     1      17.619  -9.398  -8.496  1.00  0.00     0.205 HD
BRANCH  21  23
HETATM   23  N3  UNL     1      17.927 -10.898  -9.863  1.00  0.00    -0.322 N
HETATM   24  C10 UNL     1      19.077 -11.489  -9.179  1.00  0.00     0.171 C
HETATM   25  C11 UNL     1      17.310 -11.691 -10.911  1.00  0.00     0.171 C
ENDBRANCH  21  23
ENDBRANCH   5  21
TORSDOF 3
ENDMDL