MODEL 4
REMARK VINA RESULT: -5.488891646      1.164      1.724
REMARK  4 active torsions:
REMARK  status: ('A' for Active; 'I' for Inactive)
REMARK    1  A    between atoms: N2_7  and  C5_9
REMARK    2  A    between atoms: C5_9  and  C6_10
REMARK    3  A    between atoms: C6_10  and  N3_13
REMARK    4  A    between atoms: N3_13  and  C9_16
ROOT
HETATM    1  C9  UNL     1      11.310  -6.785  -9.166  1.00  0.00     0.288 C
HETATM    2  C10 UNL     1      11.285  -5.883  -7.959  1.00  0.00     0.056 C
HETATM    3  C11 UNL     1      12.069  -8.000  -8.764  1.00  0.00     0.092 C
HETATM    4  N4  UNL     1      12.640  -8.948  -8.440  1.00  0.00    -0.195 NA
ENDROOT
BRANCH   1   5
HETATM    5  N3  UNL     1      11.916  -6.249 -10.328  1.00  0.00    -0.049 N
ATOM      6  H32 UNL     1      12.853  -6.632 -10.449  1.00  0.00     0.279 HD
ATOM      7  H31 UNL     1      12.145  -5.265 -10.186  1.00  0.00     0.279 HD
BRANCH   5   8
HETATM    8  C6  UNL     1      11.155  -6.414 -11.519  1.00  0.00     0.136 C
HETATM    9  C7  UNL     1      11.866  -7.051 -12.669  1.00  0.00     0.048 C
HETATM   10  C8  UNL     1       9.825  -7.076 -11.236  1.00  0.00     0.048 C
BRANCH   8  11
HETATM   11  C5  UNL     1      10.760  -4.998 -12.045  1.00  0.00     0.159 C
BRANCH  11  12
HETATM   12  N2  UNL     1      10.083  -4.349 -10.991  1.00  0.00    -0.373 N
HETATM   13  C4  UNL     1       9.097  -3.579 -10.921  1.00  0.00     0.118 A
HETATM   14  N1  UNL     1       8.728  -3.145  -9.673  1.00  0.00    -0.351 N
HETATM   15  C12 UNL     1       8.404  -3.176 -12.030  1.00  0.00     0.055 A
HETATM   16  C3  UNL     1       7.695  -2.323  -9.491  1.00  0.00     0.096 A
ATOM     17  H1  UNL     1       9.260  -3.461  -8.861  1.00  0.00     0.166 HD
HETATM   18  C2  UNL     1       6.984  -1.903 -10.593  1.00  0.00    -0.045 A
HETATM   19  C1  UNL     1       5.834  -0.986 -10.397  1.00  0.00     0.049 C
HETATM   20  C13 UNL     1       7.321  -2.315 -11.860  1.00  0.00     0.031 A
HETATM   21 BR1  UNL     1       8.809  -3.701 -13.819  1.00  0.00    -0.047 Br
ATOM     22  H2  UNL     1      10.489  -4.554 -10.079  1.00  0.00     0.161 HD
ENDBRANCH  11  12
ENDBRANCH   8  11
ENDBRANCH   5   8
ENDBRANCH   1   5
TORSDOF 4
ENDMDL