MODEL 2
REMARK VINA RESULT: -5.613360916      2.185      6.613
REMARK  4 active torsions:
REMARK  status: ('A' for Active; 'I' for Inactive)
REMARK       I    between atoms: N1_2  and  C2_4
REMARK       I    between atoms: C2_4  and  N2_5
REMARK       I    between atoms: C2_4  and  N4_15
REMARK    1  A    between atoms: N2_5  and  C3_7
REMARK    2  A    between atoms: N4_15  and  C8_17
REMARK    3  A    between atoms: C8_17  and  C9_18
REMARK    4  A    between atoms: C8_17  and  C13_25
ROOT
HETATM    1  C1  UNL     1      11.248  -6.112  -8.304  1.00  0.00     0.165 C
HETATM    2  N1  UNL     1      11.816  -6.186  -9.606  1.00  0.00    -0.231 N
ATOM      3  H1  UNL     1      12.477  -6.945  -9.768  1.00  0.00     0.177 HD
HETATM    4  C2  UNL     1      11.591  -5.404 -10.601  1.00  0.00     0.674 C
HETATM    5  N2  UNL     1      10.681  -4.347 -10.410  1.00  0.00    -0.189 N
ATOM      6  H2  UNL     1      11.086  -3.473 -10.073  1.00  0.00     0.184 HD
HETATM    7  N4  UNL     1      12.207  -5.549 -11.859  1.00  0.00    -0.214 N
ATOM      8  H4  UNL     1      11.591  -5.429 -12.664  1.00  0.00     0.178 HD
ENDROOT
BRANCH   5   9
HETATM    9  C3  UNL     1       9.424  -4.329 -10.598  1.00  0.00     0.090 A
HETATM   10  C4  UNL     1       8.867  -5.380 -11.298  1.00  0.00     0.050 A
HETATM   11  C5  UNL     1       7.524  -5.446 -11.548  1.00  0.00     0.090 A
HETATM   12  N3  UNL     1       6.716  -4.456 -11.098  1.00  0.00    -0.372 N
HETATM   13  C6  UNL     1       7.244  -3.423 -10.414  1.00  0.00     0.132 A
ATOM     14  H3  UNL     1       5.712  -4.492 -11.277  1.00  0.00     0.164 HD
HETATM   15  C7  UNL     1       8.592  -3.333 -10.149  1.00  0.00     0.158 A
HETATM   16  F1  UNL     1       9.083  -2.261  -9.448  1.00  0.00    -0.202 F
ENDBRANCH   5   9
BRANCH   7  17
HETATM   17  C8  UNL     1      13.560  -5.839 -12.169  1.00  0.00     0.170 C
BRANCH  17  18
HETATM   18  C9  UNL     1      13.774  -7.327 -12.298  1.00  0.00     0.107 A
HETATM   19  N5  UNL     1      13.301  -8.132 -13.256  1.00  0.00    -0.353 N
HETATM   20  C10 UNL     1      13.689  -9.402 -13.059  1.00  0.00     0.106 A
ATOM     21  H5  UNL     1      12.720  -7.822 -14.034  1.00  0.00     0.166 HD
HETATM   22  C11 UNL     1      14.452  -9.391 -11.908  1.00  0.00     0.108 A
HETATM   23  N6  UNL     1      14.486  -8.117 -11.468  1.00  0.00    -0.348 N
HETATM   24  C12 UNL     1      15.203  -7.734 -10.275  1.00  0.00     0.157 C
ENDBRANCH  17  18
BRANCH  17  25
HETATM   25  C13 UNL     1      14.012  -5.142 -13.408  1.00  0.00     0.008 C
HETATM   26  C14 UNL     1      15.459  -5.221 -13.728  1.00  0.00     0.012 C
HETATM   27  C15 UNL     1      13.697  -3.640 -13.257  1.00  0.00     0.012 C
ENDBRANCH  17  25
ENDBRANCH   7  17
TORSDOF 4
ENDMDL