MODEL 5
REMARK VINA RESULT: -5.259299238      2.720      6.051
REMARK  5 active torsions:
REMARK  status: ('A' for Active; 'I' for Inactive)
REMARK    1  A    between atoms: C2_2  and  S1_5
REMARK    2  A    between atoms: S1_5  and  N1_8
REMARK    3  A    between atoms: N1_8  and  C4_10
REMARK    4  A    between atoms: C4_10  and  O3_11
REMARK    5  A    between atoms: C4_10  and  C5_13
ROOT
HETATM    1  C4  UNL     1      10.884  -4.496 -10.407  1.00  0.00     0.236 C
ENDROOT
BRANCH   1   2
HETATM    2  N1  UNL     1      11.212  -5.720  -9.810  1.00  0.00    -0.289 N
ATOM      3  H1  UNL     1      10.891  -5.998  -8.883  1.00  0.00     0.174 HD
BRANCH   2   4
HETATM    4  S1  UNL     1      12.202  -6.692 -10.794  1.00  0.00     0.266 S
HETATM    5  O1  UNL     1      12.959  -5.799 -11.744  1.00  0.00    -0.203 OA
HETATM    6  O2  UNL     1      11.264  -7.597 -11.587  1.00  0.00    -0.203 OA
BRANCH   4   7
HETATM    7  C2  UNL     1      13.305  -7.751  -9.931  1.00  0.00     0.216 C
HETATM    8  C1  UNL     1      12.748  -7.876  -8.500  1.00  0.00     0.071 C
HETATM    9  C3  UNL     1      13.213  -9.123 -10.526  1.00  0.00     0.071 C
HETATM   10  F1  UNL     1      14.596  -7.305  -9.859  1.00  0.00    -0.225 F
ENDBRANCH   4   7
ENDBRANCH   2   4
ENDBRANCH   1   2
BRANCH   1  11
HETATM   11  O3  UNL     1      10.891  -3.515  -9.331  1.00  0.00    -0.375 OA
ATOM     12  H3  UNL     1      11.514  -3.837  -8.691  1.00  0.00     0.212 HD
ENDBRANCH   1  11
BRANCH   1  13
HETATM   13  C5  UNL     1       9.542  -4.326 -11.022  1.00  0.00     0.005 C
HETATM   14  C6  UNL     1       8.641  -5.506 -10.971  1.00  0.00     0.018 C
HETATM   15  C7  UNL     1       7.369  -5.247 -11.753  1.00  0.00    -0.013 C
HETATM   16  C8  UNL     1       7.696  -5.006 -13.217  1.00  0.00     0.009 C
HETATM   17  C12 UNL     1       6.605  -4.047 -11.273  1.00  0.00     0.009 C
HETATM   18  C9  UNL     1       8.572  -3.793 -13.287  1.00  0.00    -0.013 C
HETATM   19  C10 UNL     1       7.912  -2.565 -12.691  1.00  0.00     0.009 C
HETATM   20  C14 UNL     1       9.820  -4.059 -12.512  1.00  0.00     0.018 C
HETATM   21  C11 UNL     1       7.555  -2.874 -11.247  1.00  0.00    -0.013 C
HETATM   22  C13 UNL     1       8.783  -3.144 -10.441  1.00  0.00     0.018 C
ENDBRANCH   1  13
TORSDOF 5
ENDMDL