MODEL 1
REMARK VINA RESULT: -5.395910436      0.000      0.000
REMARK  5 active torsions:
REMARK  status: ('A' for Active; 'I' for Inactive)
REMARK    1  A    between atoms: N2_3  and  C2_5
REMARK    2  A    between atoms: C2_5  and  N3_7
REMARK    3  A    between atoms: N3_7  and  C3_9
REMARK    4  A    between atoms: C3_9  and  C4_10
REMARK    5  A    between atoms: N4_13  and  C7_14
ROOT
HETATM    1  N1  UNL     1       7.151  -4.842 -13.045  1.00  0.00    -0.172 NA
HETATM    2  C1  UNL     1       6.810  -4.510 -11.995  1.00  0.00     0.184 C
HETATM    3  N2  UNL     1       6.404  -4.124 -10.690  1.00  0.00    -0.270 N
ATOM      4  H2  UNL     1       5.646  -4.606 -10.205  1.00  0.00     0.180 HD
ENDROOT
BRANCH   3   5
HETATM    5  C2  UNL     1       7.091  -3.043 -10.089  1.00  0.00     0.180 C
HETATM    6  S1  UNL     1       6.576  -1.506 -10.259  1.00  0.00    -0.040 SA
BRANCH   5   7
HETATM    7  N3  UNL     1       8.266  -3.273  -9.322  1.00  0.00    -0.366 N
ATOM      8  H3  UNL     1       8.201  -3.459  -8.321  1.00  0.00     0.161 HD
BRANCH   7   9
HETATM    9  C3  UNL     1       9.561  -3.240  -9.980  1.00  0.00     0.128 C
BRANCH   9  10
HETATM   10  C4  UNL     1      10.106  -4.587 -10.145  1.00  0.00     0.033 C
HETATM   11  C5  UNL     1      10.907  -5.065  -8.912  1.00  0.00     0.038 C
HETATM   12  C6  UNL     1      11.230  -6.462  -9.481  1.00  0.00     0.273 C
HETATM   13  N4  UNL     1      11.544  -6.224 -10.903  1.00  0.00     0.095 N
HETATM   14  C13 UNL     1      11.127  -4.855 -11.186  1.00  0.00     0.279 C
BRANCH  13  15
HETATM   15  C7  UNL     1      12.913  -6.505 -11.041  1.00  0.00     0.241 C
HETATM   16  C8  UNL     1      13.460  -6.792 -12.392  1.00  0.00     0.037 C
HETATM   17  C9  UNL     1      14.968  -6.769 -12.249  1.00  0.00     0.002 C
HETATM   18  C10 UNL     1      15.537  -7.485 -11.102  1.00  0.00     0.002 C
HETATM   19  C11 UNL     1      14.665  -7.692  -9.907  1.00  0.00     0.022 C
HETATM   20  C12 UNL     1      13.204  -7.777 -10.223  1.00  0.00     0.115 C
HETATM   21 CL1  UNL     1      12.874  -9.245 -11.159  1.00  0.00    -0.123 Cl
ENDBRANCH  13  15
ENDBRANCH   9  10
ENDBRANCH   7   9
ENDBRANCH   5   7
ENDBRANCH   3   5
TORSDOF 5
ENDMDL