MODEL 5
REMARK VINA RESULT: -4.140430362      0.891      1.367
REMARK  6 active torsions:
REMARK  status: ('A' for Active; 'I' for Inactive)
REMARK    1  A    between atoms: O1_2  and  N1_3
REMARK    2  A    between atoms: N1_3  and  C2_5
REMARK    3  A    between atoms: C2_5  and  N2_7
REMARK    4  A    between atoms: C3_9  and  C4_10
REMARK    5  A    between atoms: C3_9  and  N3_12
REMARK    6  A    between atoms: N3_12  and  C5_14
ROOT
HETATM    1  N2  UNL     1       6.664  -3.860 -10.746  1.00  0.00    -0.321 N
ATOM      2  H2  UNL     1       5.913  -4.427 -10.351  1.00  0.00     0.169 HD
HETATM    3  C3  UNL     1       7.139  -4.171 -11.928  1.00  0.00     0.089 C
ENDROOT
BRANCH   3   4
HETATM    4  C4  UNL     1       6.551  -5.337 -12.623  1.00  0.00     0.161 C
HETATM    5 BR1  UNL     1       7.589  -6.954 -12.234  1.00  0.00    -0.088 Br
ENDBRANCH   3   4
BRANCH   3   6
HETATM    6  N3  UNL     1       8.166  -3.418 -12.498  1.00  0.00    -0.374 N
ATOM      7  H3  UNL     1       8.278  -2.482 -12.108  1.00  0.00     0.161 HD
BRANCH   6   8
HETATM    8  C5  UNL     1       9.076  -3.742 -13.528  1.00  0.00     0.082 C
HETATM    9  C6  UNL     1       9.446  -2.586 -14.447  1.00  0.00     0.025 C
HETATM   10  C7  UNL     1      10.431  -3.309 -15.379  1.00  0.00     0.002 C
HETATM   11  C8  UNL     1      11.077  -4.391 -14.529  1.00  0.00     0.002 C
HETATM   12  C9  UNL     1      10.408  -4.275 -13.147  1.00  0.00     0.025 C
ENDBRANCH   6   8
ENDBRANCH   3   6
BRANCH   1  13
HETATM   13  C2  UNL     1       7.157  -2.766 -10.000  1.00  0.00     0.197 C
HETATM   14  S1  UNL     1       6.439  -1.312 -10.184  1.00  0.00    -0.039 SA
BRANCH  13  15
HETATM   15  N1  UNL     1       8.249  -2.868  -9.096  1.00  0.00    -0.241 N
ATOM     16  H1  UNL     1       8.051  -3.012  -8.106  1.00  0.00     0.197 HD
BRANCH  15  17
HETATM   17  O1  UNL     1       9.535  -2.784  -9.490  1.00  0.00    -0.283 OA
HETATM   18  C1  UNL     1      10.035  -4.101  -9.495  1.00  0.00     0.237 C
ENDBRANCH  15  17
ENDBRANCH  13  15
ENDBRANCH   1  13
TORSDOF 6
ENDMDL