MODEL 2
REMARK VINA RESULT: -6.239226609      4.887      8.561
REMARK  5 active torsions:
REMARK  status: ('A' for Active; 'I' for Inactive)
REMARK    1  A    between atoms: C2_2  and  N1_3
REMARK    2  A    between atoms: C2_2  and  O1_19
REMARK    3  A    between atoms: N1_3  and  C3_5
REMARK    4  A    between atoms: N3_11  and  C7_13
REMARK    5  A    between atoms: O1_19  and  C11_20
ROOT
HETATM    1  C3  UNL     1      11.500  -6.483  -9.818  1.00  0.00     0.120 A
HETATM    2  C4  UNL     1      11.709  -7.127  -8.624  1.00  0.00     0.066 A
HETATM    3  C5  UNL     1      12.816  -7.903  -8.376  1.00  0.00     0.110 A
HETATM    4  N2  UNL     1      13.736  -8.026  -9.381  1.00  0.00    -0.202 N
ATOM      5  H2  UNL     1      14.569  -8.596  -9.230  1.00  0.00     0.183 HD
HETATM    6  C6  UNL     1      13.564  -7.413 -10.555  1.00  0.00     0.680 A
HETATM    7  N3  UNL     1      14.424  -7.531 -11.480  1.00  0.00    -0.218 N
ATOM      8  H3  UNL     1      14.204  -7.027 -12.339  1.00  0.00     0.178 HD
HETATM    9  N4  UNL     1      12.440  -6.643 -10.761  1.00  0.00    -0.177 N
ATOM     10  H4  UNL     1      12.318  -6.180 -11.661  1.00  0.00     0.185 HD
ENDROOT
BRANCH   1  11
HETATM   11  N1  UNL     1      10.477  -5.758 -10.065  1.00  0.00    -0.349 N
ATOM     12  H1  UNL     1      10.036  -5.319  -9.257  1.00  0.00     0.163 HD
BRANCH  11  13
HETATM   13  C2  UNL     1       9.878  -5.488 -11.328  1.00  0.00     0.224 C
HETATM   14  C1  UNL     1       8.622  -6.334 -11.438  1.00  0.00     0.063 C
BRANCH  13  15
HETATM   15  O1  UNL     1       9.645  -4.145 -11.585  1.00  0.00    -0.326 OA
BRANCH  15  16
HETATM   16  C11 UNL     1       8.664  -3.310 -11.196  1.00  0.00     0.071 A
HETATM   17  C12 UNL     1       7.814  -2.770 -12.139  1.00  0.00     0.040 A
HETATM   18  C13 UNL     1       6.785  -1.898 -11.762  1.00  0.00     0.045 A
HETATM   19  C14 UNL     1       6.603  -1.566 -10.452  1.00  0.00     0.116 A
HETATM   20  F1  UNL     1       5.590  -0.710 -10.098  1.00  0.00    -0.206 F
HETATM   21  C15 UNL     1       7.436  -2.092  -9.505  1.00  0.00     0.045 A
HETATM   22  C16 UNL     1       8.451  -2.954  -9.889  1.00  0.00     0.040 A
ENDBRANCH  15  16
ENDBRANCH  13  15
ENDBRANCH  11  13
ENDBRANCH   1  11
BRANCH   7  23
HETATM   23  C7  UNL     1      15.632  -8.252 -11.504  1.00  0.00     0.036 C
HETATM   24  C8  UNL     1      15.474  -9.744 -11.388  1.00  0.00     0.038 C
HETATM   25  C9  UNL     1      16.573  -7.778 -10.426  1.00  0.00     0.038 C
HETATM   26  C10 UNL     1      16.355  -8.005 -12.853  1.00  0.00     0.038 C
ENDBRANCH   7  23
TORSDOF 5
ENDMDL