MODEL 2
REMARK VINA RESULT: -4.782041633      3.477      4.809
REMARK  4 active torsions:
REMARK  status: ('A' for Active; 'I' for Inactive)
REMARK    1  A    between atoms: C10_11  and  O1_12
REMARK    2  A    between atoms: C10_11  and  C11_14
REMARK    3  A    between atoms: C11_14  and  N1_15
REMARK    4  A    between atoms: N1_15  and  S1_17
ROOT
HETATM    1  C1  UNL     1       9.270  -3.628  -9.655  1.00  0.00     0.012 C
HETATM    2  C2  UNL     1       9.324  -3.694 -11.143  1.00  0.00     0.012 C
HETATM    3  C3  UNL     1       7.958  -3.752 -11.770  1.00  0.00     0.095 C
HETATM    4 CL1  UNL     1       6.654  -3.712 -10.556  1.00  0.00    -0.124 Cl
HETATM    5  C4  UNL     1       7.898  -5.038 -12.590  1.00  0.00    -0.024 C
HETATM    6  C5  UNL     1       6.522  -5.241 -13.116  1.00  0.00     0.016 C
HETATM    7  C6  UNL     1       8.901  -4.907 -13.703  1.00  0.00     0.011 C
HETATM    8  C7  UNL     1      10.268  -4.537 -13.202  1.00  0.00     0.013 C
HETATM    9  C8  UNL     1      10.240  -4.771 -11.678  1.00  0.00    -0.007 C
HETATM   10  C9  UNL     1      11.636  -4.514 -11.212  1.00  0.00     0.019 C
HETATM   11  C10 UNL     1       9.750  -6.152 -11.485  1.00  0.00     0.083 C
HETATM   12  C13 UNL     1       8.241  -6.161 -11.633  1.00  0.00     0.051 C
ENDROOT
BRANCH  11  13
HETATM   13  O1  UNL     1      10.213  -6.970 -12.544  1.00  0.00    -0.387 OA
ATOM     14  H1  UNL     1      10.342  -7.856 -12.227  1.00  0.00     0.210 HD
ENDBRANCH  11  13
BRANCH  11  15
HETATM   15  C11 UNL     1      10.186  -6.821 -10.213  1.00  0.00     0.170 C
BRANCH  15  16
HETATM   16  N1  UNL     1      11.187  -7.811 -10.503  1.00  0.00    -0.317 N
ATOM     17  H1  UNL     1      11.158  -8.420 -11.320  1.00  0.00     0.172 HD
BRANCH  16  18
HETATM   18  S1  UNL     1      12.436  -7.858  -9.323  1.00  0.00     0.222 S
HETATM   19  C12 UNL     1      13.981  -7.566 -10.125  1.00  0.00     0.185 C
HETATM   20  O2  UNL     1      12.243  -6.878  -8.231  1.00  0.00    -0.206 OA
HETATM   21  O3  UNL     1      12.485  -9.228  -8.718  1.00  0.00    -0.206 OA
ENDBRANCH  16  18
ENDBRANCH  15  16
ENDBRANCH  11  15
TORSDOF 4
ENDMDL