MODEL 4
REMARK VINA RESULT: -5.648904524      1.271      1.490
REMARK  4 active torsions:
REMARK  status: ('A' for Active; 'I' for Inactive)
REMARK    1  A    between atoms: C2_2  and  N1_3
REMARK    2  A    between atoms: N1_3  and  C3_5
REMARK    3  A    between atoms: N3_9  and  C5_11
REMARK    4  A    between atoms: C5_11  and  C6_12
ROOT
HETATM    1  C3  UNL     1       8.216   0.031 -16.917  1.00  0.00     0.156 A
HETATM    2  N2  UNL     1       8.906  -0.594 -15.914  1.00  0.00    -0.173 N
ATOM      3  H2  UNL     1       9.798  -0.205 -15.611  1.00  0.00     0.186 HD
HETATM    4  C4  UNL     1       8.444  -1.704 -15.316  1.00  0.00     0.694 A
HETATM    5  N3  UNL     1       9.111  -2.259 -14.386  1.00  0.00    -0.224 N
ATOM      6  H3  UNL     1       9.995  -1.817 -14.132  1.00  0.00     0.177 HD
HETATM    7  N4  UNL     1       7.272  -2.232 -15.700  1.00  0.00    -0.131 N
ATOM      8  H4  UNL     1       6.922  -3.075 -15.245  1.00  0.00     0.205 HD
HETATM    9  N5  UNL     1       6.582  -1.675 -16.647  1.00  0.00    -0.276 N
ATOM     10  H5  UNL     1       5.693  -2.086 -16.929  1.00  0.00     0.188 HD
HETATM   11  C12 UNL     1       7.028  -0.546 -17.272  1.00  0.00     0.140 A
HETATM   12 BR1  UNL     1       5.898   0.153 -18.647  1.00  0.00    -0.026 Br
ENDROOT
BRANCH   5  13
HETATM   13  C5  UNL     1       8.755  -3.435 -13.659  1.00  0.00     0.142 C
BRANCH  13  14
HETATM   14  C6  UNL     1       8.422  -3.134 -12.191  1.00  0.00     0.004 C
HETATM   15  C7  UNL     1       7.094  -3.781 -11.876  1.00  0.00     0.006 C
HETATM   16  C8  UNL     1       6.665  -3.416 -10.476  1.00  0.00     0.000 C
HETATM   17  C9  UNL     1       7.831  -3.174  -9.563  1.00  0.00     0.000 C
HETATM   18  C10 UNL     1       9.047  -3.978  -9.915  1.00  0.00     0.000 C
HETATM   19  C11 UNL     1       9.472  -3.825 -11.346  1.00  0.00     0.006 C
ENDBRANCH  13  14
ENDBRANCH   5  13
BRANCH   1  20
HETATM   20  N1  UNL     1       8.700   1.036 -17.413  1.00  0.00    -0.354 N
ATOM     21  H1  UNL     1       8.340   1.850 -16.914  1.00  0.00     0.166 HD
BRANCH  20  22
HETATM   22  C2  UNL     1       9.561   1.473 -18.406  1.00  0.00     0.058 C
HETATM   23  C1  UNL     1       9.890   0.444 -19.473  1.00  0.00     0.054 C
ENDBRANCH  20  22
ENDBRANCH   1  20
TORSDOF 4
ENDMDL