MODEL 3
REMARK VINA RESULT: -6.988130419      2.178      3.410
REMARK  8 active torsions:
REMARK  status: ('A' for Active; 'I' for Inactive)
REMARK    1  A    between atoms: C5_5  and  S1_6
REMARK    2  A    between atoms: S1_6  and  N1_9
REMARK    3  A    between atoms: N1_9  and  C6_11
REMARK    4  A    between atoms: C9_16  and  N3_17
REMARK    5  A    between atoms: N3_17  and  C10_19
REMARK    6  A    between atoms: C10_19  and  C12_21
REMARK    7  A    between atoms: C12_21  and  O3_22
REMARK    8  A    between atoms: C12_21  and  C13_24
ROOT
HETATM    1  C6  UNL     1     -28.163  -6.444  -9.776  1.00  0.00     0.131 A
HETATM    2  C7  UNL     1     -28.103  -7.111  -8.585  1.00  0.00     0.067 A
HETATM    3  C8  UNL     1     -27.204  -8.184  -8.519  1.00  0.00     0.110 A
HETATM    4  N2  UNL     1     -26.462  -8.510  -9.580  1.00  0.00    -0.202 N
ATOM      5  H2  UNL     1     -25.817  -9.296  -9.497  1.00  0.00     0.183 HD
HETATM    6  C9  UNL     1     -26.524  -7.840 -10.774  1.00  0.00     0.679 A
HETATM    7  N4  UNL     1     -27.386  -6.815 -10.829  1.00  0.00    -0.176 N
ATOM      8  H4  UNL     1     -27.462  -6.290 -11.699  1.00  0.00     0.186 HD
ENDROOT
BRANCH   6   9
HETATM    9  N3  UNL     1     -25.765  -8.238 -11.730  1.00  0.00    -0.219 N
ATOM     10  H3  UNL     1     -26.160  -8.419 -12.653  1.00  0.00     0.178 HD
BRANCH   9  11
HETATM   11  C10 UNL     1     -24.357  -8.428 -11.500  1.00  0.00     0.128 C
HETATM   12  C11 UNL     1     -23.526  -7.221 -11.897  1.00  0.00     0.036 C
BRANCH  11  13
HETATM   13  C12 UNL     1     -23.851  -9.684 -12.189  1.00  0.00     0.174 C
BRANCH  13  14
HETATM   14  O3  UNL     1     -22.877  -9.256 -13.108  1.00  0.00    -0.389 OA
ATOM     15  H3  UNL     1     -23.162  -8.403 -13.414  1.00  0.00     0.210 HD
ENDBRANCH  13  14
BRANCH  13  16
HETATM   16  C13 UNL     1     -23.282 -10.655 -11.239  1.00  0.00    -0.025 A
HETATM   17  C14 UNL     1     -23.775 -11.954 -11.198  1.00  0.00     0.010 A
HETATM   18  C15 UNL     1     -23.279 -12.885 -10.335  1.00  0.00     0.004 A
HETATM   19  C16 UNL     1     -22.267 -12.575  -9.467  1.00  0.00     0.042 A
HETATM   20  C17 UNL     1     -21.759 -11.276  -9.494  1.00  0.00     0.117 A
HETATM   21  F1  UNL     1     -20.756 -10.999  -8.622  1.00  0.00    -0.206 F
HETATM   22  C18 UNL     1     -22.270 -10.340 -10.374  1.00  0.00     0.052 A
ENDBRANCH  13  16
ENDBRANCH  11  13
ENDBRANCH   9  11
ENDBRANCH   6   9
BRANCH   1  23
HETATM   23  N1  UNL     1     -28.951  -5.455  -9.929  1.00  0.00    -0.265 N
ATOM     24  H1  UNL     1     -29.156  -4.862  -9.125  1.00  0.00     0.180 HD
BRANCH  23  25
HETATM   25  S1  UNL     1     -29.676  -5.084 -11.421  1.00  0.00     0.264 S
HETATM   26  O1  UNL     1     -30.285  -6.352 -11.982  1.00  0.00    -0.200 OA
HETATM   27  O2  UNL     1     -28.686  -4.568 -12.443  1.00  0.00    -0.200 OA
BRANCH  25  28
HETATM   28  C5  UNL     1     -30.988  -3.923 -11.233  1.00  0.00     0.079 A
HETATM   29  C4  UNL     1     -31.674  -3.391 -12.280  1.00  0.00     0.026 A
HETATM   30  C3  UNL     1     -32.694  -2.482 -12.047  1.00  0.00     0.008 A
HETATM   31  C2  UNL     1     -33.058  -2.080 -10.774  1.00  0.00    -0.062 A
HETATM   32  C1  UNL     1     -34.168  -1.093 -10.554  1.00  0.00     0.048 C
HETATM   33  C20 UNL     1     -32.359  -2.622  -9.717  1.00  0.00     0.008 A
HETATM   34  C19 UNL     1     -31.345  -3.525  -9.952  1.00  0.00     0.026 A
ENDBRANCH  25  28
ENDBRANCH  23  25
ENDBRANCH   1  23
TORSDOF 8
ENDMDL