MODEL 3
REMARK VINA RESULT: -6.528165869      2.438      3.476
REMARK  6 active torsions:
REMARK  status: ('A' for Active; 'I' for Inactive)
REMARK    1  A    between atoms: S1_2  and  N1_4
REMARK    2  A    between atoms: S1_2  and  C6_13
REMARK    3  A    between atoms: N1_4  and  C1_6
REMARK    4  A    between atoms: C9_16  and  N3_17
REMARK    5  A    between atoms: N3_17  and  S2_19
REMARK    6  A    between atoms: S2_19  and  C10_22
ROOT
HETATM    1  C6  UNL     1     -27.904  -7.002  -9.848  1.00  0.00     0.080 A
HETATM    2  C7  UNL     1     -28.658  -6.390  -8.871  1.00  0.00     0.027 A
HETATM    3  C8  UNL     1     -29.406  -5.260  -9.127  1.00  0.00     0.031 A
HETATM    4  C9  UNL     1     -29.442  -4.672 -10.395  1.00  0.00     0.042 A
HETATM    5  C16 UNL     1     -28.683  -5.296 -11.360  1.00  0.00     0.031 A
HETATM    6  C17 UNL     1     -27.930  -6.433 -11.102  1.00  0.00     0.027 A
ENDROOT
BRANCH   1   7
HETATM    7  S1  UNL     1     -26.949  -8.434  -9.547  1.00  0.00     0.263 S
HETATM    8  O1  UNL     1     -27.346  -9.090  -8.246  1.00  0.00    -0.200 OA
HETATM    9  O2  UNL     1     -25.480  -8.081  -9.418  1.00  0.00    -0.200 OA
BRANCH   7  10
HETATM   10  N1  UNL     1     -27.160  -9.603 -10.796  1.00  0.00    -0.281 N
ATOM     11  H1  UNL     1     -26.421  -9.698 -11.492  1.00  0.00     0.179 HD
BRANCH  10  12
HETATM   12  C1  UNL     1     -28.180 -10.354 -10.902  1.00  0.00     0.045 A
HETATM   13  C2  UNL     1     -29.392  -9.947 -11.414  1.00  0.00     0.047 A
HETATM   14  C3  UNL     1     -30.467 -10.833 -11.497  1.00  0.00     0.090 A
HETATM   15  N2  UNL     1     -30.367 -12.108 -11.086  1.00  0.00    -0.375 N
HETATM   16  C4  UNL     1     -29.192 -12.516 -10.584  1.00  0.00     0.090 A
ATOM     17  H2  UNL     1     -31.160 -12.746 -11.153  1.00  0.00     0.164 HD
HETATM   18  C5  UNL     1     -28.097 -11.683 -10.480  1.00  0.00     0.047 A
ENDBRANCH  10  12
ENDBRANCH   7  10
ENDBRANCH   1   7
BRANCH   4  19
HETATM   19  N3  UNL     1     -30.225  -3.506 -10.629  1.00  0.00    -0.281 N
ATOM     20  H3  UNL     1     -29.881  -2.598 -10.320  1.00  0.00     0.179 HD
BRANCH  19  21
HETATM   21  S2  UNL     1     -31.743  -3.610 -11.426  1.00  0.00     0.263 S
HETATM   22  O3  UNL     1     -32.096  -5.065 -11.630  1.00  0.00    -0.200 OA
HETATM   23  O4  UNL     1     -32.843  -2.883 -10.714  1.00  0.00    -0.200 OA
BRANCH  21  24
HETATM   24  C10 UNL     1     -31.537  -2.907 -13.021  1.00  0.00     0.080 A
HETATM   25  C11 UNL     1     -30.504  -3.320 -13.835  1.00  0.00     0.028 A
HETATM   26  C12 UNL     1     -30.381  -2.741 -15.078  1.00  0.00     0.044 A
HETATM   27  C13 UNL     1     -31.261  -1.778 -15.506  1.00  0.00     0.116 A
HETATM   28  F1  UNL     1     -31.156  -1.194 -16.733  1.00  0.00    -0.206 F
HETATM   29  C14 UNL     1     -32.298  -1.360 -14.699  1.00  0.00     0.044 A
HETATM   30  C15 UNL     1     -32.424  -1.942 -13.444  1.00  0.00     0.028 A
ENDBRANCH  21  24
ENDBRANCH  19  21
ENDBRANCH   4  19
TORSDOF 6
ENDMDL