MODEL 2
REMARK VINA RESULT: -7.009467386      0.869      1.127
REMARK  6 active torsions:
REMARK  status: ('A' for Active; 'I' for Inactive)
REMARK    1  A    between atoms: S1_2  and  C2_4
REMARK    2  A    between atoms: C2_4  and  C3_5
REMARK    3  A    between atoms: C6_8  and  C7_9
REMARK    4  A    between atoms: C12_19  and  N3_20
REMARK    5  A    between atoms: N3_20  and  C13_22
REMARK    6  A    between atoms: C13_22  and  C14_23
ROOT
HETATM    1  C7  UNL     1     -30.245  -4.482 -11.466  1.00  0.00     0.046 A
HETATM    2  C8  UNL     1     -31.062  -3.957 -10.488  1.00  0.00     0.062 A
HETATM    3  C9  UNL     1     -32.042  -3.048 -10.719  1.00  0.00     0.069 A
HETATM    4  N1  UNL     1     -32.953  -2.392  -9.948  1.00  0.00    -0.306 N
ATOM      5  H1  UNL     1     -33.043  -2.510  -8.938  1.00  0.00     0.171 HD
HETATM    6  C10 UNL     1     -33.716  -1.571 -10.685  1.00  0.00     0.325 A
HETATM    7  O2  UNL     1     -34.649  -0.814 -10.325  1.00  0.00    -0.247 OA
HETATM    8  N2  UNL     1     -33.269  -1.719 -11.963  1.00  0.00    -0.303 N
ATOM      9  H2  UNL     1     -33.645  -1.232 -12.777  1.00  0.00     0.171 HD
HETATM   10  C11 UNL     1     -32.256  -2.605 -11.989  1.00  0.00     0.108 A
HETATM   11  C12 UNL     1     -31.436  -3.123 -13.024  1.00  0.00     0.135 A
HETATM   12  N5  UNL     1     -30.477  -4.035 -12.702  1.00  0.00    -0.340 N
ATOM     13  H5  UNL     1     -29.897  -4.402 -13.457  1.00  0.00     0.167 HD
ENDROOT
BRANCH   1  14
HETATM   14  C6  UNL     1     -29.165  -5.420 -11.165  1.00  0.00    -0.006 A
HETATM   15  C5  UNL     1     -28.219  -5.808 -12.128  1.00  0.00     0.014 A
HETATM   16  C4  UNL     1     -27.181  -6.691 -11.786  1.00  0.00     0.012 A
HETATM   17  C3  UNL     1     -27.042  -7.213 -10.530  1.00  0.00    -0.008 A
HETATM   18  C20 UNL     1     -28.001  -6.814  -9.584  1.00  0.00     0.124 A
HETATM   19  C19 UNL     1     -29.015  -5.954  -9.902  1.00  0.00     0.056 A
HETATM   20  F1  UNL     1     -27.852  -7.353  -8.324  1.00  0.00    -0.205 F
BRANCH  17  21
HETATM   21  C2  UNL     1     -26.096  -8.306 -10.211  1.00  0.00     0.149 C
BRANCH  21  22
HETATM   22  S1  UNL     1     -26.750  -9.875 -10.694  1.00  0.00     0.015 S
HETATM   23  C1  UNL     1     -25.503 -10.894 -11.506  1.00  0.00     0.127 C
HETATM   24  O1  UNL     1     -27.487 -10.699  -9.470  1.00  0.00    -0.258 OA
ENDBRANCH  21  22
ENDBRANCH  17  21
ENDBRANCH   1  14
BRANCH  11  25
HETATM   25  N3  UNL     1     -31.654  -2.693 -14.160  1.00  0.00    -0.350 N
ATOM     26  H3  UNL     1     -31.234  -1.766 -14.236  1.00  0.00     0.166 HD
BRANCH  25  27
HETATM   27  C13 UNL     1     -32.252  -2.994 -15.364  1.00  0.00     0.101 C
BRANCH  27  28
HETATM   28  C14 UNL     1     -31.707  -2.094 -16.447  1.00  0.00    -0.018 A
HETATM   29  C15 UNL     1     -30.939  -2.543 -17.469  1.00  0.00     0.030 A
HETATM   30  C16 UNL     1     -30.490  -1.668 -18.433  1.00  0.00     0.088 A
HETATM   31  N4  UNL     1     -30.829  -0.392 -18.336  1.00  0.00    -0.375 N
HETATM   32  C17 UNL     1     -31.587   0.101 -17.347  1.00  0.00     0.088 A
ATOM     33  H4  UNL     1     -30.496   0.252 -19.054  1.00  0.00     0.164 HD
HETATM   34  C18 UNL     1     -32.053  -0.741 -16.360  1.00  0.00     0.030 A
ENDBRANCH  27  28
ENDBRANCH  25  27
ENDBRANCH  11  25
TORSDOF 6
ENDMDL