MODEL 1
REMARK VINA RESULT: -5.394411382      0.000      0.000
REMARK  5 active torsions:
REMARK  status: ('A' for Active; 'I' for Inactive)
REMARK    1  A    between atoms: C2_2  and  C3_3
REMARK    2  A    between atoms: C8_8  and  C9_9
REMARK    3  A    between atoms: C11_15  and  C12_16
REMARK    4  A    between atoms: C12_16  and  C14_18
REMARK    5  A    between atoms: C17_24  and  C18_25
ROOT
HETATM    1  C3  UNL     1     -27.349  -8.013 -10.435  1.00  0.00     0.077 C
HETATM    2  C4  UNL     1     -27.218  -7.098  -9.239  1.00  0.00     0.014 C
HETATM    3  C5  UNL     1     -28.555  -6.949  -8.606  1.00  0.00     0.001 C
HETATM    4  C6  UNL     1     -29.181  -5.612  -8.677  1.00  0.00     0.002 C
HETATM    5  C7  UNL     1     -28.875  -4.764  -9.844  1.00  0.00     0.032 C
HETATM    6  C8  UNL     1     -30.098  -4.487 -10.731  1.00  0.00     0.146 C
HETATM    7  N1  UNL     1     -30.539  -5.745 -11.258  1.00  0.00    -0.348 N
ATOM      8  H1  UNL     1     -30.656  -6.493 -10.575  1.00  0.00     0.163 HD
HETATM    9  C10 UNL     1     -30.828  -6.083 -12.578  1.00  0.00     0.241 C
HETATM   10  O2  UNL     1     -31.859  -6.830 -12.751  1.00  0.00    -0.271 OA
HETATM   11  C11 UNL     1     -30.121  -5.706 -13.800  1.00  0.00     0.180 C
HETATM   12  N2  UNL     1     -28.765  -5.273 -13.641  1.00  0.00    -0.346 N
ATOM     13  H2  UNL     1     -28.606  -4.265 -13.650  1.00  0.00     0.163 HD
HETATM   14  C16 UNL     1     -27.637  -6.080 -13.473  1.00  0.00     0.241 C
HETATM   15  O3  UNL     1     -26.521  -5.498 -13.233  1.00  0.00    -0.271 OA
HETATM   16  C17 UNL     1     -27.598  -7.562 -13.547  1.00  0.00     0.180 C
HETATM   17  N3  UNL     1     -26.445  -8.065 -12.806  1.00  0.00    -0.347 N
ATOM     18  H3  UNL     1     -25.732  -8.587 -13.315  1.00  0.00     0.163 HD
HETATM   19  C21 UNL     1     -26.266  -7.866 -11.410  1.00  0.00     0.222 C
HETATM   20  O4  UNL     1     -25.101  -7.541 -10.990  1.00  0.00    -0.273 OA
ENDROOT
BRANCH  11  21
HETATM   21  C12 UNL     1     -30.941  -4.624 -14.487  1.00  0.00     0.013 C
HETATM   22  C13 UNL     1     -30.763  -4.633 -15.971  1.00  0.00     0.012 C
BRANCH  21  23
HETATM   23  C14 UNL     1     -30.504  -3.257 -13.966  1.00  0.00     0.002 C
HETATM   24  C15 UNL     1     -31.716  -2.503 -13.486  1.00  0.00     0.005 C
ENDBRANCH  21  23
ENDBRANCH  11  21
BRANCH   6  25
HETATM   25  C9  UNL     1     -31.149  -3.776  -9.971  1.00  0.00     0.256 C
HETATM   26  O1  UNL     1     -30.938  -2.638  -9.595  1.00  0.00    -0.305 OA
ENDBRANCH   6  25
BRANCH  16  27
HETATM   27  C18 UNL     1     -27.411  -7.934 -15.002  1.00  0.00     0.009 C
HETATM   28  C19 UNL     1     -28.605  -8.731 -15.442  1.00  0.00     0.012 C
HETATM   29  C20 UNL     1     -26.114  -8.681 -15.216  1.00  0.00     0.012 C
ENDBRANCH  16  27
BRANCH   1  30
HETATM   30  C2  UNL     1     -27.470  -9.425  -9.902  1.00  0.00     0.009 C
HETATM   31  C1  UNL     1     -28.233 -10.340 -10.798  1.00  0.00     0.006 C
ENDBRANCH   1  30
TORSDOF 5
ENDMDL