MODEL 3
REMARK VINA RESULT: -6.830391890      3.905      8.323
REMARK  6 active torsions:
REMARK  status: ('A' for Active; 'I' for Inactive)
REMARK    1  A    between atoms: C3_7  and  N3_8
REMARK    2  A    between atoms: N3_8  and  C4_10
REMARK    3  A    between atoms: C4_10  and  C5_11
REMARK    4  A    between atoms: C8_14  and  C9_15
REMARK    5  A    between atoms: C14_20  and  S1_21
REMARK    6  A    between atoms: S1_21  and  N4_24
ROOT
HETATM    1  C5  UNL     1     -28.461  -6.877  -9.206  1.00  0.00    -0.040 A
HETATM    2  C6  UNL     1     -28.304  -5.526  -8.975  1.00  0.00     0.009 A
HETATM    3  C7  UNL     1     -29.165  -4.595  -9.517  1.00  0.00     0.013 A
HETATM    4  C8  UNL     1     -30.243  -4.967 -10.332  1.00  0.00    -0.024 A
HETATM    5  C16 UNL     1     -30.395  -6.311 -10.558  1.00  0.00     0.013 A
HETATM    6  C17 UNL     1     -29.518  -7.257 -10.005  1.00  0.00     0.009 A
ENDROOT
BRANCH   1   7
HETATM    7  C4  UNL     1     -27.530  -7.872  -8.614  1.00  0.00     0.176 C
BRANCH   7   8
HETATM    8  N3  UNL     1     -27.073  -8.861  -9.535  1.00  0.00    -0.222 N
ATOM      9  H3  UNL     1     -27.441  -9.811  -9.493  1.00  0.00     0.178 HD
BRANCH   8  10
HETATM   10  C3  UNL     1     -26.195  -8.545 -10.417  1.00  0.00     0.679 A
HETATM   11  N2  UNL     1     -24.946  -8.219 -10.050  1.00  0.00    -0.174 N
HETATM   12  C2  UNL     1     -23.963  -7.875 -10.948  1.00  0.00     0.157 A
ATOM     13  H2  UNL     1     -24.714  -8.227  -9.056  1.00  0.00     0.186 HD
HETATM   14  N1  UNL     1     -22.798  -7.578 -10.517  1.00  0.00    -0.378 N
HETATM   15  C19 UNL     1     -24.282  -7.868 -12.273  1.00  0.00     0.176 A
HETATM   16  C1  UNL     1     -21.701  -7.209 -11.315  1.00  0.00     0.147 C
ATOM     17  H1  UNL     1     -22.651  -7.612  -9.509  1.00  0.00     0.160 HD
HETATM   18  C18 UNL     1     -25.566  -8.203 -12.652  1.00  0.00     0.152 A
HETATM   19  F1  UNL     1     -23.360  -7.535 -13.252  1.00  0.00    -0.201 F
HETATM   20  N5  UNL     1     -26.476  -8.528 -11.729  1.00  0.00    -0.199 N
ATOM     21  H5  UNL     1     -27.419  -8.772 -12.034  1.00  0.00     0.183 HD
ENDBRANCH   8  10
ENDBRANCH   7   8
ENDBRANCH   1   7
BRANCH   4  22
HETATM   22  C9  UNL     1     -31.166  -3.961 -10.839  1.00  0.00    -0.003 A
HETATM   23  C10 UNL     1     -31.950  -3.293  -9.876  1.00  0.00     0.014 A
HETATM   24  C11 UNL     1     -32.898  -2.359 -10.198  1.00  0.00     0.001 A
HETATM   25  C12 UNL     1     -33.085  -2.065 -11.547  1.00  0.00     0.002 A
HETATM   26  C13 UNL     1     -32.323  -2.714 -12.477  1.00  0.00     0.026 A
HETATM   27  C14 UNL     1     -31.352  -3.668 -12.149  1.00  0.00     0.090 A
BRANCH  27  28
HETATM   28  S1  UNL     1     -30.431  -4.344 -13.430  1.00  0.00     0.259 S
HETATM   29  O1  UNL     1     -30.762  -5.767 -13.778  1.00  0.00    -0.201 OA
HETATM   30  O2  UNL     1     -30.748  -3.576 -14.725  1.00  0.00    -0.201 OA
BRANCH  28  31
HETATM   31  N4  UNL     1     -28.738  -4.283 -13.135  1.00  0.00    -0.320 N
HETATM   32  C15 UNL     1     -28.077  -5.522 -13.374  1.00  0.00     0.159 C
ATOM     33  H4  UNL     1     -28.255  -3.443 -12.819  1.00  0.00     0.171 HD
ENDBRANCH  28  31
ENDBRANCH  27  28
ENDBRANCH   4  22
TORSDOF 6
ENDMDL