MODEL 5
REMARK VINA RESULT: -6.910643241      3.333      7.965
REMARK  5 active torsions:
REMARK  status: ('A' for Active; 'I' for Inactive)
REMARK    1  A    between atoms: N2_5  and  C4_6
REMARK    2  A    between atoms: C4_6  and  C5_7
REMARK    3  A    between atoms: C5_7  and  C6_8
REMARK    4  A    between atoms: C9_11  and  C10_12
REMARK    5  A    between atoms: C11_13  and  C12_14
ROOT
HETATM    1  C10 UNL     1     -32.157  -2.915 -12.036  1.00  0.00     0.059 A
HETATM    2  C11 UNL     1     -31.822  -3.531 -10.954  1.00  0.00     0.059 A
HETATM    3  C18 UNL     1     -32.512  -2.855  -9.814  1.00  0.00     0.260 A
HETATM    4  O1  UNL     1     -32.409  -3.199  -8.610  1.00  0.00    -0.267 OA
HETATM    5  N4  UNL     1     -33.285  -1.788 -10.299  1.00  0.00    -0.289 N
ATOM      6  H4  UNL     1     -33.864  -1.146  -9.758  1.00  0.00     0.172 HD
HETATM    7  C19 UNL     1     -33.089  -1.792 -11.689  1.00  0.00     0.260 A
HETATM    8  O2  UNL     1     -33.612  -0.982 -12.518  1.00  0.00    -0.267 OA
ENDROOT
BRANCH   1   9
HETATM    9  C9  UNL     1     -31.790  -3.136 -13.429  1.00  0.00    -0.019 A
HETATM   10  C8  UNL     1     -30.840  -2.463 -14.074  1.00  0.00     0.013 A
HETATM   11  C7  UNL     1     -30.494  -2.731 -15.395  1.00  0.00     0.008 A
HETATM   12  C6  UNL     1     -31.153  -3.722 -16.062  1.00  0.00    -0.057 A
HETATM   13  C21 UNL     1     -32.139  -4.439 -15.435  1.00  0.00     0.008 A
HETATM   14  C20 UNL     1     -32.459  -4.152 -14.127  1.00  0.00     0.013 A
BRANCH  12  15
HETATM   15  C5  UNL     1     -30.776  -4.010 -17.491  1.00  0.00     0.058 C
BRANCH  15  16
HETATM   16  C4  UNL     1     -32.023  -3.866 -18.366  1.00  0.00     0.132 C
BRANCH  16  17
HETATM   17  N2  UNL     1     -32.544  -2.534 -18.312  1.00  0.00    -0.366 N
HETATM   18  C3  UNL     1     -31.796  -1.465 -18.682  1.00  0.00     0.092 A
HETATM   19  C2  UNL     1     -32.305  -0.169 -18.629  1.00  0.00     0.043 A
HETATM   20  C1  UNL     1     -33.583   0.051 -18.199  1.00  0.00     0.049 A
HETATM   21  N1  UNL     1     -34.120   1.365 -18.139  1.00  0.00    -0.102 NA
HETATM   22  C23 UNL     1     -34.339  -1.039 -17.826  1.00  0.00     0.043 A
HETATM   23  C22 UNL     1     -33.809  -2.330 -17.886  1.00  0.00     0.092 A
ENDBRANCH  16  17
ENDBRANCH  15  16
ENDBRANCH  12  15
ENDBRANCH   1   9
BRANCH   2  24
HETATM   24  C12 UNL     1     -30.942  -4.686 -10.736  1.00  0.00    -0.016 A
HETATM   25  C13 UNL     1     -29.708  -4.418 -10.120  1.00  0.00     0.014 A
HETATM   26  C14 UNL     1     -28.764  -5.397  -9.899  1.00  0.00     0.030 A
HETATM   27  C15 UNL     1     -28.995  -6.693 -10.277  1.00  0.00     0.085 A
HETATM   28  N3  UNL     1     -28.039  -7.718 -10.060  1.00  0.00    -0.099 NA
HETATM   29  C16 UNL     1     -30.195  -6.976 -10.881  1.00  0.00     0.141 A
HETATM   30  F1  UNL     1     -30.476  -8.242 -11.276  1.00  0.00    -0.204 F
HETATM   31  C17 UNL     1     -31.143  -5.972 -11.099  1.00  0.00     0.056 A
ENDBRANCH   2  24
TORSDOF 5
ENDMDL