MODEL 2
REMARK VINA RESULT: -6.260386950      3.836      7.316
REMARK  6 active torsions:
REMARK  status: ('A' for Active; 'I' for Inactive)
REMARK    1  A    between atoms: C2_2  and  N1_3
REMARK    2  A    between atoms: N1_3  and  C3_5
REMARK    3  A    between atoms: C5_9  and  S1_10
REMARK    4  A    between atoms: S1_10  and  C6_12
REMARK    5  A    between atoms: C8_19  and  C9_20
REMARK    6  A    between atoms: C9_20  and  C10_21
ROOT
HETATM    1  C3  UNL     1     -32.130  -3.800 -13.438  1.00  0.00     0.226 A
HETATM    2  N2  UNL     1     -30.858  -4.265 -13.318  1.00  0.00    -0.319 N
ATOM      3  H2  UNL     1     -30.387  -4.612 -14.153  1.00  0.00     0.169 HD
HETATM    4  C4  UNL     1     -30.194  -4.290 -12.152  1.00  0.00     0.086 A
HETATM    5  C5  UNL     1     -28.892  -4.778 -12.099  1.00  0.00     0.135 A
HETATM    6  N5  UNL     1     -28.288  -4.770 -10.909  1.00  0.00    -0.356 N
ATOM      7  H5  UNL     1     -27.333  -5.122 -10.840  1.00  0.00     0.166 HD
HETATM    8  C14 UNL     1     -28.897  -4.313  -9.787  1.00  0.00     0.090 A
HETATM    9  C15 UNL     1     -30.187  -3.832  -9.850  1.00  0.00     0.034 A
HETATM   10  C16 UNL     1     -30.848  -3.819 -11.046  1.00  0.00     0.041 A
HETATM   11  C17 UNL     1     -32.152  -3.339 -11.166  1.00  0.00     0.161 A
HETATM   12 CL1  UNL     1     -32.950  -2.751  -9.746  1.00  0.00    -0.055 Cl
HETATM   13  O3  UNL     1     -32.723  -3.356 -12.358  1.00  0.00    -0.266 OA
ENDROOT
BRANCH   5  14
HETATM   14  S1  UNL     1     -28.188  -5.364 -13.585  1.00  0.00     0.123 S
HETATM   15  O1  UNL     1     -28.638  -4.412 -14.866  1.00  0.00    -0.244 OA
BRANCH  14  16
HETATM   16  C6  UNL     1     -26.469  -5.444 -13.359  1.00  0.00     0.134 A
HETATM   17  N3  UNL     1     -25.642  -4.452 -13.735  1.00  0.00    -0.299 N
HETATM   18  C7  UNL     1     -24.380  -4.786 -13.420  1.00  0.00     0.325 A
ATOM     19  H3  UNL     1     -25.929  -3.584 -14.188  1.00  0.00     0.171 HD
HETATM   20  O2  UNL     1     -23.366  -4.050 -13.651  1.00  0.00    -0.247 OA
HETATM   21  N4  UNL     1     -24.427  -5.988 -12.847  1.00  0.00    -0.309 N
HETATM   22  C8  UNL     1     -25.715  -6.424 -12.794  1.00  0.00     0.053 A
ATOM     23  H4  UNL     1     -23.619  -6.504 -12.500  1.00  0.00     0.170 HD
BRANCH  22  24
HETATM   24  C9  UNL     1     -26.133  -7.681 -12.234  1.00  0.00     0.087 C
BRANCH  24  25
HETATM   25  C10 UNL     1     -26.170  -7.713 -10.749  1.00  0.00    -0.019 C
HETATM   26  C11 UNL     1     -27.276  -8.026 -10.064  1.00  0.00    -0.091 C
HETATM   27  C12 UNL     1     -28.498  -8.352 -10.836  1.00  0.00     0.042 C
HETATM   28  C13 UNL     1     -27.278  -8.043  -8.578  1.00  0.00     0.042 C
ENDBRANCH  24  25
ENDBRANCH  22  24
ENDBRANCH  14  16
ENDBRANCH   5  14
BRANCH   1  29
HETATM   29  N1  UNL     1     -32.661  -3.828 -14.611  1.00  0.00    -0.356 N
ATOM     30  H1  UNL     1     -33.464  -4.423 -14.810  1.00  0.00     0.163 HD
BRANCH  29  31
HETATM   31  C2  UNL     1     -32.082  -2.988 -15.641  1.00  0.00     0.118 C
HETATM   32  C1  UNL     1     -32.190  -1.503 -15.272  1.00  0.00     0.026 C
ENDBRANCH  29  31
ENDBRANCH   1  29
TORSDOF 6
ENDMDL