MODEL 1
REMARK VINA RESULT: -6.854606226      0.000      0.000
REMARK  8 active torsions:
REMARK  status: ('A' for Active; 'I' for Inactive)
REMARK    1  A    between atoms: C2_2  and  C3_3
REMARK    2  A    between atoms: N2_6  and  C4_7
REMARK    3  A    between atoms: C7_10  and  C8_11
REMARK    4  A    between atoms: C10_17  and  C11_18
REMARK    5  A    between atoms: C11_18  and  C12_19
REMARK    6  A    between atoms: C12_19  and  O1_20
REMARK    7  A    between atoms: C16_26  and  C17_27
REMARK    8  A    between atoms: C17_27  and  C18_28
ROOT
HETATM    1  C3  UNL     1     -27.072  -4.028 -13.501  1.00  0.00     0.060 A
HETATM    2  N1  UNL     1     -27.852  -3.315 -14.302  1.00  0.00    -0.290 N
ATOM      3  H1  UNL     1     -27.577  -2.430 -14.728  1.00  0.00     0.187 HD
HETATM    4  N2  UNL     1     -29.050  -3.900 -14.483  1.00  0.00    -0.220 N
HETATM    5  C15 UNL     1     -29.027  -5.027 -13.767  1.00  0.00     0.279 A
HETATM    6  O2  UNL     1     -29.921  -5.894 -13.631  1.00  0.00    -0.265 OA
HETATM    7  C16 UNL     1     -27.796  -5.143 -13.133  1.00  0.00     0.062 A
ENDROOT
BRANCH   4   8
HETATM    8  C4  UNL     1     -30.083  -3.359 -15.296  1.00  0.00     0.060 A
HETATM    9  C5  UNL     1     -30.230  -3.669 -16.623  1.00  0.00     0.032 A
HETATM   10  C6  UNL     1     -31.248  -3.110 -17.360  1.00  0.00     0.016 A
HETATM   11  C7  UNL     1     -32.180  -2.206 -16.813  1.00  0.00    -0.007 A
HETATM   12  C13 UNL     1     -32.026  -1.907 -15.495  1.00  0.00     0.016 A
HETATM   13  C14 UNL     1     -30.992  -2.478 -14.755  1.00  0.00     0.032 A
BRANCH  11  14
HETATM   14  C8  UNL     1     -33.244  -1.680 -17.633  1.00  0.00     0.066 A
HETATM   15  N3  UNL     1     -34.230  -2.506 -18.105  1.00  0.00    -0.350 N
HETATM   16  C9  UNL     1     -35.048  -1.815 -18.891  1.00  0.00     0.181 A
ATOM     17  H3  UNL     1     -34.321  -3.497 -17.886  1.00  0.00     0.166 HD
HETATM   18  N4  UNL     1     -34.624  -0.569 -18.943  1.00  0.00    -0.354 N
HETATM   19  C10 UNL     1     -33.500  -0.454 -18.168  1.00  0.00     0.040 A
ATOM     20  H4  UNL     1     -35.061   0.185 -19.473  1.00  0.00     0.166 HD
BRANCH  19  21
HETATM   21  C11 UNL     1     -32.788   0.812 -17.996  1.00  0.00     0.085 C
BRANCH  21  22
HETATM   22  C12 UNL     1     -33.410   2.009 -18.621  1.00  0.00     0.170 C
BRANCH  22  23
HETATM   23  O1  UNL     1     -34.610   2.366 -17.947  1.00  0.00    -0.400 OA
ATOM     24  H1  UNL     1     -34.771   3.299 -18.014  1.00  0.00     0.209 HD
ENDBRANCH  22  23
ENDBRANCH  21  22
ENDBRANCH  19  21
ENDBRANCH  11  14
ENDBRANCH   4   8
BRANCH   1  25
HETATM   25  C2  UNL     1     -25.841  -3.709 -13.134  1.00  0.00     0.001 C
HETATM   26  C1  UNL     1     -24.677  -4.219 -13.891  1.00  0.00     0.038 C
ENDBRANCH   1  25
BRANCH   7  27
HETATM   27  C17 UNL     1     -27.381  -6.118 -12.337  1.00  0.00     0.034 C
BRANCH  27  28
HETATM   28  C18 UNL     1     -27.806  -6.199 -10.943  1.00  0.00     0.004 A
HETATM   29  C19 UNL     1     -28.631  -5.174 -10.481  1.00  0.00     0.014 A
HETATM   30  C20 UNL     1     -29.083  -5.173  -9.175  1.00  0.00     0.001 A
HETATM   31  C21 UNL     1     -28.709  -6.196  -8.332  1.00  0.00     0.003 A
HETATM   32  C22 UNL     1     -27.893  -7.197  -8.813  1.00  0.00     0.043 A
HETATM   33  C23 UNL     1     -27.428  -7.218 -10.118  1.00  0.00     0.126 A
HETATM   34  F1  UNL     1     -26.622  -8.211 -10.588  1.00  0.00    -0.205 F
ENDBRANCH  27  28
ENDBRANCH   7  27
TORSDOF 8
ENDMDL