MODEL 1
REMARK VINA RESULT: -6.930672088      0.000      0.000
REMARK  7 active torsions:
REMARK  status: ('A' for Active; 'I' for Inactive)
REMARK    1  A    between atoms: N1_1  and  S1_4
REMARK    2  A    between atoms: S1_4  and  C1_7
REMARK    3  A    between atoms: C4_10  and  N2_11
REMARK    4  A    between atoms: N2_11  and  C5_13
REMARK    5  A    between atoms: N4_20  and  C9_22
REMARK    6  A    between atoms: C9_22  and  C10_23
REMARK    7  A    between atoms: C10_23  and  C11_24
ROOT
HETATM    1  C5  UNL     1     -26.186  -8.529 -10.981  1.00  0.00     0.684 A
HETATM    2  N3  UNL     1     -26.343  -8.946  -9.716  1.00  0.00    -0.200 N
ATOM      3  H3  UNL     1     -25.863  -9.781  -9.379  1.00  0.00     0.183 HD
HETATM    4  C6  UNL     1     -27.141  -8.242  -8.906  1.00  0.00     0.133 A
HETATM    5  C7  UNL     1     -27.813  -7.093  -9.342  1.00  0.00     0.094 A
HETATM    6 CL1  UNL     1     -28.826  -6.263  -8.188  1.00  0.00    -0.079 Cl
HETATM    7  C8  UNL     1     -27.650  -6.671 -10.636  1.00  0.00     0.140 A
HETATM    8  N4  UNL     1     -28.196  -5.662 -11.146  1.00  0.00    -0.374 N
ATOM      9  H4  UNL     1     -27.914  -5.565 -12.121  1.00  0.00     0.161 HD
HETATM   10  N5  UNL     1     -26.809  -7.454 -11.398  1.00  0.00    -0.175 N
ATOM     11  H5  UNL     1     -26.661  -7.174 -12.367  1.00  0.00     0.186 HD
ENDROOT
BRANCH   1  12
HETATM   12  N2  UNL     1     -25.401  -9.221 -11.774  1.00  0.00    -0.192 N
ATOM     13  H2  UNL     1     -25.530  -9.167 -12.784  1.00  0.00     0.184 HD
BRANCH  12  14
HETATM   14  C4  UNL     1     -24.386 -10.032 -11.248  1.00  0.00     0.049 A
HETATM   15  C3  UNL     1     -24.462 -11.425 -11.248  1.00  0.00     0.031 A
HETATM   16  C2  UNL     1     -23.459 -12.216 -10.729  1.00  0.00     0.027 A
HETATM   17  C1  UNL     1     -22.331 -11.635 -10.183  1.00  0.00     0.079 A
HETATM   18  C18 UNL     1     -22.268 -10.266 -10.187  1.00  0.00     0.027 A
HETATM   19  C17 UNL     1     -23.257  -9.461 -10.701  1.00  0.00     0.031 A
BRANCH  17  20
HETATM   20  S1  UNL     1     -21.023 -12.571  -9.508  1.00  0.00     0.256 S
HETATM   21  O1  UNL     1     -20.338 -13.420 -10.521  1.00  0.00    -0.201 OA
HETATM   22  O2  UNL     1     -20.020 -11.603  -8.933  1.00  0.00    -0.201 OA
BRANCH  20  23
HETATM   23  N1  UNL     1     -21.661 -13.514  -8.204  1.00  0.00    -0.324 N
ATOM     24  H12 UNL     1     -21.449 -14.503  -8.073  1.00  0.00     0.169 HD
ATOM     25  H11 UNL     1     -22.267 -12.961  -7.597  1.00  0.00     0.169 HD
ENDBRANCH  20  23
ENDBRANCH  17  20
ENDBRANCH  12  14
ENDBRANCH   1  12
BRANCH   8  26
HETATM   26  C9  UNL     1     -29.060  -4.644 -10.795  1.00  0.00     0.126 C
BRANCH  26  27
HETATM   27  C10 UNL     1     -30.114  -4.491 -11.908  1.00  0.00     0.058 C
BRANCH  27  28
HETATM   28  C11 UNL     1     -31.184  -3.631 -11.376  1.00  0.00    -0.057 A
HETATM   29  C12 UNL     1     -32.061  -2.993 -12.218  1.00  0.00     0.007 A
HETATM   30  C13 UNL     1     -33.069  -2.183 -11.722  1.00  0.00     0.001 A
HETATM   31  C14 UNL     1     -33.222  -1.994 -10.369  1.00  0.00     0.000 A
HETATM   32  C15 UNL     1     -32.344  -2.632  -9.517  1.00  0.00     0.001 A
HETATM   33  C16 UNL     1     -31.324  -3.452 -10.021  1.00  0.00     0.007 A
ENDBRANCH  27  28
ENDBRANCH  26  27
ENDBRANCH   8  26
TORSDOF 7
ENDMDL