MODEL 1
REMARK VINA RESULT: -6.240406906      0.000      0.000
REMARK  7 active torsions:
REMARK  status: ('A' for Active; 'I' for Inactive)
REMARK    1  A    between atoms: O1_2  and  C2_3
REMARK    2  A    between atoms: C10_14  and  N2_15
REMARK    3  A    between atoms: N2_15  and  C11_17
REMARK    4  A    between atoms: C14_22  and  N4_23
REMARK    5  A    between atoms: N4_23  and  C15_25
REMARK    6  A    between atoms: C15_25  and  C16_26
REMARK    7  A    between atoms: C16_26  and  C17_27
ROOT
HETATM    1  C11 UNL     1     -26.837  -8.243 -11.661  1.00  0.00     0.683 A
HETATM    2  N3  UNL     1     -26.460  -9.464 -11.354  1.00  0.00    -0.202 N
ATOM      3  H3  UNL     1     -27.168 -10.162 -11.127  1.00  0.00     0.183 HD
HETATM    4  C12 UNL     1     -25.142  -9.818 -11.331  1.00  0.00     0.110 A
HETATM    5  C13 UNL     1     -24.176  -8.889 -11.634  1.00  0.00     0.066 A
HETATM    6  C14 UNL     1     -24.590  -7.611 -11.955  1.00  0.00     0.118 A
HETATM    7  N5  UNL     1     -25.878  -7.327 -11.961  1.00  0.00    -0.177 N
ATOM      8  H5  UNL     1     -26.167  -6.378 -12.200  1.00  0.00     0.186 HD
ENDROOT
BRANCH   1   9
HETATM    9  N2  UNL     1     -28.082  -7.832 -11.629  1.00  0.00    -0.194 N
ATOM     10  H2  UNL     1     -28.756  -8.227 -12.285  1.00  0.00     0.184 HD
BRANCH   9  11
HETATM   11  C10 UNL     1     -28.518  -6.835 -10.685  1.00  0.00     0.042 A
HETATM   12  C6  UNL     1     -29.290  -5.846 -11.072  1.00  0.00     0.038 A
HETATM   13  C5  UNL     1     -29.679  -5.654 -12.380  1.00  0.00     0.048 A
HETATM   14  C7  UNL     1     -29.798  -4.984 -10.085  1.00  0.00     0.075 A
HETATM   15  C4  UNL     1     -30.546  -4.655 -12.764  1.00  0.00     0.028 A
HETATM   16 CL1  UNL     1     -29.019  -6.632 -13.680  1.00  0.00    -0.083 Cl
HETATM   17  C3  UNL     1     -31.054  -3.803 -11.817  1.00  0.00     0.041 A
HETATM   18  C2  UNL     1     -30.675  -3.983 -10.519  1.00  0.00     0.095 A
HETATM   19  N1  UNL     1     -29.520  -5.078  -8.844  1.00  0.00    -0.387 N
HETATM   20  C8  UNL     1     -28.656  -6.042  -8.283  1.00  0.00     0.126 A
ATOM     21  H1  UNL     1     -29.953  -4.407  -8.210  1.00  0.00     0.159 HD
HETATM   22  C9  UNL     1     -28.115  -6.990  -9.276  1.00  0.00     0.078 A
BRANCH  18  23
HETATM   23  O1  UNL     1     -31.178  -3.127  -9.543  1.00  0.00    -0.354 OA
HETATM   24  C1  UNL     1     -32.522  -2.703  -9.621  1.00  0.00     0.210 C
ENDBRANCH  18  23
ENDBRANCH   9  11
ENDBRANCH   1   9
BRANCH   6  25
HETATM   25  N4  UNL     1     -23.661  -6.747 -12.240  1.00  0.00    -0.376 N
ATOM     26  H4  UNL     1     -23.139  -6.325 -11.472  1.00  0.00     0.161 HD
BRANCH  25  27
HETATM   27  C15 UNL     1     -23.335  -6.362 -13.577  1.00  0.00     0.126 C
BRANCH  27  28
HETATM   28  C16 UNL     1     -23.482  -4.840 -13.690  1.00  0.00     0.058 C
BRANCH  28  29
HETATM   29  C17 UNL     1     -24.850  -4.509 -14.146  1.00  0.00    -0.057 A
HETATM   30  C18 UNL     1     -25.258  -4.838 -15.439  1.00  0.00     0.007 A
HETATM   31  C19 UNL     1     -26.521  -4.544 -15.889  1.00  0.00     0.001 A
HETATM   32  C20 UNL     1     -27.415  -3.913 -15.061  1.00  0.00     0.000 A
HETATM   33  C21 UNL     1     -27.035  -3.573 -13.765  1.00  0.00     0.001 A
HETATM   34  C22 UNL     1     -25.763  -3.884 -13.353  1.00  0.00     0.007 A
ENDBRANCH  28  29
ENDBRANCH  27  28
ENDBRANCH  25  27
ENDBRANCH   6  25
TORSDOF 7
ENDMDL