MODEL 4
REMARK VINA RESULT: -4.268984105      5.930      8.854
REMARK  4 active torsions:
REMARK  status: ('A' for Active; 'I' for Inactive)
REMARK    1  A    between atoms: N1_2  and  C2_3
REMARK    2  A    between atoms: N1_2  and  S1_16
REMARK    3  A    between atoms: C4_10  and  N4_11
REMARK    4  A    between atoms: S1_16  and  N6_17
ROOT
HETATM    1  C2  UNL     1       9.574  25.938  -4.076  1.00  0.00     0.713 A
HETATM    2  N2  UNL     1       9.470  25.174  -2.974  1.00  0.00    -0.139 N
ATOM      3  H2  UNL     1      10.111  24.388  -2.860  1.00  0.00     0.189 HD
HETATM    4  C3  UNL     1       8.554  25.404  -2.018  1.00  0.00     0.352 A
HETATM    5  O1  UNL     1       8.475  24.662  -0.980  1.00  0.00    -0.246 OA
HETATM    6  N3  UNL     1       7.721  26.442  -2.188  1.00  0.00    -0.141 N
ATOM      7  H3  UNL     1       7.019  26.637  -1.474  1.00  0.00     0.189 HD
HETATM    8  C4  UNL     1       7.789  27.240  -3.282  1.00  0.00     0.694 A
HETATM    9  N5  UNL     1       8.725  26.971  -4.216  1.00  0.00    -0.021 N
ATOM     10  H5  UNL     1       8.789  27.562  -5.044  1.00  0.00     0.203 HD
ENDROOT
BRANCH   1  11
HETATM   11  N1  UNL     1      10.531  25.719  -5.102  1.00  0.00    -0.095 N
HETATM   12  C1  UNL     1      11.962  25.786  -4.775  1.00  0.00     0.191 C
BRANCH  11  13
HETATM   13  S1  UNL     1      10.116  25.376  -6.724  1.00  0.00     0.332 S
HETATM   14  O2  UNL     1       9.679  23.942  -6.901  1.00  0.00    -0.182 OA
HETATM   15  O3  UNL     1       9.054  26.324  -7.187  1.00  0.00    -0.182 OA
BRANCH  13  16
HETATM   16  N6  UNL     1      11.527  25.660  -7.696  1.00  0.00    -0.311 N
ATOM     17  H62 UNL     1      12.342  26.205  -7.412  1.00  0.00     0.170 HD
ATOM     18  H61 UNL     1      11.385  25.187  -8.588  1.00  0.00     0.170 HD
ENDBRANCH  13  16
ENDBRANCH  11  13
ENDBRANCH   1  11
BRANCH   8  19
HETATM   19  N4  UNL     1       6.987  28.239  -3.445  1.00  0.00    -0.234 N
ATOM     20  H42 UNL     1       7.353  29.191  -3.429  1.00  0.00     0.174 HD
ATOM     21  H41 UNL     1       5.986  28.106  -3.589  1.00  0.00     0.174 HD
ENDBRANCH   8  19
TORSDOF 4
ENDMDL