MODEL 2
REMARK VINA RESULT: -4.579275690      4.668      6.798
REMARK  4 active torsions:
REMARK  status: ('A' for Active; 'I' for Inactive)
REMARK    1  A    between atoms: N1_2  and  C2_4
REMARK    2  A    between atoms: C3_7  and  N3_8
REMARK    3  A    between atoms: N5_14  and  N6_16
REMARK    4  A    between atoms: C7_21  and  N8_22
ROOT
HETATM    1  C2  UNL     1      12.380  25.756  -7.603  1.00  0.00     0.706 A
HETATM    2  N2  UNL     1      11.547  26.311  -6.727  1.00  0.00    -0.021 N
ATOM      3  H2  UNL     1      11.910  27.051  -6.125  1.00  0.00     0.203 HD
HETATM    4  C3  UNL     1      10.236  25.953  -6.585  1.00  0.00     0.728 A
HETATM    5  N7  UNL     1       9.826  24.988  -7.397  1.00  0.00    -0.021 N
ATOM      6  H7  UNL     1       8.857  24.677  -7.339  1.00  0.00     0.203 HD
HETATM    7  C7  UNL     1      10.641  24.404  -8.293  1.00  0.00     0.705 A
HETATM    8  N9  UNL     1      11.938  24.784  -8.407  1.00  0.00    -0.022 N
ATOM      9  H9  UNL     1      12.557  24.341  -9.086  1.00  0.00     0.203 HD
ENDROOT
BRANCH   4  10
HETATM   10  N3  UNL     1       9.455  26.624  -5.618  1.00  0.00    -0.010 N
HETATM   11  C4  UNL     1       8.876  27.961  -5.819  1.00  0.00     0.187 C
HETATM   12  C5  UNL     1       8.304  28.398  -4.496  1.00  0.00     0.159 C
HETATM   13  N4  UNL     1       8.021  27.123  -3.848  1.00  0.00    -0.223 N
HETATM   14  C6  UNL     1       9.045  26.253  -4.315  1.00  0.00     0.709 C
ATOM     15  H4  UNL     1       7.261  26.905  -3.204  1.00  0.00     0.177 HD
HETATM   16  N5  UNL     1       9.508  25.284  -3.633  1.00  0.00    -0.138 N
ATOM     17  H5  UNL     1      10.243  24.724  -4.065  1.00  0.00     0.205 HD
BRANCH  16  18
HETATM   18  N6  UNL     1       9.110  24.923  -2.368  1.00  0.00    -0.331 N
ATOM     19  H62 UNL     1       8.426  25.537  -1.924  1.00  0.00     0.177 HD
ATOM     20  H61 UNL     1       9.434  24.109  -1.847  1.00  0.00     0.177 HD
ENDBRANCH  16  18
ENDBRANCH   4  10
BRANCH   1  21
HETATM   21  N1  UNL     1      13.611  26.134  -7.692  1.00  0.00    -0.229 N
HETATM   22  C1  UNL     1      14.440  25.869  -8.837  1.00  0.00     0.165 C
ATOM     23  H1  UNL     1      14.017  26.648  -6.909  1.00  0.00     0.177 HD
ENDBRANCH   1  21
BRANCH   7  24
HETATM   24  N8  UNL     1      10.166  23.470  -9.048  1.00  0.00    -0.234 N
ATOM     25  H82 UNL     1       9.434  23.679  -9.727  1.00  0.00     0.174 HD
ATOM     26  H81 UNL     1      10.537  22.524  -8.951  1.00  0.00     0.174 HD
ENDBRANCH   7  24
TORSDOF 4
ENDMDL