MODEL 2
REMARK VINA RESULT: -5.615487778      1.548      6.503
REMARK  4 active torsions:
REMARK  status: ('A' for Active; 'I' for Inactive)
REMARK    1  A    between atoms: N1_1  and  C1_4
REMARK    2  A    between atoms: C2_9  and  C3_10
REMARK    3  A    between atoms: C3_10  and  O1_11
REMARK    4  A    between atoms: O1_11  and  C4_12
ROOT
HETATM    1  C1  UNL     1      11.077  23.607  -8.865  1.00  0.00     0.164 A
HETATM    2  N2  UNL     1       9.851  23.862  -8.394  1.00  0.00    -0.282 N
ATOM      3  H2  UNL     1       9.081  23.247  -8.659  1.00  0.00     0.188 HD
HETATM    4  N3  UNL     1       9.604  24.894  -7.591  1.00  0.00    -0.301 N
ATOM      5  H3  UNL     1       8.652  25.044  -7.258  1.00  0.00     0.186 HD
HETATM    6  C2  UNL     1      10.566  25.744  -7.204  1.00  0.00     0.054 A
HETATM    7  C6  UNL     1      11.843  25.518  -7.666  1.00  0.00     0.087 A
HETATM    8  C7  UNL     1      12.100  24.454  -8.495  1.00  0.00     0.218 A
HETATM    9  O3  UNL     1      13.261  24.214  -8.940  1.00  0.00    -0.284 OA
ENDROOT
BRANCH   6  10
HETATM   10  C3  UNL     1      10.266  26.915  -6.286  1.00  0.00     0.237 C
BRANCH  10  11
HETATM   11  O1  UNL     1       9.692  26.630  -5.179  1.00  0.00    -0.315 OA
BRANCH  11  12
HETATM   12  C4  UNL     1       9.113  26.343  -4.061  1.00  0.00     0.242 A
HETATM   13  N4  UNL     1       9.431  25.329  -3.185  1.00  0.00    -0.272 N
HETATM   14  C5  UNL     1       8.618  25.343  -2.147  1.00  0.00     0.342 A
ATOM     15  H4  UNL     1      10.191  24.661  -3.319  1.00  0.00     0.174 HD
HETATM   16  O2  UNL     1       8.571  24.591  -1.129  1.00  0.00    -0.245 OA
HETATM   17  N5  UNL     1       7.759  26.354  -2.321  1.00  0.00    -0.248 N
HETATM   18  N6  UNL     1       8.041  26.952  -3.447  1.00  0.00    -0.261 N
ATOM     19  H5  UNL     1       7.009  26.614  -1.681  1.00  0.00     0.192 HD
ATOM     20  H6  UNL     1       7.538  27.757  -3.819  1.00  0.00     0.190 HD
ENDBRANCH  11  12
ENDBRANCH  10  11
ENDBRANCH   6  10
BRANCH   1  21
HETATM   21  N1  UNL     1      11.272  22.609  -9.631  1.00  0.00    -0.381 N
ATOM     22  H12 UNL     1      10.508  22.154 -10.130  1.00  0.00     0.157 HD
ATOM     23  H11 UNL     1      12.214  22.239  -9.759  1.00  0.00     0.157 HD
ENDBRANCH   1  21
TORSDOF 4
ENDMDL