MODEL 4
REMARK VINA RESULT: -4.521096076      8.499      9.583
REMARK  4 active torsions:
REMARK  status: ('A' for Active; 'I' for Inactive)
REMARK    1  A    between atoms: N1_2  and  N2_4
REMARK    2  A    between atoms: N2_4  and  C2_6
REMARK    3  A    between atoms: C5_15  and  N6_16
REMARK    4  A    between atoms: N8_22  and  O1_23
ROOT
HETATM    1  C2  UNL     1      14.059  26.232  -8.166  1.00  0.00     0.726 A
HETATM    2  N3  UNL     1      12.937  26.349  -7.481  1.00  0.00    -0.172 N
ATOM      3  H3  UNL     1      12.864  27.078  -6.772  1.00  0.00     0.186 HD
HETATM    4  C3  UNL     1      11.891  25.540  -7.688  1.00  0.00     0.139 A
HETATM    5  N4  UNL     1      10.735  25.672  -6.974  1.00  0.00    -0.337 N
ATOM      6  H4  UNL     1      10.636  26.393  -6.259  1.00  0.00     0.168 HD
HETATM    7  C4  UNL     1       9.734  24.819  -7.245  1.00  0.00     0.183 A
HETATM    8  N5  UNL     1       9.825  23.855  -8.179  1.00  0.00    -0.338 N
ATOM      9  H5  UNL     1       9.031  23.235  -8.341  1.00  0.00     0.168 HD
HETATM   10  C5  UNL     1      10.959  23.697  -8.906  1.00  0.00     0.117 A
HETATM   11  C6  UNL     1      12.003  24.563  -8.645  1.00  0.00     0.096 A
HETATM   12  C7  UNL     1      13.184  24.439  -9.366  1.00  0.00     0.180 A
HETATM   13  N7  UNL     1      13.339  23.445 -10.362  1.00  0.00    -0.078 NA
HETATM   14  N8  UNL     1      14.216  25.293  -9.110  1.00  0.00    -0.036 N
ENDROOT
BRANCH   1  15
HETATM   15  N2  UNL     1      15.074  27.018  -7.963  1.00  0.00    -0.135 N
ATOM     16  H2  UNL     1      15.573  26.959  -7.075  1.00  0.00     0.205 HD
BRANCH  15  17
HETATM   17  N1  UNL     1      15.504  27.940  -8.922  1.00  0.00    -0.327 N
HETATM   18  C1  UNL     1      14.612  29.013  -9.266  1.00  0.00     0.168 C
ATOM     19  H1  UNL     1      16.420  27.855  -9.362  1.00  0.00     0.180 HD
ENDBRANCH  15  17
ENDBRANCH   1  15
BRANCH  14  20
HETATM   20  O1  UNL     1      15.388  25.175  -9.821  1.00  0.00    -0.268 OA
ATOM     21  H1  UNL     1      15.389  25.091 -10.767  1.00  0.00     0.246 HD
ENDBRANCH  14  20
BRANCH  10  22
HETATM   22  N6  UNL     1      11.094  22.800  -9.803  1.00  0.00    -0.385 N
ATOM     23  H62 UNL     1      10.602  21.911  -9.705  1.00  0.00     0.157 HD
ATOM     24  H61 UNL     1      11.678  22.921 -10.630  1.00  0.00     0.157 HD
ENDBRANCH  10  22
TORSDOF 4
ENDMDL