MODEL 2
REMARK VINA RESULT: -5.077445732      1.656      2.304
REMARK  2 active torsions:
REMARK  status: ('A' for Active; 'I' for Inactive)
REMARK    1  A    between atoms: N3_6  and  N4_8
REMARK    2  A    between atoms: N5_10  and  C3_12
ROOT
HETATM    1  C1  UNL     1      16.371  20.179  -6.158  1.00  0.00     0.169 C
HETATM    2  N1  UNL     1      15.525  20.177  -7.127  1.00  0.00    -0.093 N
HETATM    3  N2  UNL     1      14.633  21.238  -7.329  1.00  0.00    -0.109 N
ATOM      4  H2  UNL     1      14.659  22.029  -6.687  1.00  0.00     0.207 HD
HETATM    5  C2  UNL     1      13.690  21.255  -8.394  1.00  0.00     0.728 A
HETATM    6  N3  UNL     1      12.877  22.232  -8.571  1.00  0.00    -0.114 N
ATOM      7  H3  UNL     1      12.911  23.020  -7.924  1.00  0.00     0.207 HD
HETATM    8  N10 UNL     1      13.626  20.166  -9.308  1.00  0.00    -0.115 N
ATOM      9  H10 UNL     1      12.958  20.157 -10.078  1.00  0.00     0.206 HD
HETATM   10  N11 UNL     1      14.519  19.105  -9.105  1.00  0.00    -0.116 N
ATOM     11  H11 UNL     1      14.493  18.313  -9.747  1.00  0.00     0.206 HD
HETATM   12  C4  UNL     1      15.466  19.088  -8.036  1.00  0.00     0.711 A
HETATM   13  N12 UNL     1      16.285  18.105  -7.858  1.00  0.00    -0.232 N
ATOM     14 1H12 UNL     1      16.242  17.322  -8.511  1.00  0.00     0.174 HD
ATOM     15 2H12 UNL     1      16.961  18.092  -7.094  1.00  0.00     0.174 HD
ENDROOT
BRANCH   6  16
HETATM   16  N4  UNL     1      11.951  22.259  -9.608  1.00  0.00    -0.214 N
HETATM   17  N5  UNL     1      10.949  23.033  -9.653  1.00  0.00    -0.114 N
ATOM     18  H5  UNL     1      10.322  22.983 -10.456  1.00  0.00     0.207 HD
ATOM     19  H4  UNL     1      12.088  21.613 -10.385  1.00  0.00     0.209 HD
BRANCH  17  20
HETATM   20  C3  UNL     1      10.669  23.971  -8.619  1.00  0.00     0.729 A
HETATM   21  N6  UNL     1      11.373  25.047  -8.226  1.00  0.00    -0.114 N
HETATM   22  N7  UNL     1      10.726  25.622  -7.224  1.00  0.00    -0.213 N
ATOM     23  H6  UNL     1      12.255  25.365  -8.630  1.00  0.00     0.207 HD
HETATM   24  N8  UNL     1       9.632  24.961  -6.954  1.00  0.00    -0.213 N
ATOM     25  H7  UNL     1      11.037  26.460  -6.734  1.00  0.00     0.210 HD
HETATM   26  N9  UNL     1       9.581  23.946  -7.800  1.00  0.00    -0.114 N
ATOM     27  H8  UNL     1       8.948  25.185  -6.230  1.00  0.00     0.210 HD
ATOM     28  H9  UNL     1       8.838  23.248  -7.834  1.00  0.00     0.207 HD
ENDBRANCH  17  20
ENDBRANCH   6  16
TORSDOF 2
ENDMDL