MODEL 4
REMARK VINA RESULT: -5.164452278      0.506      1.210
REMARK  2 active torsions:
REMARK  status: ('A' for Active; 'I' for Inactive)
REMARK    1  A    between atoms: C3_8  and  C4_9
REMARK    2  A    between atoms: C4_9  and  N3_10
ROOT
HETATM    1  N1  UNL     1       9.446  25.562  -6.968  1.00  0.00    -0.233 N
ATOM      2  H11 UNL     1       9.622  26.296  -6.283  1.00  0.00     0.174 HD
ATOM      3  H12 UNL     1       8.471  25.286  -7.087  1.00  0.00     0.174 HD
HETATM    4  C1  UNL     1      10.381  24.996  -7.663  1.00  0.00     0.690 A
HETATM    5  N2  UNL     1      10.136  23.981  -8.613  1.00  0.00    -0.199 N
ATOM      6  H2  UNL     1       9.178  23.668  -8.770  1.00  0.00     0.183 HD
HETATM    7  C2  UNL     1      11.186  23.386  -9.353  1.00  0.00     0.134 A
HETATM    8  C3  UNL     1      12.442  23.750  -9.192  1.00  0.00     0.062 A
HETATM    9  N6  UNL     1      12.747  24.763  -8.253  1.00  0.00    -0.288 N
ATOM     10  H6  UNL     1      13.719  25.046  -8.127  1.00  0.00     0.187 HD
HETATM   11  N7  UNL     1      11.759  25.386  -7.496  1.00  0.00    -0.132 N
ATOM     12  H7  UNL     1      12.008  26.114  -6.827  1.00  0.00     0.205 HD
ENDROOT
BRANCH   8  13
HETATM   13  C4  UNL     1      13.545  23.148  -9.948  1.00  0.00     0.213 C
BRANCH  13  14
HETATM   14  N3  UNL     1      14.007  21.892  -9.385  1.00  0.00    -0.237 N
HETATM   15  N4  UNL     1      13.587  21.340  -8.226  1.00  0.00    -0.241 N
HETATM   16  N5  UNL     1      13.628  20.005  -8.073  1.00  0.00    -0.117 NA
ATOM     17  H4  UNL     1      13.240  21.932  -7.471  1.00  0.00     0.204 HD
HETATM   18  C5  UNL     1      14.968  19.498  -8.281  1.00  0.00     0.225 C
HETATM   19  C6  UNL     1      15.487  19.922  -9.593  1.00  0.00     0.234 C
HETATM   20  O1  UNL     1      16.320  19.261 -10.266  1.00  0.00    -0.286 OA
HETATM   21  C7  UNL     1      14.995  21.199 -10.145  1.00  0.00     0.310 C
HETATM   22  O2  UNL     1      15.446  21.629 -11.239  1.00  0.00    -0.262 OA
ENDBRANCH  13  14
ENDBRANCH   8  13
TORSDOF 2
ENDMDL