MODEL 3
REMARK VINA RESULT: -4.626466008      1.026      2.669
REMARK  2 active torsions:
REMARK  status: ('A' for Active; 'I' for Inactive)
REMARK       I    between atoms: N1_1  and  C1_5
REMARK       I    between atoms: C1_5  and  N2_6
REMARK       I    between atoms: C1_5  and  N3_10
REMARK    1  A    between atoms: N3_10  and  N4_12
REMARK    2  A    between atoms: N4_12  and  C2_14
ROOT
HETATM    1  C2  UNL     1      10.881  25.385  -7.103  1.00  0.00     0.150 A
HETATM    2  N5  UNL     1       9.751  24.742  -7.436  1.00  0.00    -0.336 N
ATOM      3  H5  UNL     1       8.906  24.903  -6.890  1.00  0.00     0.168 HD
HETATM    4  C3  UNL     1       9.711  23.879  -8.490  1.00  0.00     0.182 A
HETATM    5  N6  UNL     1      10.851  23.699  -9.182  1.00  0.00    -0.346 N
ATOM      6  H6  UNL     1      10.833  23.054  -9.972  1.00  0.00     0.167 HD
HETATM    7  C4  UNL     1      12.000  24.307  -8.900  1.00  0.00     0.132 A
HETATM    8  C5  UNL     1      13.167  24.097  -9.641  1.00  0.00     0.275 A
HETATM    9  O1  UNL     1      13.145  23.303 -10.618  1.00  0.00    -0.266 OA
HETATM   10  N7  UNL     1      14.296  24.725  -9.327  1.00  0.00    -0.318 N
ATOM     11  H7  UNL     1      15.145  24.572  -9.869  1.00  0.00     0.169 HD
HETATM   12  C6  UNL     1      14.292  25.572  -8.275  1.00  0.00     0.184 A
HETATM   13  N8  UNL     1      13.174  25.789  -7.547  1.00  0.00    -0.347 N
ATOM     14  H8  UNL     1      13.208  26.436  -6.759  1.00  0.00     0.167 HD
HETATM   15  C7  UNL     1      12.034  25.177  -7.835  1.00  0.00     0.111 A
ENDROOT
BRANCH   1  16
HETATM   16  N4  UNL     1      10.928  26.202  -6.109  1.00  0.00    -0.285 N
ATOM     17  H4  UNL     1      11.029  27.199  -6.300  1.00  0.00     0.188 HD
BRANCH  16  18
HETATM   18  N3  UNL     1      10.846  25.785  -4.784  1.00  0.00    -0.282 N
HETATM   19  C1  UNL     1       9.559  25.575  -4.162  1.00  0.00     0.494 C
HETATM   20  N1  UNL     1       9.714  25.146  -2.795  1.00  0.00    -0.032 N
HETATM   21  N2  UNL     1       8.740  26.765  -4.157  1.00  0.00    -0.032 N
ATOM     22  H13 UNL     1      10.082  25.879  -2.188  1.00  0.00     0.279 HD
ATOM     23  H12 UNL     1       8.822  25.013  -2.317  1.00  0.00     0.279 HD
ATOM     24  H11 UNL     1      10.292  24.306  -2.798  1.00  0.00     0.279 HD
ATOM     25  H23 UNL     1       7.848  26.632  -3.680  1.00  0.00     0.279 HD
ATOM     26  H22 UNL     1       9.107  27.498  -3.550  1.00  0.00     0.279 HD
ATOM     27  H21 UNL     1       8.630  27.068  -5.125  1.00  0.00     0.279 HD
ATOM     28  H3  UNL     1      11.700  25.626  -4.249  1.00  0.00     0.184 HD
ENDBRANCH  16  18
ENDBRANCH   1  16
TORSDOF 2
ENDMDL