MODEL 5
REMARK VINA RESULT: -4.335445569      3.154      6.384
REMARK  4 active torsions:
REMARK  status: ('A' for Active; 'I' for Inactive)
REMARK    1  A    between atoms: C1_4  and  N2_5
REMARK    2  A    between atoms: N2_5  and  C2_7
REMARK    3  A    between atoms: C4_11  and  N4_12
REMARK       I    between atoms: N4_12  and  C5_14
REMARK       I    between atoms: C5_14  and  N5_15
REMARK       I    between atoms: C5_14  and  N6_19
REMARK    4  A    between atoms: N9_27  and  O1_28
ROOT
HETATM    1  C2  UNL     1      13.284  22.299  -8.533  1.00  0.00     0.712 C
HETATM    2  N3  UNL     1      14.232  22.870  -7.739  1.00  0.00    -0.196 N
ATOM      3  H3  UNL     1      15.004  22.277  -7.434  1.00  0.00     0.183 HD
HETATM    4  C3  UNL     1      14.237  24.171  -7.316  1.00  0.00     0.154 C
HETATM    5  C4  UNL     1      13.116  24.910  -7.031  1.00  0.00     0.122 C
HETATM    6  N7  UNL     1      11.910  24.811  -7.618  1.00  0.00    -0.313 N
ATOM      7  H7  UNL     1      11.269  25.582  -7.429  1.00  0.00     0.170 HD
HETATM    8  C6  UNL     1      11.417  23.830  -8.428  1.00  0.00     0.239 C
HETATM    9  N8  UNL     1      10.062  23.947  -8.849  1.00  0.00    -0.060 NA
HETATM   10  N9  UNL     1      12.068  22.760  -8.876  1.00  0.00    -0.021 N
ENDROOT
BRANCH   5  11
HETATM   11  N4  UNL     1      13.222  25.769  -6.132  1.00  0.00    -0.326 N
HETATM   12  C5  UNL     1      12.641  25.891  -4.847  1.00  0.00     0.481 C
HETATM   13  N5  UNL     1      11.218  25.668  -4.795  1.00  0.00    -0.033 N
HETATM   14  N6  UNL     1      13.282  24.955  -3.949  1.00  0.00    -0.033 N
ATOM     15  H53 UNL     1      10.741  26.281  -5.456  1.00  0.00     0.278 HD
ATOM     16  H52 UNL     1      10.990  24.759  -5.199  1.00  0.00     0.278 HD
ATOM     17  H51 UNL     1      10.799  25.756  -3.869  1.00  0.00     0.278 HD
ATOM     18  H63 UNL     1      13.252  23.998  -4.299  1.00  0.00     0.278 HD
ATOM     19  H62 UNL     1      14.295  25.069  -3.929  1.00  0.00     0.278 HD
ATOM     20  H61 UNL     1      12.863  25.044  -3.024  1.00  0.00     0.278 HD
ATOM     21  H4  UNL     1      13.852  26.535  -6.370  1.00  0.00     0.164 HD
ENDBRANCH   5  11
BRANCH   1  22
HETATM   22  N2  UNL     1      13.551  21.147  -9.050  1.00  0.00    -0.186 N
ATOM     23  H2  UNL     1      13.408  21.001 -10.050  1.00  0.00     0.185 HD
BRANCH  22  24
HETATM   24  C1  UNL     1      14.031  20.097  -8.266  1.00  0.00     0.191 C
HETATM   25  N1  UNL     1      14.258  18.949  -8.779  1.00  0.00    -0.395 N
ATOM     26  H12 UNL     1      14.081  18.815  -9.776  1.00  0.00     0.156 HD
ATOM     27  H11 UNL     1      14.609  18.182  -8.206  1.00  0.00     0.156 HD
ENDBRANCH  22  24
ENDBRANCH   1  22
BRANCH  10  28
HETATM   28  O1  UNL     1      11.406  22.021  -9.823  1.00  0.00    -0.267 OA
ATOM     29  H1  UNL     1      11.941  21.401 -10.303  1.00  0.00     0.246 HD
ENDBRANCH  10  28
TORSDOF 4
ENDMDL