MODEL 4
REMARK VINA RESULT: -4.300580902      4.398      6.214
REMARK  6 active torsions:
REMARK  status: ('A' for Active; 'I' for Inactive)
REMARK    1  A    between atoms: N1_1  and  N2_4
REMARK    2  A    between atoms: N2_4  and  C1_6
REMARK    3  A    between atoms: C1_6  and  N3_7
REMARK    4  A    between atoms: N3_7  and  S1_9
REMARK    5  A    between atoms: S1_9  and  C2_12
REMARK    6  A    between atoms: C4_19  and  O4_20
ROOT
HETATM    1  S1  UNL     1      10.457  26.184  -5.584  1.00  0.00     0.290 S
HETATM    2  O1  UNL     1      11.631  25.252  -5.474  1.00  0.00    -0.198 OA
HETATM    3  O2  UNL     1      10.895  27.612  -5.730  1.00  0.00    -0.198 OA
ENDROOT
BRANCH   1   4
HETATM    4  N3  UNL     1       9.411  25.708  -6.887  1.00  0.00    -0.228 N
ATOM      5  H3  UNL     1       8.604  26.271  -7.155  1.00  0.00     0.190 HD
BRANCH   4   6
HETATM    6  C1  UNL     1       9.698  24.618  -7.497  1.00  0.00     0.078 C
BRANCH   6   7
HETATM    7  N2  UNL     1       9.784  23.504  -8.135  1.00  0.00    -0.257 N
ATOM      8  H2  UNL     1       9.220  22.705  -7.844  1.00  0.00     0.197 HD
BRANCH   7   9
HETATM    9  N1  UNL     1      10.647  23.391  -9.224  1.00  0.00    -0.337 N
ATOM     10  H12 UNL     1      10.843  24.217  -9.789  1.00  0.00     0.177 HD
ATOM     11  H11 UNL     1      11.072  22.490  -9.445  1.00  0.00     0.177 HD
ENDBRANCH   7   9
ENDBRANCH   6   7
ENDBRANCH   4   6
ENDBRANCH   1   4
BRANCH   1  12
HETATM   12  C2  UNL     1       9.528  26.051  -4.113  1.00  0.00     0.205 A
HETATM   13  N4  UNL     1       9.664  25.106  -3.170  1.00  0.00    -0.294 N
HETATM   14  C3  UNL     1       8.770  25.353  -2.205  1.00  0.00     0.327 A
ATOM     15  H4  UNL     1      10.332  24.335  -3.185  1.00  0.00     0.171 HD
HETATM   16  O3  UNL     1       8.595  24.693  -1.166  1.00  0.00    -0.247 OA
HETATM   17  N5  UNL     1       8.063  26.460  -2.542  1.00  0.00    -0.287 N
HETATM   18  C4  UNL     1       8.526  26.899  -3.722  1.00  0.00     0.185 A
ATOM     19  H5  UNL     1       7.313  26.883  -1.996  1.00  0.00     0.172 HD
BRANCH  18  20
HETATM   20  O4  UNL     1       8.031  28.032  -4.387  1.00  0.00    -0.344 OA
ATOM     21  H4  UNL     1       8.489  28.834  -4.609  1.00  0.00     0.219 HD
ENDBRANCH  18  20
ENDBRANCH   1  12
TORSDOF 6
ENDMDL