MODEL 5
REMARK VINA RESULT: -4.542435645      1.018      1.926
REMARK  6 active torsions:
REMARK  status: ('A' for Active; 'I' for Inactive)
REMARK    1  A    between atoms: N1_1  and  C1_4
REMARK    2  A    between atoms: C3_13  and  O2_14
REMARK    3  A    between atoms: O2_14  and  S1_15
REMARK    4  A    between atoms: S1_15  and  N5_16
REMARK    5  A    between atoms: S1_15  and  N6_20
REMARK    6  A    between atoms: N6_20  and  N7_22
ROOT
HETATM    1  C1  UNL     1      10.745  24.055  -8.701  1.00  0.00     0.157 A
HETATM    2  N2  UNL     1      11.587  23.412  -9.530  1.00  0.00    -0.290 N
ATOM      3  H2  UNL     1      11.230  22.648 -10.103  1.00  0.00     0.172 HD
HETATM    4  C2  UNL     1      12.881  23.746  -9.623  1.00  0.00     0.340 A
HETATM    5  O1  UNL     1      13.601  23.083 -10.433  1.00  0.00    -0.245 OA
HETATM    6  N3  UNL     1      13.355  24.738  -8.881  1.00  0.00    -0.249 N
ATOM      7  H3  UNL     1      14.338  25.002  -8.943  1.00  0.00     0.192 HD
HETATM    8  N4  UNL     1      12.551  25.373  -8.072  1.00  0.00    -0.272 N
ATOM      9  H4  UNL     1      12.934  26.133  -7.510  1.00  0.00     0.189 HD
HETATM   10  C3  UNL     1      11.251  25.079  -7.940  1.00  0.00     0.219 A
ENDROOT
BRANCH  10  11
HETATM   11  O2  UNL     1      10.500  25.813  -7.058  1.00  0.00    -0.208 OA
BRANCH  11  12
HETATM   12  S1  UNL     1      10.809  25.895  -5.392  1.00  0.00     0.253 S
HETATM   13  O3  UNL     1      12.022  25.103  -5.016  1.00  0.00    -0.197 OA
BRANCH  12  14
HETATM   14  N5  UNL     1      10.904  27.536  -4.929  1.00  0.00    -0.322 N
ATOM     15  H52 UNL     1      10.721  28.326  -5.547  1.00  0.00     0.169 HD
ATOM     16  H51 UNL     1      11.171  27.585  -3.946  1.00  0.00     0.169 HD
ENDBRANCH  12  14
BRANCH  12  17
HETATM   17  N6  UNL     1       9.596  25.258  -4.597  1.00  0.00    -0.228 N
ATOM     18  H6  UNL     1       8.693  25.083  -5.037  1.00  0.00     0.200 HD
BRANCH  17  19
HETATM   19  N7  UNL     1       9.837  24.950  -3.264  1.00  0.00    -0.335 N
ATOM     20  H72 UNL     1      10.712  25.217  -2.812  1.00  0.00     0.177 HD
ATOM     21  H71 UNL     1       9.092  24.449  -2.779  1.00  0.00     0.177 HD
ENDBRANCH  17  19
ENDBRANCH  12  17
ENDBRANCH  11  12
ENDBRANCH  10  11
BRANCH   1  22
HETATM   22  N1  UNL     1       9.514  23.735  -8.618  1.00  0.00    -0.382 N
ATOM     23  H12 UNL     1       9.098  23.097  -9.296  1.00  0.00     0.157 HD
ATOM     24  H11 UNL     1       8.914  24.102  -7.878  1.00  0.00     0.157 HD
ENDBRANCH   1  22
TORSDOF 6
ENDMDL