MODEL 5
REMARK VINA RESULT: -4.684643209      5.805      6.805
REMARK  1 active torsions:
REMARK  status: ('A' for Active; 'I' for Inactive)
REMARK    1  A    between atoms: C2_2  and  C4_4
ROOT
HETATM    1  C4  UNL     1     -18.796 -32.694  16.401  1.00  0.00     0.220 C
HETATM    2  C5  UNL     1     -18.265 -31.395  16.934  1.00  0.00     0.201 C
HETATM    3  O1  UNL     1     -19.209 -30.752  17.691  1.00  0.00    -0.381 OA
HETATM    4  C6  UNL     1     -19.800 -31.505  18.666  1.00  0.00     0.278 C
HETATM    5  C7  UNL     1     -20.372 -32.812  18.113  1.00  0.00     0.425 C
HETATM    6  F1  UNL     1     -20.842 -33.570  19.139  1.00  0.00    -0.172 F
HETATM    7  F2  UNL     1     -21.346 -32.456  17.199  1.00  0.00    -0.172 F
HETATM    8  N1  UNL     1     -19.311 -33.567  17.431  1.00  0.00    -0.001 N
ATOM      9  H11 UNL     1     -18.591 -33.917  18.064  1.00  0.00     0.285 HD
ATOM     10  H12 UNL     1     -19.619 -34.473  17.080  1.00  0.00     0.285 HD
ENDROOT
BRANCH   1  11
HETATM   11  C2  UNL     1     -17.772 -33.409  15.553  1.00  0.00     0.010 C
HETATM   12  C1  UNL     1     -17.089 -32.470  14.599  1.00  0.00     0.011 C
HETATM   13  C3  UNL     1     -16.737 -34.112  16.373  1.00  0.00     0.011 C
ENDBRANCH   1  11
TORSDOF 1
ENDMDL