MODEL 2
REMARK VINA RESULT: -4.519464793      2.559      3.671
REMARK  1 active torsions:
REMARK  status: ('A' for Active; 'I' for Inactive)
REMARK    1  A    between atoms: N1_2  and  C2_5
ROOT
HETATM    1  C2  UNL     1     -19.175 -32.882  17.035  1.00  0.00     0.280 C
HETATM    2  C3  UNL     1     -18.248 -31.779  16.537  1.00  0.00     0.054 C
HETATM    3  C4  UNL     1     -17.887 -32.202  15.125  1.00  0.00     0.007 C
HETATM    4  C5  UNL     1     -17.091 -33.460  15.213  1.00  0.00     0.041 C
HETATM    5  C6  UNL     1     -17.298 -34.288  16.425  1.00  0.00     0.176 C
HETATM    6 CL1  UNL     1     -17.188 -35.999  15.906  1.00  0.00    -0.103 Cl
HETATM    7  N2  UNL     1     -18.518 -34.140  17.130  1.00  0.00    -0.379 N
ATOM      8  H2  UNL     1     -18.908 -34.904  17.682  1.00  0.00     0.156 HD
ENDROOT
BRANCH   1   9
HETATM    9  N1  UNL     1     -19.788 -32.409  18.238  1.00  0.00    -0.058 N
HETATM   10  C1  UNL     1     -21.212 -32.570  18.289  1.00  0.00     0.269 C
ATOM     11  H12 UNL     1     -19.537 -31.435  18.404  1.00  0.00     0.279 HD
ATOM     12  H11 UNL     1     -19.354 -32.845  19.051  1.00  0.00     0.279 HD
ENDBRANCH   1   9
TORSDOF 1
ENDMDL