MODEL 3
REMARK VINA RESULT: -3.650077938      2.085      3.079
REMARK  1 active torsions:
REMARK  status: ('A' for Active; 'I' for Inactive)
REMARK    1  A    between atoms: C2_2  and  C3_3
ROOT
HETATM    1  C3  UNL     1     -17.968 -28.351  16.338  1.00  0.00     0.361 C
HETATM    2 CL1  UNL     1     -18.894 -27.159  15.391  1.00  0.00    -0.058 Cl
HETATM    3  N1  UNL     1     -16.688 -27.748  16.741  1.00  0.00    -0.026 N
ATOM      4  H11 UNL     1     -16.000 -28.431  17.059  1.00  0.00     0.281 HD
ATOM      5  H12 UNL     1     -16.745 -27.215  17.608  1.00  0.00     0.281 HD
HETATM    6  C4  UNL     1     -16.242 -26.964  15.613  1.00  0.00     0.238 C
HETATM    7  C5  UNL     1     -16.065 -27.846  14.434  1.00  0.00     0.055 C
HETATM    8  C6  UNL     1     -17.103 -28.891  14.245  1.00  0.00     0.238 C
HETATM    9  N2  UNL     1     -17.644 -29.432  15.479  1.00  0.00    -0.026 N
ATOM     10  H21 UNL     1     -18.434 -30.057  15.319  1.00  0.00     0.281 HD
ATOM     11  H22 UNL     1     -17.020 -30.108  15.918  1.00  0.00     0.281 HD
ENDROOT
BRANCH   1  12
HETATM   12  C2  UNL     1     -18.702 -28.692  17.589  1.00  0.00     0.082 C
HETATM   13  C1  UNL     1     -17.883 -29.180  18.719  1.00  0.00     0.011 C
ENDBRANCH   1  12
TORSDOF 1
ENDMDL