MODEL 1
REMARK VINA RESULT: -4.294523598      0.000      0.000
REMARK  1 active torsions:
REMARK  status: ('A' for Active; 'I' for Inactive)
REMARK    1  A    between atoms: C2_2  and  C4_5
ROOT
HETATM    1  C4  UNL     1     -18.156 -28.398  14.864  1.00  0.00     0.040 C
HETATM    2  C5  UNL     1     -18.884 -27.129  14.592  1.00  0.00     0.138 C
HETATM    3  N1  UNL     1     -19.201 -26.603  15.931  1.00  0.00    -0.148 NA
HETATM    4  N2  UNL     1     -19.183 -27.722  16.782  1.00  0.00    -0.148 NA
HETATM    5  C6  UNL     1     -17.914 -28.333  16.343  1.00  0.00     0.138 C
ENDROOT
BRANCH   1   6
HETATM    6  C2  UNL     1     -16.925 -28.614  14.053  1.00  0.00     0.036 C
HETATM    7  C1  UNL     1     -15.725 -27.860  14.579  1.00  0.00     0.033 C
HETATM    8  C3  UNL     1     -17.091 -28.220  12.604  1.00  0.00     0.033 C
HETATM    9 CL1  UNL     1     -16.507 -30.344  14.080  1.00  0.00    -0.119 Cl
ENDBRANCH   1   6
TORSDOF 1
ENDMDL