MODEL 2
REMARK VINA RESULT: -4.614276442      1.698      2.142
REMARK  1 active torsions:
REMARK  status: ('A' for Active; 'I' for Inactive)
REMARK    1  A    between atoms: N1_2  and  C2_4
ROOT
HETATM    1  C2  UNL     1     -19.603 -27.437  13.347  1.00  0.00     0.217 C
HETATM    2  C3  UNL     1     -18.127 -27.821  13.189  1.00  0.00     0.078 C
HETATM    3  C4  UNL     1     -17.445 -27.961  14.509  1.00  0.00     0.039 C
HETATM    4  C5  UNL     1     -15.953 -27.986  14.257  1.00  0.00     0.033 C
HETATM    5 CL1  UNL     1     -17.990 -29.469  15.269  1.00  0.00    -0.119 Cl
HETATM    6  C6  UNL     1     -17.753 -26.822  15.447  1.00  0.00     0.051 C
HETATM    7  C7  UNL     1     -19.124 -26.262  15.288  1.00  0.00     0.172 C
HETATM    8  O1  UNL     1     -19.588 -26.205  13.994  1.00  0.00    -0.367 OA
ENDROOT
BRANCH   1   9
HETATM    9  N1  UNL     1     -20.119 -27.257  12.026  1.00  0.00    -0.401 N
HETATM   10  C1  UNL     1     -20.295 -25.903  11.613  1.00  0.00     0.142 C
ATOM     11  H1  UNL     1     -20.347 -28.045  11.420  1.00  0.00     0.155 HD
ENDBRANCH   1   9
TORSDOF 1
ENDMDL