MODEL 3
REMARK VINA RESULT: -3.801701313      1.622      2.436
REMARK  1 active torsions:
REMARK  status: ('A' for Active; 'I' for Inactive)
REMARK    1  A    between atoms: C2_2  and  N1_4
ROOT
HETATM    1  N1  UNL     1     -19.867 -26.958  14.569  1.00  0.00     0.142 N
HETATM    2  C4  UNL     1     -20.203 -26.274  15.818  1.00  0.00     0.406 C
HETATM    3  N2  UNL     1     -19.116 -25.321  15.929  1.00  0.00    -0.115 NA
HETATM    4  N3  UNL     1     -18.085 -25.752  15.105  1.00  0.00    -0.095 NA
HETATM    5  C5  UNL     1     -18.428 -27.112  14.790  1.00  0.00     0.429 C
HETATM    6 CL1  UNL     1     -18.261 -28.132  16.243  1.00  0.00    -0.072 Cl
ENDROOT
BRANCH   1   7
HETATM    7  C2  UNL     1     -20.045 -25.965  13.534  1.00  0.00     0.220 C
HETATM    8  C1  UNL     1     -19.874 -26.506  12.147  1.00  0.00     0.042 C
HETATM    9  C3  UNL     1     -21.396 -25.320  13.666  1.00  0.00     0.042 C
ENDBRANCH   1   7
TORSDOF 1
ENDMDL