MODEL 1
REMARK VINA RESULT: -4.633037781      0.000      0.000
REMARK  2 active torsions:
REMARK  status: ('A' for Active; 'I' for Inactive)
REMARK    1  A    between atoms: C3_7  and  N2_8
REMARK    2  A    between atoms: N2_8  and  C4_10
ROOT
HETATM    1 CL1  UNL     1     -15.066 -27.480  14.585  1.00  0.00    -0.123 Cl
HETATM    2  C1  UNL     1     -16.799 -27.886  14.452  1.00  0.00     0.111 C
HETATM    3  C2  UNL     1     -17.542 -27.466  15.686  1.00  0.00     0.255 C
HETATM    4  N1  UNL     1     -17.984 -28.650  16.369  1.00  0.00    -0.053 N
ATOM      5  H11 UNL     1     -18.832 -28.503  16.917  1.00  0.00     0.279 HD
ATOM      6  H12 UNL     1     -17.374 -28.917  17.142  1.00  0.00     0.279 HD
HETATM    7  C3  UNL     1     -18.126 -29.699  15.361  1.00  0.00     0.281 C
HETATM    8  C7  UNL     1     -16.990 -29.373  14.431  1.00  0.00     0.076 C
ENDROOT
BRANCH   7   9
HETATM    9  N2  UNL     1     -17.947 -30.934  16.004  1.00  0.00    -0.391 N
ATOM     10  H2  UNL     1     -17.643 -30.962  16.978  1.00  0.00     0.155 HD
BRANCH   9  11
HETATM   11  C4  UNL     1     -18.185 -32.128  15.311  1.00  0.00     0.078 A
HETATM   12  C5  UNL     1     -17.170 -33.109  14.901  1.00  0.00     0.027 A
HETATM   13  C6  UNL     1     -17.884 -33.398  16.156  1.00  0.00     0.027 A
ENDBRANCH   9  11
ENDBRANCH   7   9
TORSDOF 2
ENDMDL