MODEL 3
REMARK VINA RESULT: -4.425818576      2.422      3.264
REMARK  1 active torsions:
REMARK  status: ('A' for Active; 'I' for Inactive)
REMARK    1  A    between atoms: N1_2  and  C1_3
ROOT
HETATM    1  C1  UNL     1     -18.307 -33.651  16.249  1.00  0.00     0.292 C
HETATM    2  C2  UNL     1     -16.887 -34.156  16.430  1.00  0.00     0.051 C
HETATM    3  C3  UNL     1     -16.885 -35.618  16.078  1.00  0.00     0.003 C
HETATM    4  C4  UNL     1     -18.050 -36.372  16.636  1.00  0.00     0.002 C
HETATM    5  C5  UNL     1     -18.462 -35.953  18.004  1.00  0.00     0.027 C
HETATM    6  C6  UNL     1     -19.448 -34.806  18.015  1.00  0.00     0.234 C
HETATM    7  N2  UNL     1     -18.897 -33.572  17.561  1.00  0.00    -0.056 N
ATOM      8  H21 UNL     1     -19.595 -32.830  17.598  1.00  0.00     0.279 HD
ATOM      9  H22 UNL     1     -18.225 -33.207  18.236  1.00  0.00     0.279 HD
ENDROOT
BRANCH   1  10
HETATM   10  N1  UNL     1     -18.232 -32.344  15.615  1.00  0.00    -0.110 NA
HETATM   11 CL1  UNL     1     -17.030 -32.323  14.366  1.00  0.00    -0.002 Cl
ENDBRANCH   1  10
TORSDOF 1
ENDMDL