MODEL 4
REMARK VINA RESULT: -3.813441555      6.338      7.784
REMARK  1 active torsions:
REMARK  status: ('A' for Active; 'I' for Inactive)
REMARK    1  A    between atoms: C3_3  and  C4_4
ROOT
HETATM    1  C1  UNL     1     -20.883 -28.146  22.369  1.00  0.00     0.013 C
HETATM    2  C2  UNL     1     -21.016 -29.033  21.160  1.00  0.00     0.027 C
HETATM    3  C3  UNL     1     -20.876 -28.194  19.913  1.00  0.00     0.055 C
HETATM    4  C5  UNL     1     -22.152 -28.348  19.130  1.00  0.00     0.243 C
HETATM    5  N2  UNL     1     -23.087 -28.973  20.003  1.00  0.00    -0.066 N
ATOM      6  H21 UNL     1     -23.692 -29.631  19.512  1.00  0.00     0.278 HD
ATOM      7  H22 UNL     1     -23.806 -28.325  20.325  1.00  0.00     0.278 HD
HETATM    8  C6  UNL     1     -22.390 -29.586  21.087  1.00  0.00     0.122 C
HETATM    9  C7  UNL     1     -22.269 -31.105  20.923  1.00  0.00     0.046 C
HETATM   10  C8  UNL     1     -23.199 -29.375  22.348  1.00  0.00     0.046 C
ENDROOT
BRANCH   3  11
HETATM   11  C4  UNL     1     -19.760 -28.649  19.050  1.00  0.00     0.059 C
HETATM   12  N1  UNL     1     -18.713 -29.215  19.509  1.00  0.00    -0.411 N
ATOM     13  H12 UNL     1     -18.656 -29.352  20.518  1.00  0.00     0.155 HD
ATOM     14  H11 UNL     1     -17.945 -29.528  18.915  1.00  0.00     0.155 HD
ENDBRANCH   3  11
TORSDOF 1
ENDMDL