MODEL 1
REMARK VINA RESULT: -4.619343643      0.000      0.000
REMARK  1 active torsions:
REMARK  status: ('A' for Active; 'I' for Inactive)
REMARK    1  A    between atoms: C2_2  and  C3_3
ROOT
HETATM    1  C3  UNL     1     -17.035 -34.633  15.936  1.00  0.00     0.209 C
HETATM    2  C4  UNL     1     -18.293 -34.284  16.704  1.00  0.00     0.057 C
HETATM    3  C5  UNL     1     -18.354 -32.764  16.812  1.00  0.00     0.086 C
HETATM    4 CL1  UNL     1     -19.801 -32.278  17.698  1.00  0.00    -0.125 Cl
HETATM    5  C6  UNL     1     -18.331 -32.178  15.405  1.00  0.00     0.047 C
HETATM    6  C7  UNL     1     -17.041 -32.628  14.768  1.00  0.00     0.234 C
HETATM    7  N1  UNL     1     -17.126 -34.084  14.615  1.00  0.00    -0.068 N
ATOM      8  H11 UNL     1     -17.954 -34.390  14.104  1.00  0.00     0.277 HD
ATOM      9  H12 UNL     1     -16.434 -34.465  13.970  1.00  0.00     0.277 HD
ENDROOT
BRANCH   1  10
HETATM   10  C2  UNL     1     -16.802 -36.107  15.940  1.00  0.00    -0.005 C
HETATM   11  C1  UNL     1     -17.868 -36.873  16.150  1.00  0.00     0.009 C
ENDBRANCH   1  10
TORSDOF 1
ENDMDL