MODEL 2
REMARK VINA RESULT: -4.318124729      0.061      1.334
REMARK  1 active torsions:
REMARK  status: ('A' for Active; 'I' for Inactive)
REMARK    1  A    between atoms: C2_2  and  C5_5
ROOT
HETATM    1  C5  UNL     1      -1.170  31.534 -14.602  1.00  0.00     0.389 C
HETATM    2  N1  UNL     1      -0.954  32.964 -14.563  1.00  0.00    -0.045 N
ATOM      3  H11 UNL     1      -0.035  33.224 -14.205  1.00  0.00     0.279 HD
ATOM      4  H12 UNL     1      -1.507  33.437 -13.849  1.00  0.00     0.279 HD
HETATM    5  C6  UNL     1      -1.209  33.459 -15.915  1.00  0.00     0.236 C
HETATM    6  C7  UNL     1      -2.591  33.077 -16.398  1.00  0.00     0.055 C
HETATM    7  C8  UNL     1      -3.301  32.345 -15.278  1.00  0.00     0.236 C
HETATM    8  N2  UNL     1      -2.564  31.207 -14.821  1.00  0.00    -0.045 N
ATOM      9  H21 UNL     1      -2.988  30.796 -13.989  1.00  0.00     0.279 HD
ATOM     10  H22 UNL     1      -2.668  30.415 -15.456  1.00  0.00     0.279 HD
ENDROOT
BRANCH   1  11
HETATM   11  C2  UNL     1      -0.662  30.839 -13.368  1.00  0.00     0.003 C
HETATM   12  C1  UNL     1      -1.790  30.436 -12.442  1.00  0.00     0.018 C
HETATM   13  C3  UNL     1       0.292  31.653 -12.565  1.00  0.00     0.018 C
HETATM   14  C4  UNL     1       0.061  29.560 -13.784  1.00  0.00     0.018 C
ENDBRANCH   1  11
TORSDOF 1
ENDMDL