MODEL 1
REMARK VINA RESULT: -5.095073840      0.000      0.000
REMARK  1 active torsions:
REMARK  status: ('A' for Active; 'I' for Inactive)
REMARK    1  A    between atoms: C2_2  and  C3_3
ROOT
HETATM    1  C3  UNL     1      -0.293  34.245 -13.838  1.00  0.00     0.056 C
HETATM    2  C4  UNL     1       1.014  34.729 -13.120  1.00  0.00     0.095 C
HETATM    3  C5  UNL     1       1.345  35.915 -13.795  1.00  0.00    -0.163 C
HETATM    4  C6  UNL     1       1.939  37.114 -14.206  1.00  0.00     0.200 C
HETATM    5  N1  UNL     1       1.207  37.512 -15.448  1.00  0.00    -0.377 N
ATOM      6  H1  UNL     1       1.663  38.042 -16.191  1.00  0.00     0.161 HD
HETATM    7  C7  UNL     1      -0.146  37.121 -15.546  1.00  0.00     0.176 C
HETATM    8  N2  UNL     1      -0.658  35.882 -15.785  1.00  0.00    -0.365 N
ATOM      9  H2  UNL     1      -1.350  35.871 -16.534  1.00  0.00     0.165 HD
HETATM   10  C8  UNL     1      -0.443  34.653 -15.237  1.00  0.00     0.071 C
ENDROOT
BRANCH   1  11
HETATM   11  C2  UNL     1      -0.434  32.785 -13.689  1.00  0.00    -0.026 C
HETATM   12  C1  UNL     1       0.291  32.104 -12.829  1.00  0.00     0.007 C
ENDBRANCH   1  11
TORSDOF 1
ENDMDL