MODEL 1
REMARK VINA RESULT: -4.167430968      0.000      0.000
REMARK  1 active torsions:
REMARK  status: ('A' for Active; 'I' for Inactive)
REMARK    1  A    between atoms: O1_2  and  C2_3
ROOT
HETATM    1  C2  UNL     1      -0.832  32.471 -13.737  1.00  0.00     0.321 C
HETATM    2  C3  UNL     1       0.325  32.301 -12.772  1.00  0.00     0.064 C
HETATM    3  C4  UNL     1       0.041  30.893 -12.236  1.00  0.00     0.042 C
HETATM    4  C5  UNL     1      -0.786  30.266 -13.330  1.00  0.00     0.121 C
HETATM    5  C6  UNL     1      -0.148  28.988 -13.845  1.00  0.00     0.046 C
HETATM    6  C7  UNL     1      -2.218  30.033 -12.898  1.00  0.00     0.046 C
HETATM    7  N1  UNL     1      -0.791  31.203 -14.441  1.00  0.00    -0.041 N
ATOM      8  H11 UNL     1      -0.026  31.096 -15.107  1.00  0.00     0.281 HD
ATOM      9  H12 UNL     1      -1.530  31.061 -15.129  1.00  0.00     0.281 HD
ENDROOT
BRANCH   1  10
HETATM   10  O1  UNL     1      -0.677  33.510 -14.605  1.00  0.00    -0.364 OA
HETATM   11  C1  UNL     1      -0.486  34.739 -13.994  1.00  0.00     0.204 C
ENDBRANCH   1  10
TORSDOF 1
ENDMDL