MODEL 5
REMARK VINA RESULT: -4.292529089      2.014      4.061
REMARK  1 active torsions:
REMARK  status: ('A' for Active; 'I' for Inactive)
REMARK    1  A    between atoms: C5_8  and  C6_9
ROOT
HETATM    1  C1  UNL     1      -0.287  34.343 -15.308  1.00  0.00     0.041 C
HETATM    2  C2  UNL     1      -0.443  35.397 -14.218  1.00  0.00     0.208 C
HETATM    3  C3  UNL     1       0.688  35.170 -13.230  1.00  0.00     0.264 C
HETATM    4  N1  UNL     1       1.956  35.488 -13.812  1.00  0.00    -0.071 N
ATOM      5  H11 UNL     1       2.196  34.812 -14.537  1.00  0.00     0.277 HD
ATOM      6  H12 UNL     1       2.709  35.306 -13.149  1.00  0.00     0.277 HD
HETATM    7  C4  UNL     1       2.050  36.830 -14.324  1.00  0.00     0.265 C
HETATM    8  C5  UNL     1       0.912  37.020 -15.327  1.00  0.00     0.215 C
HETATM    9  N2  UNL     1      -0.364  36.686 -14.789  1.00  0.00    -0.063 N
ATOM     10  H21 UNL     1      -0.659  37.391 -14.114  1.00  0.00     0.278 HD
ATOM     11  H22 UNL     1      -1.088  36.805 -15.497  1.00  0.00     0.278 HD
ENDROOT
BRANCH   8  12
HETATM   12  C6  UNL     1       0.933  38.365 -15.970  1.00  0.00     0.018 A
HETATM   13  C7  UNL     1       1.262  38.567 -17.397  1.00  0.00     0.007 A
HETATM   14  C8  UNL     1      -0.161  38.785 -16.859  1.00  0.00     0.007 A
ENDBRANCH   8  12
TORSDOF 1
ENDMDL