MODEL 3
REMARK VINA RESULT: -4.987810934      2.083      3.866
REMARK  1 active torsions:
REMARK  status: ('A' for Active; 'I' for Inactive)
REMARK    1  A    between atoms: C7_7  and  N1_8
ROOT
HETATM    1  N1  UNL     1      -0.125  35.738 -14.352  1.00  0.00    -0.324 N
ATOM      2  H1  UNL     1      -0.869  36.383 -14.618  1.00  0.00     0.172 HD
HETATM    3  C8  UNL     1       1.190  36.172 -14.462  1.00  0.00     0.177 C
HETATM    4  N2  UNL     1       2.291  36.517 -14.559  1.00  0.00    -0.172 NA
ENDROOT
BRANCH   1   5
HETATM    5  C7  UNL     1      -0.498  34.428 -13.882  1.00  0.00     0.096 C
HETATM    6  C2  UNL     1      -0.622  33.418 -14.980  1.00  0.00     0.005 C
HETATM    7  C1  UNL     1      -1.637  33.871 -16.003  1.00  0.00     0.012 C
HETATM    8  C3  UNL     1      -1.238  32.183 -14.303  1.00  0.00     0.006 C
HETATM    9  C4  UNL     1      -0.334  31.627 -13.264  1.00  0.00     0.001 C
HETATM   10  C5  UNL     1       0.713  32.530 -12.753  1.00  0.00     0.002 C
HETATM   11  C6  UNL     1       0.478  33.982 -12.835  1.00  0.00     0.026 C
ENDBRANCH   1   5
TORSDOF 1
ENDMDL