MODEL 5
REMARK VINA RESULT: -4.070428161      1.685      3.658
REMARK  1 active torsions:
REMARK  status: ('A' for Active; 'I' for Inactive)
REMARK    1  A    between atoms: C2_2  and  C3_3
ROOT
HETATM    1  C3  UNL     1      -0.725  30.632 -14.027  1.00  0.00     0.102 C
HETATM    2  C4  UNL     1      -1.140  29.218 -13.907  1.00  0.00     0.048 C
HETATM    3  C5  UNL     1      -2.556  28.892 -14.153  1.00  0.00     0.118 C
HETATM    4  N1  UNL     1      -3.331  29.865 -14.848  1.00  0.00    -0.397 N
ATOM      5  H1  UNL     1      -4.074  29.607 -15.497  1.00  0.00     0.155 HD
HETATM    6  C6  UNL     1      -2.996  31.228 -14.573  1.00  0.00     0.088 C
HETATM    7  C7  UNL     1      -3.471  31.716 -13.236  1.00  0.00     0.062 C
HETATM    8  C8  UNL     1      -3.750  32.045 -15.632  1.00  0.00     0.062 C
HETATM    9  N2  UNL     1      -1.615  31.491 -14.742  1.00  0.00    -0.390 N
ATOM     10  H2  UNL     1      -1.276  32.248 -15.337  1.00  0.00     0.156 HD
ENDROOT
BRANCH   1  11
HETATM   11  C2  UNL     1      -0.385  31.235 -12.705  1.00  0.00    -0.012 C
HETATM   12  C1  UNL     1       0.488  32.229 -12.611  1.00  0.00     0.009 C
ENDBRANCH   1  11
TORSDOF 1
ENDMDL