MODEL 2
REMARK VINA RESULT: -3.978639999      1.845      2.838
REMARK  1 active torsions:
REMARK  status: ('A' for Active; 'I' for Inactive)
REMARK    1  A    between atoms: N1_2  and  C2_4
ROOT
HETATM    1  C2  UNL     1      -2.457  30.680 -12.454  1.00  0.00     0.284 C
HETATM    2  N2  UNL     1      -1.096  30.620 -11.943  1.00  0.00    -0.050 N
ATOM      3  H21 UNL     1      -0.851  29.709 -11.555  1.00  0.00     0.280 HD
ATOM      4  H22 UNL     1      -0.962  31.162 -11.089  1.00  0.00     0.280 HD
HETATM    5  C3  UNL     1      -0.229  31.033 -13.022  1.00  0.00     0.188 C
HETATM    6  C4  UNL     1       0.037  29.779 -13.867  1.00  0.00     0.033 C
HETATM    7  C5  UNL     1      -1.314  29.105 -14.034  1.00  0.00     0.010 C
HETATM    8  C6  UNL     1      -2.430  30.129 -13.844  1.00  0.00     0.036 C
HETATM    9  C7  UNL     1      -1.998  31.290 -14.760  1.00  0.00     0.010 C
HETATM   10  C8  UNL     1      -0.907  32.013 -13.965  1.00  0.00     0.033 C
ENDROOT
BRANCH   1  11
HETATM   11  N1  UNL     1      -3.435  30.102 -11.616  1.00  0.00    -0.400 N
HETATM   12  C1  UNL     1      -4.540  29.466 -12.212  1.00  0.00     0.142 C
ATOM     13  H1  UNL     1      -3.343  30.145 -10.601  1.00  0.00     0.154 HD
ENDBRANCH   1  11
TORSDOF 1
ENDMDL