MODEL 2
REMARK VINA RESULT: -4.402363461      2.965      5.453
REMARK  2 active torsions:
REMARK  status: ('A' for Active; 'I' for Inactive)
REMARK    1  A    between atoms: C2_2  and  N1_3
REMARK    2  A    between atoms: N2_5  and  N3_7
ROOT
HETATM    1  N3  UNL     1      -0.230  35.721 -14.660  1.00  0.00    -0.224 N
HETATM    2  C3  UNL     1      -0.504  34.742 -13.638  1.00  0.00     0.172 C
HETATM    3  C4  UNL     1      -1.239  33.641 -14.371  1.00  0.00     0.019 C
HETATM    4  C5  UNL     1      -0.748  32.267 -13.998  1.00  0.00     0.013 C
HETATM    5  C6  UNL     1      -0.927  33.979 -15.817  1.00  0.00     0.142 C
HETATM    6  N4  UNL     1      -1.027  35.435 -15.768  1.00  0.00    -0.122 NA
ENDROOT
BRANCH   1   7
HETATM    7  N2  UNL     1       0.666  36.780 -14.594  1.00  0.00    -0.233 N
HETATM    8  N1  UNL     1       1.683  36.718 -13.838  1.00  0.00    -0.321 N
ATOM      9  H1  UNL     1       1.873  35.899 -13.261  1.00  0.00     0.181 HD
ATOM     10  H2  UNL     1       0.504  37.614 -15.157  1.00  0.00     0.209 HD
BRANCH   8  11
HETATM   11  C2  UNL     1       2.561  37.874 -13.837  1.00  0.00     0.136 C
HETATM   12  C1  UNL     1       1.797  39.066 -14.366  1.00  0.00     0.028 C
ENDBRANCH   8  11
ENDBRANCH   1   7
TORSDOF 2
ENDMDL