MODEL 4
REMARK VINA RESULT: -4.450850318      3.128      5.326
REMARK  1 active torsions:
REMARK  status: ('A' for Active; 'I' for Inactive)
REMARK    1  A    between atoms: C2_2  and  C4_4
ROOT
HETATM    1  C4  UNL     1       0.249  36.712 -15.688  1.00  0.00     0.125 C
HETATM    2  N1  UNL     1      -1.026  36.620 -16.424  1.00  0.00    -0.123 NA
HETATM    3  N2  UNL     1      -1.726  37.764 -16.048  1.00  0.00    -0.039 NA
HETATM    4  N3  UNL     1      -0.810  38.746 -15.755  1.00  0.00    -0.119 NA
HETATM    5  C5  UNL     1       0.517  38.151 -15.794  1.00  0.00     0.060 C
HETATM    6  C6  UNL     1       1.122  38.403 -17.186  1.00  0.00     0.037 C
HETATM    7  C7  UNL     1       1.382  38.817 -14.814  1.00  0.00     0.037 C
ENDROOT
BRANCH   1   8
HETATM    8  C2  UNL     1       0.108  36.134 -14.307  1.00  0.00     0.000 C
HETATM    9  C1  UNL     1      -0.724  34.837 -14.384  1.00  0.00     0.011 C
HETATM   10  C3  UNL     1       1.461  35.655 -13.821  1.00  0.00     0.011 C
ENDBRANCH   1   8
TORSDOF 1
ENDMDL