MODEL 4
REMARK VINA RESULT: -4.439793516      1.532      1.913
REMARK  1 active torsions:
REMARK  status: ('A' for Active; 'I' for Inactive)
REMARK    1  A    between atoms: C2_2  and  C3_3
ROOT
HETATM    1  C3  UNL     1      -1.071  31.404 -13.773  1.00  0.00     0.208 C
HETATM    2  C4  UNL     1      -1.079  32.598 -14.730  1.00  0.00     0.067 C
HETATM    3  N1  UNL     1      -0.876  30.225 -14.576  1.00  0.00    -0.106 NA
HETATM    4  N2  UNL     1      -1.978  29.416 -14.453  1.00  0.00    -0.107 NA
HETATM    5  C5  UNL     1      -3.006  30.118 -13.745  1.00  0.00     0.205 C
HETATM    6  C6  UNL     1      -3.727  29.279 -12.747  1.00  0.00     0.067 C
HETATM    7  C7  UNL     1      -4.051  30.621 -14.754  1.00  0.00     0.067 C
HETATM    8  N3  UNL     1      -2.351  31.260 -13.237  1.00  0.00    -0.027 N
ATOM      9  H31 UNL     1      -2.910  32.102 -13.376  1.00  0.00     0.282 HD
ATOM     10  H32 UNL     1      -2.328  31.252 -12.217  1.00  0.00     0.282 HD
ENDROOT
BRANCH   1  11
HETATM   11  C2  UNL     1       0.054  31.512 -12.793  1.00  0.00     0.053 C
HETATM   12  C1  UNL     1       0.635  32.886 -12.680  1.00  0.00     0.009 C
ENDBRANCH   1  11
TORSDOF 1
ENDMDL