MODEL 3
REMARK VINA RESULT: -8.044041114      1.804      2.348
REMARK  7 active torsions:
REMARK  status: ('A' for Active; 'I' for Inactive)
REMARK    1  A    between atoms: N3_6  and  C3_7
REMARK    2  A    between atoms: C3_7  and  C4_8
REMARK    3  A    between atoms: C4_8  and  S1_9
REMARK    4  A    between atoms: S1_9  and  C5_10
REMARK       I    between atoms: N5_14  and  C7_16
REMARK       I    between atoms: C7_16  and  N6_17
REMARK       I    between atoms: C7_16  and  N7_21
REMARK    5  A    between atoms: C10_30  and  C11_31
REMARK    6  A    between atoms: C11_31  and  O1_32
REMARK    7  A    between atoms: C11_31  and  O2_34
ROOT
HETATM    1  C5  UNL     1     -16.737   3.184  10.450  1.00  0.00     0.151 A
HETATM    2  N4  UNL     1     -17.703   2.609   9.873  1.00  0.00    -0.322 N
ATOM      3  H4  UNL     1     -17.433   2.139   9.010  1.00  0.00     0.169 HD
HETATM    4  C6  UNL     1     -19.056   2.480  10.165  1.00  0.00     0.127 A
HETATM    5  N5  UNL     1     -19.941   1.843   9.460  1.00  0.00    -0.326 N
ATOM      6  H5  UNL     1     -20.897   1.845   9.815  1.00  0.00     0.164 HD
HETATM    7  C7  UNL     1     -19.709   1.145   8.245  1.00  0.00     0.481 C
HETATM    8  N6  UNL     1     -20.204  -0.229   8.421  1.00  0.00    -0.033 N
ATOM      9  H61 UNL     1     -20.038  -0.730   7.548  1.00  0.00     0.278 HD
ATOM     10  H62 UNL     1     -21.179  -0.265   8.721  1.00  0.00     0.278 HD
ATOM     11  H63 UNL     1     -19.797  -0.696   9.231  1.00  0.00     0.278 HD
HETATM   12  N7  UNL     1     -18.301   1.019   7.922  1.00  0.00    -0.033 N
ATOM     13  H71 UNL     1     -18.135   0.517   7.049  1.00  0.00     0.278 HD
ATOM     14  H72 UNL     1     -17.788   0.588   8.692  1.00  0.00     0.278 HD
ATOM     15  H73 UNL     1     -17.847   1.932   7.909  1.00  0.00     0.278 HD
HETATM   16  C8  UNL     1     -19.567   3.108  11.369  1.00  0.00     0.101 A
HETATM   17  C9  UNL     1     -20.626   3.320  12.105  1.00  0.00     0.139 A
HETATM   18  N8  UNL     1     -21.895   2.755  11.662  1.00  0.00    -0.081 NA
HETATM   19  N9  UNL     1     -20.507   4.069  13.275  1.00  0.00    -0.337 N
ATOM     20  H9  UNL     1     -21.335   4.232  13.848  1.00  0.00     0.167 HD
HETATM   21  C10 UNL     1     -19.399   4.549  13.643  1.00  0.00     0.117 A
HETATM   22  S2  UNL     1     -18.307   3.988  12.332  1.00  0.00    -0.030 SA
HETATM   23  N10 UNL     1     -16.843   3.935  11.705  1.00  0.00    -0.310 N
ATOM     24  H10 UNL     1     -16.042   4.389  12.142  1.00  0.00     0.176 HD
ENDROOT
BRANCH   1  25
HETATM   25  S1  UNL     1     -15.088   3.128   9.749  1.00  0.00    -0.092 SA
BRANCH  25  26
HETATM   26  C4  UNL     1     -14.173   1.681  10.285  1.00  0.00     0.102 C
BRANCH  26  27
HETATM   27  C3  UNL     1     -14.488   1.423  11.741  1.00  0.00     0.138 C
BRANCH  27  28
HETATM   28  N3  UNL     1     -13.244   0.973  12.373  1.00  0.00    -0.339 N
HETATM   29  C2  UNL     1     -13.038  -0.443  12.508  1.00  0.00     0.251 A
HETATM   30  N2  UNL     1     -11.767  -0.733  13.137  1.00  0.00    -0.348 N
HETATM   31  C1  UNL     1     -10.939   0.166  13.529  1.00  0.00     0.191 A
ATOM     32  H2  UNL     1     -11.514  -1.711  13.279  1.00  0.00     0.163 HD
HETATM   33  N1  UNL     1      -9.710  -0.246  14.140  1.00  0.00    -0.063 NA
HETATM   34  N12 UNL     1     -11.222   1.547  13.363  1.00  0.00    -0.305 N
HETATM   35  C12 UNL     1     -12.308   1.947  12.818  1.00  0.00     0.194 A
ATOM     36  H12 UNL     1     -10.544   2.237  13.685  1.00  0.00     0.171 HD
HETATM   37  N11 UNL     1     -12.571   3.344  12.661  1.00  0.00    -0.063 NA
ENDBRANCH  27  28
ENDBRANCH  26  27
ENDBRANCH  25  26
ENDBRANCH   1  25
BRANCH  21  38
HETATM   38  C11 UNL     1     -18.851   5.354  14.747  1.00  0.00     0.313 C
BRANCH  38  39
HETATM   39  O1  UNL     1     -19.632   6.491  14.952  1.00  0.00    -0.365 OA
ATOM     40  H1  UNL     1     -19.378   6.925  15.758  1.00  0.00     0.213 HD
ENDBRANCH  38  39
BRANCH  38  41
HETATM   41  O2  UNL     1     -17.556   5.803  14.493  1.00  0.00    -0.365 OA
ATOM     42  H2  UNL     1     -17.483   6.749  14.535  1.00  0.00     0.213 HD
ENDBRANCH  38  41
ENDBRANCH  21  38
TORSDOF 7
ENDMDL