MODEL 4
REMARK VINA RESULT: -8.428690933      2.293      4.283
REMARK  12 active torsions:
REMARK  status: ('A' for Active; 'I' for Inactive)
REMARK    1  A    between atoms: C2_3  and  N2_4
REMARK    2  A    between atoms: N5_12  and  C4_13
REMARK    3  A    between atoms: C4_13  and  C5_14
REMARK    4  A    between atoms: N6_16  and  C7_17
REMARK    5  A    between atoms: C8_23  and  N9_24
REMARK    6  A    between atoms: C9_31  and  N12_32
REMARK    7  A    between atoms: N12_32  and  C10_34
REMARK    8  A    between atoms: C10_34  and  C11_35
REMARK    9  A    between atoms: C11_35  and  O2_36
REMARK   10  A    between atoms: C12_38  and  O3_39
REMARK   11  A    between atoms: C14_42  and  N13_43
REMARK   12  A    between atoms: N13_43  and  O4_45
ROOT
HETATM    1  C1  UNL     1     -21.106   2.945  11.558  1.00  0.00     0.177 C
HETATM    2  N1  UNL     1     -19.674   3.103  11.700  1.00  0.00    -0.170 N
HETATM    3  C2  UNL     1     -19.172   3.667  12.816  1.00  0.00     0.681 A
HETATM    4  N3  UNL     1     -17.867   3.864  13.054  1.00  0.00    -0.174 N
ATOM      5  H3  UNL     1     -17.550   4.298  13.920  1.00  0.00     0.186 HD
HETATM    6  C3  UNL     1     -16.989   3.470  12.112  1.00  0.00     0.152 A
HETATM    7  N4  UNL     1     -15.661   3.632  12.273  1.00  0.00    -0.280 N
ATOM      8  H4  UNL     1     -15.320   4.063  13.133  1.00  0.00     0.189 HD
HETATM    9  N5  UNL     1     -14.793   3.256  11.369  1.00  0.00    -0.267 N
HETATM   10  C9  UNL     1     -15.195   2.667  10.186  1.00  0.00     0.153 A
HETATM   11  C12 UNL     1     -16.551   2.469   9.953  1.00  0.00     0.129 A
HETATM   12  C13 UNL     1     -17.512   2.860  10.902  1.00  0.00     0.093 A
HETATM   13  C14 UNL     1     -18.868   2.674  10.693  1.00  0.00     0.159 A
ENDROOT
BRANCH   9  14
HETATM   14  C4  UNL     1     -13.365   3.466  11.616  1.00  0.00     0.210 C
BRANCH  14  15
HETATM   15  C5  UNL     1     -12.806   2.323  12.361  1.00  0.00     0.064 A
HETATM   16  C6  UNL     1     -13.421   1.630  13.377  1.00  0.00     0.148 A
HETATM   17  N6  UNL     1     -12.584   0.678  13.780  1.00  0.00    -0.230 N
HETATM   18  N10 UNL     1     -11.495   0.792  13.031  1.00  0.00    -0.234 N
HETATM   19  N11 UNL     1     -11.592   1.767  12.170  1.00  0.00    -0.287 N
ATOM     20  H10 UNL     1     -10.678   0.187  13.118  1.00  0.00     0.209 HD
ATOM     21  H11 UNL     1     -10.889   2.052  11.488  1.00  0.00     0.188 HD
BRANCH  17  22
HETATM   22  C7  UNL     1     -12.800  -0.287  14.816  1.00  0.00     0.195 A
HETATM   23  N7  UNL     1     -13.677  -0.251  15.830  1.00  0.00    -0.220 N
HETATM   24  O1  UNL     1     -13.579  -1.312  16.570  1.00  0.00    -0.153 OA
ATOM     25  H7  UNL     1     -14.335   0.510  15.997  1.00  0.00     0.198 HD
HETATM   26  N8  UNL     1     -12.644  -2.053  16.057  1.00  0.00    -0.222 N
HETATM   27  C8  UNL     1     -12.119  -1.476  14.968  1.00  0.00     0.169 A
ATOM     28  H8  UNL     1     -12.349  -2.954  16.433  1.00  0.00     0.198 HD
BRANCH  27  29
HETATM   29  N9  UNL     1     -11.181  -1.939  14.225  1.00  0.00    -0.381 N
ATOM     30  H92 UNL     1     -10.182  -1.952  14.435  1.00  0.00     0.157 HD
ATOM     31  H91 UNL     1     -11.272  -2.372  13.307  1.00  0.00     0.157 HD
ENDBRANCH  27  29
ENDBRANCH  17  22
ENDBRANCH  14  15
ENDBRANCH   9  14
BRANCH  10  32
HETATM   32  N12 UNL     1     -14.285   2.359   9.419  1.00  0.00    -0.371 N
ATOM     33  H12 UNL     1     -13.619   3.129   9.495  1.00  0.00     0.161 HD
BRANCH  32  34
HETATM   34  C10 UNL     1     -13.717   1.513   8.521  1.00  0.00     0.147 C
BRANCH  34  35
HETATM   35  C11 UNL     1     -12.390   0.973   9.101  1.00  0.00     0.183 C
BRANCH  35  36
HETATM   36  O2  UNL     1     -12.639  -0.019  10.021  1.00  0.00    -0.399 OA
ATOM     37  H2  UNL     1     -12.013   0.027  10.734  1.00  0.00     0.209 HD
ENDBRANCH  35  36
ENDBRANCH  34  35
ENDBRANCH  32  34
ENDBRANCH  10  32
BRANCH  11  38
HETATM   38  O3  UNL     1     -17.078   1.898   8.824  1.00  0.00    -0.356 OA
ATOM     39  H3  UNL     1     -17.613   1.113   8.811  1.00  0.00     0.218 HD
ENDBRANCH  11  38
BRANCH   3  40
HETATM   40  N2  UNL     1     -20.010   4.056  13.744  1.00  0.00    -0.234 N
ATOM     41  H22 UNL     1     -19.712   3.940  14.713  1.00  0.00     0.174 HD
ATOM     42  H21 UNL     1     -20.904   4.451  13.454  1.00  0.00     0.174 HD
ENDBRANCH   3  40
BRANCH  13  43
HETATM   43  N13 UNL     1     -19.270   2.136   9.621  1.00  0.00    -0.252 N
ATOM     44  H13 UNL     1     -19.335   2.760   8.816  1.00  0.00     0.196 HD
BRANCH  43  45
HETATM   45  O4  UNL     1     -19.623   0.856   9.391  1.00  0.00    -0.288 OA
ATOM     46  H4  UNL     1     -19.091   0.070   9.427  1.00  0.00     0.244 HD
ENDBRANCH  43  45
ENDBRANCH  13  43
TORSDOF 12
ENDMDL