MODEL 5
REMARK VINA RESULT: -7.320307658      1.605      2.355
REMARK  10 active torsions:
REMARK  status: ('A' for Active; 'I' for Inactive)
REMARK    1  A    between atoms: N1_1  and  C1_4
REMARK    2  A    between atoms: C2_7  and  O1_8
REMARK    3  A    between atoms: C3_10  and  N3_11
REMARK    4  A    between atoms: N6_17  and  N7_18
REMARK    5  A    between atoms: N7_18  and  C6_19
REMARK    6  A    between atoms: C6_19  and  C7_20
REMARK    7  A    between atoms: N9_24  and  C9_25
REMARK    8  A    between atoms: C9_25  and  C10_26
REMARK    9  A    between atoms: C12_33  and  N12_34
REMARK   10  A    between atoms: C13_39  and  N14_40
ROOT
HETATM    1  N3  UNL     1     -15.133   1.942  10.800  1.00  0.00    -0.246 N
HETATM    2  C4  UNL     1     -15.221   1.790   9.347  1.00  0.00     0.275 A
HETATM    3  N4  UNL     1     -16.543   2.240   9.005  1.00  0.00    -0.344 N
ATOM      4  H4  UNL     1     -16.925   2.263   8.059  1.00  0.00     0.164 HD
HETATM    5  C5  UNL     1     -17.177   2.611  10.072  1.00  0.00     0.224 A
HETATM    6  N5  UNL     1     -18.504   3.109  10.103  1.00  0.00    -0.061 NA
HETATM    7  N6  UNL     1     -16.366   2.453  11.209  1.00  0.00    -0.165 N
ENDROOT
BRANCH   7   8
HETATM    8  N7  UNL     1     -16.711   2.751  12.540  1.00  0.00    -0.109 NA
BRANCH   8   9
HETATM    9  C6  UNL     1     -16.809   4.181  12.748  1.00  0.00     0.196 C
BRANCH   9  10
HETATM   10  C7  UNL     1     -18.154   4.460  13.321  1.00  0.00     0.059 A
HETATM   11  C8  UNL     1     -18.309   5.224  14.458  1.00  0.00     0.134 A
HETATM   12  N8  UNL     1     -19.539   5.464  14.955  1.00  0.00    -0.293 N
HETATM   13  N9  UNL     1     -20.643   4.996  14.403  1.00  0.00    -0.119 N
ATOM     14  H8  UNL     1     -19.621   6.034  15.797  1.00  0.00     0.186 HD
HETATM   15  C12 UNL     1     -20.489   4.243  13.282  1.00  0.00     0.693 A
HETATM   16  N13 UNL     1     -19.283   3.983  12.758  1.00  0.00    -0.192 N
ATOM     17  H13 UNL     1     -19.217   3.413  11.915  1.00  0.00     0.184 HD
BRANCH  13  18
HETATM   18  C9  UNL     1     -21.964   5.254  14.938  1.00  0.00     0.227 C
BRANCH  18  19
HETATM   19  C10 UNL     1     -22.170   4.496  16.236  1.00  0.00     0.054 A
HETATM   20  C11 UNL     1     -23.132   4.899  17.133  1.00  0.00     0.097 A
HETATM   21  S1  UNL     1     -22.942   3.739  18.372  1.00  0.00    -0.009 SA
HETATM   22  N10 UNL     1     -21.690   2.847  17.687  1.00  0.00    -0.270 N
HETATM   23  N11 UNL     1     -21.468   3.455  16.561  1.00  0.00    -0.297 N
ATOM     24  H10 UNL     1     -21.219   2.025  18.065  1.00  0.00     0.195 HD
ATOM     25  H11 UNL     1     -20.741   3.114  15.932  1.00  0.00     0.187 HD
ENDBRANCH  18  19
ENDBRANCH  13  18
BRANCH  15  26
HETATM   26  N12 UNL     1     -21.552   3.784  12.738  1.00  0.00    -0.233 N
ATOM     27 2H12 UNL     1     -22.420   3.706  13.269  1.00  0.00     0.174 HD
ATOM     28 1H12 UNL     1     -21.490   3.504  11.759  1.00  0.00     0.174 HD
ENDBRANCH  15  26
ENDBRANCH   9  10
ENDBRANCH   8   9
ENDBRANCH   7   8
BRANCH   1  29
HETATM   29  C3  UNL     1     -14.001   1.621  11.584  1.00  0.00     0.149 A
HETATM   30  C2  UNL     1     -12.809   2.302  11.436  1.00  0.00     0.188 A
HETATM   31  N2  UNL     1     -11.721   2.017  12.167  1.00  0.00    -0.168 N
HETATM   32  C1  UNL     1     -11.795   1.033  13.076  1.00  0.00     0.679 A
ATOM     33  H2  UNL     1     -10.854   2.538  12.034  1.00  0.00     0.186 HD
HETATM   34  N15 UNL     1     -12.934   0.332  13.265  1.00  0.00    -0.175 N
HETATM   35  C13 UNL     1     -14.031   0.616  12.530  1.00  0.00     0.147 A
ATOM     36  H15 UNL     1     -12.966  -0.412  13.962  1.00  0.00     0.186 HD
BRANCH  30  37
HETATM   37  O1  UNL     1     -12.762   3.306  10.496  1.00  0.00    -0.344 OA
ATOM     38  H1  UNL     1     -13.567   3.637  10.116  1.00  0.00     0.219 HD
ENDBRANCH  30  37
BRANCH  32  39
HETATM   39  N1  UNL     1     -10.782   0.715  13.808  1.00  0.00    -0.234 N
ATOM     40  H12 UNL     1     -10.594   1.303  14.620  1.00  0.00     0.174 HD
ATOM     41  H11 UNL     1     -10.196  -0.089  13.585  1.00  0.00     0.174 HD
ENDBRANCH  32  39
BRANCH  35  42
HETATM   42  N14 UNL     1     -15.140  -0.043  12.694  1.00  0.00    -0.383 N
ATOM     43 2H14 UNL     1     -15.718  -0.310  11.897  1.00  0.00     0.157 HD
ATOM     44 1H14 UNL     1     -15.419  -0.289  13.644  1.00  0.00     0.157 HD
ENDBRANCH  35  42
ENDBRANCH   1  29
TORSDOF 10
ENDMDL