MODEL 2
REMARK VINA RESULT: -7.233216289      3.496      6.799
REMARK  14 active torsions:
REMARK  status: ('A' for Active; 'I' for Inactive)
REMARK    1  A    between atoms: C2_2  and  O2_4
REMARK    2  A    between atoms: O2_4  and  C3_5
REMARK    3  A    between atoms: C3_5  and  O3_6
REMARK    4  A    between atoms: C3_5  and  C4_8
REMARK    5  A    between atoms: C3_5  and  C9_15
REMARK    6  A    between atoms: C4_8  and  O5_10
REMARK    7  A    between atoms: O5_10  and  C5_11
REMARK    8  A    between atoms: C9_15  and  C10_23
REMARK    9  A    between atoms: N1_16  and  N2_18
REMARK   10  A    between atoms: N2_18  and  N3_20
REMARK       I    between atoms: C10_23  and  N4_25
REMARK   11  A    between atoms: C12_30  and  O7_31
REMARK   12  A    between atoms: C13_33  and  C14_34
REMARK   13  A    between atoms: C14_34  and  O8_35
REMARK   14  A    between atoms: C14_34  and  O9_37
ROOT
HETATM    1  C9  UNL     1     -14.509   2.641  10.725  1.00  0.00     0.168 C
HETATM    2  N1  UNL     1     -13.508   1.928  10.471  1.00  0.00    -0.280 N
ATOM      3  H1  UNL     1     -13.076   1.546  11.312  1.00  0.00     0.188 HD
ENDROOT
BRANCH   1   4
HETATM    4  C3  UNL     1     -14.976   2.870  12.153  1.00  0.00     0.312 C
BRANCH   4   5
HETATM    5  O2  UNL     1     -15.735   3.997  12.316  1.00  0.00    -0.268 OA
BRANCH   5   6
HETATM    6  C2  UNL     1     -17.056   4.135  12.619  1.00  0.00     0.258 C
HETATM    7  C1  UNL     1     -17.534   4.910  13.807  1.00  0.00     0.126 C
HETATM    8  O1  UNL     1     -17.861   3.569  11.837  1.00  0.00    -0.266 OA
ENDBRANCH   5   6
ENDBRANCH   4   5
BRANCH   4   9
HETATM    9  O3  UNL     1     -15.906   1.808  12.348  1.00  0.00    -0.352 OA
ATOM     10  H3  UNL     1     -15.782   1.259  11.582  1.00  0.00     0.214 HD
ENDBRANCH   4   9
BRANCH   4  11
HETATM   11  C4  UNL     1     -13.868   2.649  13.052  1.00  0.00     0.330 C
HETATM   12  O4  UNL     1     -12.861   3.401  12.975  1.00  0.00    -0.258 OA
BRANCH  11  13
HETATM   13  O5  UNL     1     -13.752   1.684  14.034  1.00  0.00    -0.307 OA
BRANCH  13  14
HETATM   14  C5  UNL     1     -12.899   0.597  14.023  1.00  0.00     0.060 C
HETATM   15  C6  UNL     1     -13.226  -0.414  12.925  1.00  0.00     0.045 C
HETATM   16  C7  UNL     1     -13.018  -0.107  15.378  1.00  0.00     0.045 C
HETATM   17  C8  UNL     1     -11.440   0.931  13.844  1.00  0.00     0.045 C
ENDBRANCH  13  14
ENDBRANCH  11  13
ENDBRANCH   4  11
ENDBRANCH   1   4
BRANCH   1  18
HETATM   18  C10 UNL     1     -15.231   3.255   9.609  1.00  0.00     0.277 C
HETATM   19  O6  UNL     1     -14.529   4.023   8.873  1.00  0.00    -0.266 OA
HETATM   20  N4  UNL     1     -16.571   3.019   9.375  1.00  0.00    -0.303 N
HETATM   21  C11 UNL     1     -17.028   2.214   8.505  1.00  0.00     0.187 A
ATOM     22  H4  UNL     1     -17.246   3.532   9.943  1.00  0.00     0.171 HD
HETATM   23  N5  UNL     1     -18.393   2.127   8.429  1.00  0.00    -0.316 N
HETATM   24  C15 UNL     1     -16.225   1.463   7.691  1.00  0.00     0.333 A
HETATM   25  C12 UNL     1     -18.916   1.292   7.542  1.00  0.00     0.177 A
ATOM     26  H5  UNL     1     -18.989   2.689   9.037  1.00  0.00     0.169 HD
HETATM   27  C13 UNL     1     -18.059   0.547   6.732  1.00  0.00     0.162 A
HETATM   28  O10 UNL     1     -16.771   0.647   6.823  1.00  0.00    -0.267 OA
HETATM   29  O11 UNL     1     -14.985   1.510   7.729  1.00  0.00    -0.255 OA
BRANCH  25  30
HETATM   30  O7  UNL     1     -20.291   1.182   7.440  1.00  0.00    -0.344 OA
ATOM     31  H7  UNL     1     -20.669   0.408   7.040  1.00  0.00     0.219 HD
ENDBRANCH  25  30
BRANCH  27  32
HETATM   32  C14 UNL     1     -18.656  -0.372   5.754  1.00  0.00     0.317 C
BRANCH  32  33
HETATM   33  O8  UNL     1     -17.631  -0.908   4.980  1.00  0.00    -0.365 OA
ATOM     34  H8  UNL     1     -16.807  -0.561   5.301  1.00  0.00     0.213 HD
ENDBRANCH  32  33
BRANCH  32  35
HETATM   35  O9  UNL     1     -19.316  -1.396   6.401  1.00  0.00    -0.365 OA
ATOM     36  H9  UNL     1     -20.030  -1.051   6.923  1.00  0.00     0.213 HD
ENDBRANCH  32  35
ENDBRANCH  27  32
ENDBRANCH   1  18
BRANCH   2  37
HETATM   37  N2  UNL     1     -12.872   1.550   9.344  1.00  0.00    -0.249 N
ATOM     38  H2  UNL     1     -13.188   1.949   8.460  1.00  0.00     0.207 HD
BRANCH  37  39
HETATM   39  N3  UNL     1     -11.800   0.643   9.309  1.00  0.00    -0.331 N
ATOM     40  H32 UNL     1     -11.966  -0.281   9.710  1.00  0.00     0.178 HD
ATOM     41  H31 UNL     1     -10.884   0.852   8.912  1.00  0.00     0.178 HD
ENDBRANCH  37  39
ENDBRANCH   2  37
TORSDOF 14
ENDMDL