MODEL 4
REMARK VINA RESULT: -9.756681028      1.731      2.010
REMARK  9 active torsions:
REMARK  status: ('A' for Active; 'I' for Inactive)
REMARK    1  A    between atoms: N3_4  and  C2_6
REMARK    2  A    between atoms: C2_6  and  O1_7
REMARK    3  A    between atoms: C2_6  and  C3_9
REMARK    4  A    between atoms: C4_10  and  O2_11
REMARK    5  A    between atoms: N5_15  and  N6_16
REMARK       I    between atoms: N6_16  and  C5_18
REMARK       I    between atoms: C5_18  and  N7_20
REMARK    6  A    between atoms: N7_20  and  N8_22
REMARK    7  A    between atoms: C6_24  and  C7_25
REMARK    8  A    between atoms: N11_30  and  C8_31
REMARK    9  A    between atoms: C12_42  and  O4_43
ROOT
HETATM    1  N6  UNL     1     -16.639   4.328  12.913  1.00  0.00    -0.227 N
ATOM      2  H6  UNL     1     -15.729   4.205  13.357  1.00  0.00     0.194 HD
HETATM    3  C5  UNL     1     -16.866   3.897  11.580  1.00  0.00     0.355 C
HETATM    4  O3  UNL     1     -17.981   4.037  11.011  1.00  0.00    -0.244 OA
HETATM    5  N7  UNL     1     -15.781   3.291  10.889  1.00  0.00    -0.251 N
ATOM      6  H7  UNL     1     -14.876   3.176  11.346  1.00  0.00     0.191 HD
ENDROOT
BRANCH   1   7
HETATM    7  N5  UNL     1     -17.696   4.924  13.599  1.00  0.00    -0.166 N
HETATM    8  N4  UNL     1     -17.770   6.203  13.994  1.00  0.00    -0.256 N
HETATM    9  C4  UNL     1     -18.924   6.433  14.623  1.00  0.00     0.171 A
ATOM     10  H4  UNL     1     -17.046   6.903  13.836  1.00  0.00     0.191 HD
HETATM   11  C3  UNL     1     -19.606   5.240  14.622  1.00  0.00     0.096 A
HETATM   12  C12 UNL     1     -18.843   4.313  13.988  1.00  0.00     0.194 A
BRANCH   9  13
HETATM   13  O2  UNL     1     -19.306   7.649  15.153  1.00  0.00    -0.344 OA
ATOM     14  H2  UNL     1     -18.761   8.357  15.475  1.00  0.00     0.219 HD
ENDBRANCH   9  13
BRANCH  11  15
HETATM   15  C2  UNL     1     -20.967   5.001  15.221  1.00  0.00     0.263 C
BRANCH  15  16
HETATM   16  N3  UNL     1     -21.670   4.042  14.416  1.00  0.00    -0.337 N
HETATM   17  C1  UNL     1     -22.574   3.311  14.933  1.00  0.00     0.199 C
HETATM   18  N1  UNL     1     -23.257   2.373  14.130  1.00  0.00    -0.067 NA
HETATM   19  N2  UNL     1     -22.897   3.432  16.309  1.00  0.00    -0.067 NA
ATOM     20  H3  UNL     1     -21.443   3.946  13.426  1.00  0.00     0.164 HD
ENDBRANCH  15  16
BRANCH  15  21
HETATM   21  O1  UNL     1     -21.644   6.206  15.292  1.00  0.00    -0.372 OA
ATOM     22  H1  UNL     1     -21.049   6.946  15.261  1.00  0.00     0.212 HD
ENDBRANCH  15  21
ENDBRANCH  11  15
BRANCH  12  23
HETATM   23  O4  UNL     1     -19.112   2.981  13.745  1.00  0.00    -0.343 OA
ATOM     24  H4  UNL     1     -19.885   2.475  13.965  1.00  0.00     0.219 HD
ENDBRANCH  12  23
ENDBRANCH   1   7
BRANCH   5  25
HETATM   25  N8  UNL     1     -15.971   2.855   9.580  1.00  0.00    -0.304 N
HETATM   26  C6  UNL     1     -15.222   1.952   9.077  1.00  0.00     0.158 C
ATOM     27  H8  UNL     1     -16.718   3.262   9.018  1.00  0.00     0.186 HD
BRANCH  26  28
HETATM   28  C7  UNL     1     -14.154   1.369   9.880  1.00  0.00     0.154 A
HETATM   29  N9  UNL     1     -12.946   0.973   9.504  1.00  0.00    -0.267 N
HETATM   30  N10 UNL     1     -12.307   0.506  10.559  1.00  0.00    -0.218 N
ATOM     31  H9  UNL     1     -12.572   1.021   8.556  1.00  0.00     0.190 HD
HETATM   32  N11 UNL     1     -13.061   0.580  11.631  1.00  0.00    -0.167 N
ATOM     33  H10 UNL     1     -11.356   0.137  10.544  1.00  0.00     0.210 HD
HETATM   34  N15 UNL     1     -14.199   1.109  11.224  1.00  0.00    -0.259 N
ATOM     35  H15 UNL     1     -15.000   1.298  11.826  1.00  0.00     0.191 HD
BRANCH  32  36
HETATM   36  C8  UNL     1     -12.755   0.186  12.967  1.00  0.00     0.130 A
HETATM   37  N12 UNL     1     -11.644  -0.374  13.281  1.00  0.00    -0.317 N
HETATM   38  C9  UNL     1     -11.335  -0.771  14.618  1.00  0.00     0.193 A
ATOM     39  H12 UNL     1     -10.955  -0.542  12.547  1.00  0.00     0.170 HD
HETATM   40  N13 UNL     1     -10.081  -1.392  14.924  1.00  0.00    -0.063 NA
HETATM   41  N14 UNL     1     -12.200  -0.555  15.520  1.00  0.00    -0.344 N
HETATM   42  C10 UNL     1     -13.458   0.043  15.350  1.00  0.00     0.071 A
ATOM     43  H14 UNL     1     -11.956  -0.846  16.466  1.00  0.00     0.167 HD
HETATM   44  C11 UNL     1     -13.800   0.464  13.975  1.00  0.00     0.124 A
ENDBRANCH  32  36
ENDBRANCH  26  28
ENDBRANCH   5  25
TORSDOF 9
ENDMDL