MODEL 5
REMARK VINA RESULT: -7.690559156      1.632      2.220
REMARK  11 active torsions:
REMARK  status: ('A' for Active; 'I' for Inactive)
REMARK    1  A    between atoms: N1_1  and  C1_4
REMARK    2  A    between atoms: C2_10  and  C3_11
REMARK    3  A    between atoms: C4_12  and  N4_13
REMARK    4  A    between atoms: C6_15  and  C7_16
REMARK    5  A    between atoms: C7_16  and  N5_17
REMARK    6  A    between atoms: N5_17  and  C8_19
REMARK    7  A    between atoms: N6_22  and  N7_23
REMARK    8  A    between atoms: N7_23  and  O2_25
REMARK    9  A    between atoms: C11_29  and  N9_30
REMARK   10  A    between atoms: C12_38  and  N12_39
REMARK   11  A    between atoms: N14_46  and  N15_47
ROOT
HETATM    1  N4  UNL     1     -15.979   2.951  11.753  1.00  0.00    -0.245 N
HETATM    2  C5  UNL     1     -17.289   2.639  11.803  1.00  0.00     0.150 A
HETATM    3  C6  UNL     1     -17.942   3.426  12.708  1.00  0.00     0.082 A
HETATM    4  N10 UNL     1     -16.931   4.265  13.215  1.00  0.00    -0.283 N
ATOM      5  H10 UNL     1     -17.054   4.994  13.918  1.00  0.00     0.188 HD
HETATM    6  N11 UNL     1     -15.810   3.950  12.630  1.00  0.00    -0.235 N
ATOM      7  H11 UNL     1     -14.916   4.406  12.817  1.00  0.00     0.209 HD
ENDROOT
BRANCH   1   8
HETATM    8  C4  UNL     1     -14.880   2.417  11.054  1.00  0.00     0.132 A
HETATM    9  C3  UNL     1     -14.063   1.433  11.536  1.00  0.00     0.126 A
HETATM   10  N14 UNL     1     -13.072   0.903  10.762  1.00  0.00    -0.207 N
HETATM   11  C13 UNL     1     -12.881   1.347   9.508  1.00  0.00     0.347 A
HETATM   12  N13 UNL     1     -13.681   2.334   9.001  1.00  0.00    -0.291 N
HETATM   13  O3  UNL     1     -11.971   0.872   8.763  1.00  0.00    -0.245 OA
HETATM   14  C12 UNL     1     -14.667   2.881   9.721  1.00  0.00     0.134 A
ATOM     15  H13 UNL     1     -13.522   2.661   8.049  1.00  0.00     0.172 HD
BRANCH   9  16
HETATM   16  C2  UNL     1     -14.219   0.944  12.887  1.00  0.00     0.133 A
HETATM   17  C1  UNL     1     -13.352   1.329  13.916  1.00  0.00     0.152 A
HETATM   18  N2  UNL     1     -13.761   0.709  15.066  1.00  0.00    -0.224 N
HETATM   19  O1  UNL     1     -14.790   0.017  14.725  1.00  0.00    -0.155 OA
ATOM     20  H2  UNL     1     -13.341   0.781  15.993  1.00  0.00     0.198 HD
HETATM   21  N3  UNL     1     -15.082   0.129  13.479  1.00  0.00    -0.236 N
ATOM     22  H3  UNL     1     -15.860  -0.339  13.015  1.00  0.00     0.197 HD
BRANCH  17  23
HETATM   23  N1  UNL     1     -12.350   2.120  13.850  1.00  0.00    -0.382 N
ATOM     24  H12 UNL     1     -12.258   2.977  13.305  1.00  0.00     0.157 HD
ATOM     25  H11 UNL     1     -11.482   1.983  14.369  1.00  0.00     0.157 HD
ENDBRANCH  17  23
ENDBRANCH   9  16
BRANCH  10  26
HETATM   26  N15 UNL     1     -12.313  -0.154  11.264  1.00  0.00    -0.334 N
ATOM     27 2H15 UNL     1     -11.317  -0.037  11.447  1.00  0.00     0.177 HD
ATOM     28 1H15 UNL     1     -12.756  -1.064  11.393  1.00  0.00     0.177 HD
ENDBRANCH  10  26
BRANCH  14  29
HETATM   29  N12 UNL     1     -15.453   3.801   9.308  1.00  0.00    -0.383 N
ATOM     30 2H12 UNL     1     -15.844   4.541   9.890  1.00  0.00     0.157 HD
ATOM     31 1H12 UNL     1     -15.694   3.780   8.317  1.00  0.00     0.157 HD
ENDBRANCH  14  29
ENDBRANCH   1   8
BRANCH   3  32
HETATM   32  C7  UNL     1     -19.312   3.459  13.238  1.00  0.00     0.116 C
BRANCH  32  33
HETATM   33  N5  UNL     1     -19.525   3.232  14.610  1.00  0.00    -0.388 N
ATOM     34  H5  UNL     1     -19.082   3.795  15.337  1.00  0.00     0.159 HD
BRANCH  33  35
HETATM   35  C8  UNL     1     -20.421   2.136  14.907  1.00  0.00     0.134 C
HETATM   36  C9  UNL     1     -21.737   2.181  14.218  1.00  0.00     0.052 C
HETATM   37  C10 UNL     1     -22.523   3.403  14.492  1.00  0.00     0.173 C
HETATM   38  N6  UNL     1     -22.077   4.099  15.675  1.00  0.00    -0.217 N
HETATM   39  N8  UNL     1     -21.254   3.561  16.655  1.00  0.00    -0.286 N
HETATM   40  C11 UNL     1     -20.745   2.256  16.415  1.00  0.00     0.320 C
ATOM     41  H8  UNL     1     -21.027   4.076  17.505  1.00  0.00     0.184 HD
BRANCH  38  42
HETATM   42  N7  UNL     1     -22.514   5.407  15.843  1.00  0.00    -0.194 N
ATOM     43  H7  UNL     1     -23.411   5.579  16.297  1.00  0.00     0.217 HD
BRANCH  42  44
HETATM   44  O2  UNL     1     -21.827   6.382  15.447  1.00  0.00    -0.273 OA
ATOM     45  H2  UNL     1     -21.562   7.074  16.041  1.00  0.00     0.246 HD
ENDBRANCH  42  44
ENDBRANCH  38  42
BRANCH  40  46
HETATM   46  N9  UNL     1     -19.466   2.055  17.079  1.00  0.00    -0.055 N
ATOM     47  H93 UNL     1     -19.444   2.382  18.045  1.00  0.00     0.276 HD
ATOM     48  H92 UNL     1     -19.253   1.078  17.285  1.00  0.00     0.276 HD
ATOM     49  H91 UNL     1     -18.786   2.509  16.470  1.00  0.00     0.276 HD
ENDBRANCH  40  46
ENDBRANCH  33  35
ENDBRANCH  32  33
ENDBRANCH   3  32
TORSDOF 11
ENDMDL