MODEL 4
REMARK VINA RESULT: -8.375701163      2.213      5.333
REMARK  8 active torsions:
REMARK  status: ('A' for Active; 'I' for Inactive)
REMARK    1  A    between atoms: N1_1  and  C1_4
REMARK    2  A    between atoms: C2_7  and  N3_8
REMARK    3  A    between atoms: N6_16  and  N7_17
REMARK    4  A    between atoms: N7_17  and  C7_19
REMARK    5  A    between atoms: C11_26  and  C12_27
REMARK    6  A    between atoms: C12_27  and  O1_28
REMARK    7  A    between atoms: C12_27  and  O2_30
REMARK    8  A    between atoms: C13_32  and  C14_33
ROOT
HETATM    1  C1  UNL     1     -16.887   1.686   7.401  1.00  0.00     0.727 A
HETATM    2  N2  UNL     1     -18.203   1.807   7.173  1.00  0.00    -0.019 N
ATOM      3  H2  UNL     1     -18.559   1.620   6.236  1.00  0.00     0.203 HD
HETATM    4  C2  UNL     1     -19.071   2.166   8.138  1.00  0.00     0.725 A
HETATM    5  N5  UNL     1     -18.546   2.398   9.343  1.00  0.00    -0.016 N
ATOM      6  H5  UNL     1     -19.168   2.673  10.103  1.00  0.00     0.203 HD
HETATM    7  C6  UNL     1     -17.207   2.282   9.601  1.00  0.00     0.756 A
HETATM    8  N6  UNL     1     -16.460   2.467  10.755  1.00  0.00    -0.061 N
HETATM    9  C13 UNL     1     -15.177   2.220  10.467  1.00  0.00     0.208 A
HETATM   10  N14 UNL     1     -15.167   1.886   9.134  1.00  0.00    -0.244 N
ATOM     11  H14 UNL     1     -14.332   1.639   8.604  1.00  0.00     0.190 HD
HETATM   12  N15 UNL     1     -16.370   1.928   8.641  1.00  0.00     0.094 N
ENDROOT
BRANCH   8  13
HETATM   13  N7  UNL     1     -17.040   2.919  11.907  1.00  0.00    -0.276 N
ATOM     14  H7  UNL     1     -16.613   2.463  12.713  1.00  0.00     0.188 HD
BRANCH  13  15
HETATM   15  C7  UNL     1     -18.011   3.789  12.325  1.00  0.00     0.077 A
HETATM   16  C8  UNL     1     -17.749   5.162  12.117  1.00  0.00     0.119 A
HETATM   17  N8  UNL     1     -18.620   6.124  12.369  1.00  0.00    -0.371 N
HETATM   18  C9  UNL     1     -19.835   5.837  12.848  1.00  0.00     0.114 A
ATOM     19  H8  UNL     1     -18.363   7.096  12.195  1.00  0.00     0.164 HD
HETATM   20  C10 UNL     1     -20.140   4.523  13.065  1.00  0.00     0.075 A
HETATM   21  N9  UNL     1     -21.419   4.172  13.573  1.00  0.00    -0.100 NA
HETATM   22  C11 UNL     1     -19.236   3.471  12.807  1.00  0.00     0.051 A
BRANCH  22  23
HETATM   23  C12 UNL     1     -19.682   2.086  13.004  1.00  0.00     0.292 C
BRANCH  23  24
HETATM   24  O1  UNL     1     -18.936   1.292  13.819  1.00  0.00    -0.367 OA
ATOM     25  H1  UNL     1     -19.186   0.379  13.894  1.00  0.00     0.213 HD
ENDBRANCH  23  24
BRANCH  23  26
HETATM   26  O2  UNL     1     -19.977   1.464  11.775  1.00  0.00    -0.367 OA
ATOM     27  H2  UNL     1     -20.761   0.932  11.837  1.00  0.00     0.213 HD
ENDBRANCH  23  26
ENDBRANCH  22  23
ENDBRANCH  13  15
ENDBRANCH   8  13
BRANCH   9  28
HETATM   28  C14 UNL     1     -13.955   2.274  11.276  1.00  0.00     0.186 A
HETATM   29  N10 UNL     1     -12.897   1.478  10.967  1.00  0.00    -0.266 N
HETATM   30  N11 UNL     1     -11.950   1.722  11.830  1.00  0.00    -0.226 N
ATOM     31  H10 UNL     1     -12.852   0.810  10.198  1.00  0.00     0.190 HD
HETATM   32  N12 UNL     1     -12.329   2.641  12.694  1.00  0.00    -0.226 N
ATOM     33  H11 UNL     1     -11.039   1.264  11.834  1.00  0.00     0.210 HD
HETATM   34  N13 UNL     1     -13.551   2.952  12.325  1.00  0.00    -0.266 N
ATOM     35  H12 UNL     1     -11.794   3.024  13.474  1.00  0.00     0.210 HD
ATOM     36  H13 UNL     1     -14.125   3.646  12.803  1.00  0.00     0.190 HD
ENDBRANCH   9  28
BRANCH   4  37
HETATM   37  N3  UNL     1     -20.472   2.288   7.871  1.00  0.00    -0.127 N
HETATM   38  C3  UNL     1     -21.528   1.717   8.685  1.00  0.00     0.165 C
HETATM   39  C4  UNL     1     -22.732   1.670   7.808  1.00  0.00     0.040 C
HETATM   40  C5  UNL     1     -22.354   2.455   6.596  1.00  0.00     0.137 C
HETATM   41  N4  UNL     1     -21.034   2.972   6.792  1.00  0.00    -0.124 NA
ENDBRANCH   4  37
BRANCH   1  42
HETATM   42  N1  UNL     1     -16.019   1.344   6.511  1.00  0.00    -0.232 N
ATOM     43  H12 UNL     1     -16.168   0.422   6.101  1.00  0.00     0.174 HD
ATOM     44  H11 UNL     1     -15.234   1.924   6.216  1.00  0.00     0.174 HD
ENDBRANCH   1  42
TORSDOF 8
ENDMDL