MODEL 2
REMARK VINA RESULT: -8.426477584      0.871      1.071
REMARK  12 active torsions:
REMARK  status: ('A' for Active; 'I' for Inactive)
REMARK    1  A    between atoms: C2_2  and  N1_3
REMARK    2  A    between atoms: C2_2  and  C13_44
REMARK    3  A    between atoms: N1_3  and  N2_5
REMARK    4  A    between atoms: N2_5  and  N3_7
REMARK    5  A    between atoms: N3_7  and  N4_9
REMARK       I    between atoms: N4_9  and  C3_11
REMARK    6  A    between atoms: C3_11  and  C4_13
REMARK    7  A    between atoms: C5_14  and  O2_15
REMARK    8  A    between atoms: C6_17  and  O3_18
REMARK    9  A    between atoms: C8_23  and  C9_24
REMARK   10  A    between atoms: C10_27  and  C11_28
REMARK   11  A    between atoms: C11_28  and  N7_29
REMARK   12  A    between atoms: N9_35  and  N10_36
ROOT
HETATM    1  C4  UNL     1     -15.775   2.618  11.150  1.00  0.00     0.139 A
HETATM    2  C5  UNL     1     -15.253   2.152   9.986  1.00  0.00     0.124 A
HETATM    3  C6  UNL     1     -14.051   1.422  10.022  1.00  0.00     0.146 A
HETATM    4  C7  UNL     1     -13.374   1.156  11.189  1.00  0.00     0.169 A
HETATM    5  N5  UNL     1     -12.235   0.504  11.495  1.00  0.00    -0.320 N
ATOM      6  H5  UNL     1     -11.617   0.043  10.826  1.00  0.00     0.169 HD
HETATM    7  C8  UNL     1     -12.046   0.561  12.824  1.00  0.00     0.171 A
HETATM    8  N11 UNL     1     -13.081   1.251  13.313  1.00  0.00    -0.271 N
ATOM      9  H11 UNL     1     -13.221   1.462  14.301  1.00  0.00     0.189 HD
HETATM   10  N12 UNL     1     -13.914   1.629  12.326  1.00  0.00    -0.198 N
HETATM   11  C12 UNL     1     -15.052   2.324  12.324  1.00  0.00     0.287 A
HETATM   12  O4  UNL     1     -15.498   2.734  13.416  1.00  0.00    -0.265 OA
ENDROOT
BRANCH   1  13
HETATM   13  C3  UNL     1     -16.998   3.397  11.278  1.00  0.00     0.279 C
HETATM   14  N4  UNL     1     -18.203   2.909  11.785  1.00  0.00    -0.250 N
ATOM     15  H4  UNL     1     -18.258   1.942  12.103  1.00  0.00     0.192 HD
HETATM   16  O1  UNL     1     -16.978   4.623  10.897  1.00  0.00    -0.266 OA
BRANCH  14  17
HETATM   17  N3  UNL     1     -19.310   3.704  11.863  1.00  0.00    -0.225 N
ATOM     18  H3  UNL     1     -20.088   3.047  11.797  1.00  0.00     0.210 HD
BRANCH  17  19
HETATM   19  N2  UNL     1     -19.817   4.723  11.964  1.00  0.00    -0.228 N
ATOM     20  H2  UNL     1     -20.756   4.715  11.566  1.00  0.00     0.210 HD
BRANCH  19  21
HETATM   21  N1  UNL     1     -19.503   5.932  12.470  1.00  0.00    -0.283 N
ATOM     22  H1  UNL     1     -19.325   6.701  11.823  1.00  0.00     0.188 HD
BRANCH  21  23
HETATM   23  C2  UNL     1     -19.419   6.160  13.730  1.00  0.00     0.099 C
HETATM   24  C1  UNL     1     -18.215   6.823  14.316  1.00  0.00     0.077 C
BRANCH  23  25
HETATM   25  C13 UNL     1     -20.492   5.773  14.608  1.00  0.00     0.223 C
HETATM   26  O5  UNL     1     -20.765   4.551  14.791  1.00  0.00    -0.643 OA
HETATM   27  O6  UNL     1     -21.252   6.721  15.272  1.00  0.00    -0.643 OA
ENDBRANCH  23  25
ENDBRANCH  21  23
ENDBRANCH  19  21
ENDBRANCH  17  19
ENDBRANCH  14  17
ENDBRANCH   1  13
BRANCH   2  28
HETATM   28  O2  UNL     1     -15.857   2.366   8.759  1.00  0.00    -0.357 OA
ATOM     29  H2  UNL     1     -15.900   3.224   8.353  1.00  0.00     0.218 HD
ENDBRANCH   2  28
BRANCH   3  30
HETATM   30  O3  UNL     1     -13.547   0.964   8.840  1.00  0.00    -0.355 OA
ATOM     31  H3  UNL     1     -12.746   1.359   8.515  1.00  0.00     0.218 HD
ENDBRANCH   3  30
BRANCH   7  32
HETATM   32  C9  UNL     1     -10.918  -0.015  13.578  1.00  0.00     0.192 A
HETATM   33  N6  UNL     1      -9.667   0.470  13.655  1.00  0.00    -0.324 N
HETATM   34  C10 UNL     1      -8.914  -0.318  14.437  1.00  0.00     0.125 A
ATOM     35  H6  UNL     1      -9.338   1.314  13.187  1.00  0.00     0.169 HD
HETATM   36  N8  UNL     1      -9.714  -1.308  14.852  1.00  0.00    -0.265 N
HETATM   37  N9  UNL     1     -10.939  -1.129  14.331  1.00  0.00    -0.181 N
ATOM     38  H8  UNL     1      -9.438  -2.075  15.465  1.00  0.00     0.190 HD
BRANCH  34  39
HETATM   39  C11 UNL     1      -7.468  -0.167  14.815  1.00  0.00     0.307 C
BRANCH  39  40
HETATM   40  N7  UNL     1      -6.750   0.186  13.617  1.00  0.00    -0.073 N
ATOM     41  H73 UNL     1      -5.817   0.552  13.804  1.00  0.00     0.274 HD
ATOM     42  H72 UNL     1      -6.465  -0.625  13.068  1.00  0.00     0.274 HD
ATOM     43  H71 UNL     1      -7.337   0.836  13.095  1.00  0.00     0.274 HD
ENDBRANCH  39  40
ENDBRANCH  34  39
BRANCH  37  44
HETATM   44  N10 UNL     1     -12.069  -1.922  14.508  1.00  0.00    -0.322 N
ATOM     45 2H10 UNL     1     -13.031  -1.619  14.659  1.00  0.00     0.179 HD
ATOM     46 1H10 UNL     1     -12.053  -2.942  14.501  1.00  0.00     0.179 HD
ENDBRANCH  37  44
ENDBRANCH   7  32
TORSDOF 12
ENDMDL