MODEL 2
REMARK VINA RESULT: -9.112797079      0.831      1.803
REMARK  9 active torsions:
REMARK  status: ('A' for Active; 'I' for Inactive)
REMARK    1  A    between atoms: O1_2  and  C2_3
REMARK    2  A    between atoms: C4_6  and  C5_7
REMARK    3  A    between atoms: C5_7  and  O3_8
REMARK    4  A    between atoms: C5_7  and  O4_10
REMARK       I    between atoms: N1_13  and  C7_14
REMARK    5  A    between atoms: C7_14  and  C8_16
REMARK    6  A    between atoms: C8_16  and  N2_17
REMARK    7  A    between atoms: N7_29  and  O6_30
REMARK    8  A    between atoms: C14_35  and  C15_36
REMARK    9  A    between atoms: C15_36  and  O8_37
ROOT
HETATM    1  C2  UNL     1     -18.049   2.358   8.582  1.00  0.00     0.195 A
HETATM    2  O2  UNL     1     -17.923   2.952   9.762  1.00  0.00    -0.286 OA
HETATM    3  C3  UNL     1     -16.703   2.832  10.219  1.00  0.00     0.107 A
HETATM    4  C4  UNL     1     -16.085   3.297  11.360  1.00  0.00     0.047 A
HETATM    5  C6  UNL     1     -14.747   3.029  11.581  1.00  0.00     0.118 A
HETATM    6  N1  UNL     1     -14.013   2.320  10.693  1.00  0.00    -0.257 N
HETATM    7  C7  UNL     1     -12.665   1.918  11.059  1.00  0.00     0.250 C
HETATM    8  O5  UNL     1     -12.039   1.292  10.133  1.00  0.00    -0.271 OA
HETATM    9  C12 UNL     1     -14.617   1.881   9.594  1.00  0.00     0.268 A
HETATM   10  O7  UNL     1     -13.912   1.222   8.744  1.00  0.00    -0.267 OA
HETATM   11  C13 UNL     1     -15.966   2.099   9.292  1.00  0.00     0.080 A
HETATM   12  C14 UNL     1     -16.811   1.808   8.272  1.00  0.00     0.042 A
ENDROOT
BRANCH   7  13
HETATM   13  C8  UNL     1     -12.102   2.201  12.364  1.00  0.00     0.254 C
BRANCH  13  14
HETATM   14  N2  UNL     1     -12.477   1.226  13.376  1.00  0.00    -0.263 N
HETATM   15  N3  UNL     1     -13.625   1.195  14.010  1.00  0.00    -0.280 N
HETATM   16  C9  UNL     1     -13.740   0.107  14.813  1.00  0.00     0.148 A
ATOM     17  H3  UNL     1     -14.349   1.907  13.911  1.00  0.00     0.189 HD
HETATM   18  N4  UNL     1     -14.754  -0.210  15.553  1.00  0.00    -0.382 N
HETATM   19  C10 UNL     1     -12.558  -0.607  14.685  1.00  0.00     0.170 A
ATOM     20  H42 UNL     1     -15.624   0.315  15.647  1.00  0.00     0.157 HD
ATOM     21  H41 UNL     1     -14.840  -1.028  16.157  1.00  0.00     0.157 HD
HETATM   22  C11 UNL     1     -11.800   0.128  13.785  1.00  0.00     0.171 A
HETATM   23  N7  UNL     1     -11.772  -1.710  15.107  1.00  0.00    -0.140 N
HETATM   24  N5  UNL     1     -10.556  -0.541  13.637  1.00  0.00    -0.264 N
HETATM   25  N6  UNL     1     -10.465  -1.360  14.792  1.00  0.00     0.008 NA
ATOM     26  H5  UNL     1      -9.883  -0.452  12.876  1.00  0.00     0.186 HD
BRANCH  23  27
HETATM   27  O6  UNL     1     -12.272  -2.859  15.625  1.00  0.00    -0.269 OA
ATOM     28  H6  UNL     1     -11.893  -3.721  15.494  1.00  0.00     0.246 HD
ENDBRANCH  23  27
ENDBRANCH  13  14
ENDBRANCH   7  13
BRANCH   4  29
HETATM   29  C5  UNL     1     -16.882   4.096  12.308  1.00  0.00     0.292 C
BRANCH  29  30
HETATM   30  O3  UNL     1     -17.421   5.182  11.652  1.00  0.00    -0.367 OA
ATOM     31  H3  UNL     1     -18.282   4.955  11.322  1.00  0.00     0.213 HD
ENDBRANCH  29  30
BRANCH  29  32
HETATM   32  O4  UNL     1     -17.847   3.377  12.960  1.00  0.00    -0.367 OA
ATOM     33  H4  UNL     1     -18.585   3.900  13.250  1.00  0.00     0.213 HD
ENDBRANCH  29  32
ENDBRANCH   4  29
BRANCH  12  34
HETATM   34  C15 UNL     1     -16.528   1.148   6.977  1.00  0.00     0.208 C
BRANCH  34  35
HETATM   35  O8  UNL     1     -17.027   1.908   5.871  1.00  0.00    -0.396 OA
ATOM     36  H8  UNL     1     -17.784   1.495   5.471  1.00  0.00     0.209 HD
ENDBRANCH  34  35
ENDBRANCH  12  34
BRANCH   1  37
HETATM   37  O1  UNL     1     -19.200   2.330   7.833  1.00  0.00    -0.335 OA
HETATM   38  C1  UNL     1     -20.456   2.202   8.443  1.00  0.00     0.212 C
ENDBRANCH   1  37
TORSDOF 9
ENDMDL