MODEL 5
REMARK VINA RESULT: -8.764953461      1.811      2.884
REMARK  13 active torsions:
REMARK  status: ('A' for Active; 'I' for Inactive)
REMARK    1  A    between atoms: C3_3  and  C4_4
REMARK    2  A    between atoms: C5_15  and  S1_16
REMARK    3  A    between atoms: S1_16  and  C6_17
REMARK    4  A    between atoms: C6_17  and  C7_18
REMARK    5  A    between atoms: C7_18  and  O1_19
REMARK    6  A    between atoms: C7_18  and  N7_21
REMARK    7  A    between atoms: C7_18  and  O3_24
REMARK    8  A    between atoms: N7_21  and  O2_22
REMARK    9  A    between atoms: O3_24  and  C8_25
REMARK   10  A    between atoms: C8_25  and  C9_27
REMARK   11  A    between atoms: C9_27  and  O5_28
REMARK   12  A    between atoms: C9_27  and  N8_30
REMARK   13  A    between atoms: C10_33  and  O6_34
ROOT
HETATM    1  C7  UNL     1     -16.022   3.034  10.588  1.00  0.00     0.282 C
ENDROOT
BRANCH   1   2
HETATM    2  C6  UNL     1     -15.096   3.225   9.417  1.00  0.00     0.172 C
BRANCH   2   3
HETATM    3  S1  UNL     1     -13.353   3.225   9.902  1.00  0.00    -0.103 SA
BRANCH   3   4
HETATM    4  C5  UNL     1     -12.993   1.721  10.757  1.00  0.00     0.093 A
HETATM    5  C2  UNL     1     -12.518   1.601  12.047  1.00  0.00     0.005 A
HETATM    6  C1  UNL     1     -12.205   2.688  13.007  1.00  0.00     0.054 C
HETATM    7  C3  UNL     1     -12.377   0.263  12.320  1.00  0.00     0.102 A
HETATM    8  N5  UNL     1     -12.760  -0.385  11.207  1.00  0.00    -0.296 N
HETATM    9  N6  UNL     1     -13.127   0.477  10.276  1.00  0.00    -0.293 N
ATOM     10  H5  UNL     1     -12.766  -1.399  11.097  1.00  0.00     0.187 HD
ATOM     11  H6  UNL     1     -13.459   0.235   9.342  1.00  0.00     0.187 HD
BRANCH   7  12
HETATM   12  C4  UNL     1     -11.905  -0.352  13.557  1.00  0.00     0.160 A
HETATM   13  N1  UNL     1     -12.496  -0.391  14.759  1.00  0.00    -0.268 N
HETATM   14  N2  UNL     1     -11.713  -1.061  15.612  1.00  0.00    -0.007 NA
ATOM     15  H1  UNL     1     -13.400   0.024  14.987  1.00  0.00     0.185 HD
HETATM   16  N3  UNL     1     -10.626  -1.448  14.960  1.00  0.00    -0.007 NA
HETATM   17  N4  UNL     1     -10.744  -1.015  13.709  1.00  0.00    -0.268 N
ATOM     18  H4  UNL     1     -10.055  -1.164  12.972  1.00  0.00     0.185 HD
ENDBRANCH   7  12
ENDBRANCH   3   4
ENDBRANCH   2   3
ENDBRANCH   1   2
BRANCH   1  19
HETATM   19  O1  UNL     1     -16.110   1.701  10.974  1.00  0.00    -0.350 OA
ATOM     20  H1  UNL     1     -15.477   1.155  10.522  1.00  0.00     0.214 HD
ENDBRANCH   1  19
BRANCH   1  21
HETATM   21  N7  UNL     1     -15.590   3.882  11.677  1.00  0.00    -0.033 NA
BRANCH  21  22
HETATM   22  O2  UNL     1     -15.650   3.160  12.817  1.00  0.00    -0.291 OA
ATOM     23  H2  UNL     1     -16.496   3.317  13.220  1.00  0.00     0.239 HD
ENDBRANCH  21  22
ENDBRANCH   1  21
BRANCH   1  24
HETATM   24  O3  UNL     1     -17.334   3.442  10.171  1.00  0.00    -0.258 OA
BRANCH  24  25
HETATM   25  C8  UNL     1     -18.427   2.633  10.572  1.00  0.00     0.340 C
HETATM   26  O4  UNL     1     -18.821   1.767   9.775  1.00  0.00    -0.255 OA
BRANCH  25  27
HETATM   27  C9  UNL     1     -19.004   2.864  11.861  1.00  0.00     0.243 C
BRANCH  27  28
HETATM   28  O5  UNL     1     -19.824   1.933  12.254  1.00  0.00    -0.340 OA
ATOM     29  H5  UNL     1     -19.531   1.450  13.017  1.00  0.00     0.219 HD
ENDBRANCH  27  28
BRANCH  27  30
HETATM   30  N8  UNL     1     -18.795   3.950  12.732  1.00  0.00    -0.174 N
HETATM   31  N9  UNL     1     -18.307   5.127  12.270  1.00  0.00    -0.252 N
HETATM   32  C10 UNL     1     -18.196   5.998  13.277  1.00  0.00     0.240 A
ATOM     33  H9  UNL     1     -18.061   5.320  11.299  1.00  0.00     0.191 HD
HETATM   34  N10 UNL     1     -18.608   5.398  14.401  1.00  0.00    -0.271 N
HETATM   35  C11 UNL     1     -18.975   4.120  14.027  1.00  0.00     0.351 A
ATOM     36  H10 UNL     1     -18.645   5.800  15.337  1.00  0.00     0.174 HD
HETATM   37  O7  UNL     1     -19.416   3.282  14.862  1.00  0.00    -0.244 OA
BRANCH  32  38
HETATM   38  O6  UNL     1     -17.737   7.306  13.218  1.00  0.00    -0.331 OA
ATOM     39  H6  UNL     1     -17.922   7.955  12.550  1.00  0.00     0.221 HD
ENDBRANCH  32  38
ENDBRANCH  27  30
ENDBRANCH  25  27
ENDBRANCH  24  25
ENDBRANCH   1  24
TORSDOF 13
ENDMDL