MODEL 2
REMARK VINA RESULT: -6.988616049      2.649      3.861
REMARK  9 active torsions:
REMARK  status: ('A' for Active; 'I' for Inactive)
REMARK    1  A    between atoms: C2_2  and  C4_4
REMARK    2  A    between atoms: C4_4  and  C5_5
REMARK    3  A    between atoms: C5_5  and  O2_7
REMARK    4  A    between atoms: O2_7  and  C6_8
REMARK    5  A    between atoms: C8_10  and  O3_11
REMARK    6  A    between atoms: C12_16  and  C13_17
REMARK    7  A    between atoms: C13_17  and  C15_19
REMARK    8  A    between atoms: C15_19  and  C16_20
REMARK    9  A    between atoms: C16_20  and  C17_21
ROOT
HETATM    1  C6  UNL     1     -27.987 -20.337 -38.291  1.00  0.00     0.146 C
HETATM    2  C7  UNL     1     -26.750 -19.953 -39.027  1.00  0.00     0.077 C
HETATM    3  C8  UNL     1     -27.017 -19.610 -40.507  1.00  0.00     0.094 C
HETATM    4  C9  UNL     1     -25.750 -19.122 -41.035  1.00  0.00     0.054 C
HETATM    5  C10 UNL     1     -25.669 -18.774 -42.514  1.00  0.00    -0.020 C
HETATM    6  C11 UNL     1     -26.320 -19.845 -43.324  1.00  0.00     0.017 C
HETATM    7  C12 UNL     1     -24.217 -18.587 -42.738  1.00  0.00    -0.001 C
HETATM    8  C18 UNL     1     -24.012 -17.128 -42.322  1.00  0.00     0.007 C
HETATM    9  C19 UNL     1     -25.308 -16.437 -42.488  1.00  0.00     0.021 C
HETATM   10  C20 UNL     1     -26.395 -17.484 -42.698  1.00  0.00     0.017 C
HETATM   11  C21 UNL     1     -27.031 -17.267 -44.034  1.00  0.00     0.028 C
HETATM   12  S1  UNL     1     -27.680 -17.115 -41.489  1.00  0.00    -0.121 SA
HETATM   13  C22 UNL     1     -27.998 -18.529 -40.480  1.00  0.00     0.010 C
HETATM   14  C23 UNL     1     -29.061 -18.652 -39.692  1.00  0.00     0.002 C
HETATM   15  C24 UNL     1     -29.273 -19.856 -38.842  1.00  0.00    -0.002 C
HETATM   16  C25 UNL     1     -30.125 -20.909 -39.504  1.00  0.00     0.021 C
HETATM   17  C26 UNL     1     -30.131 -19.346 -37.665  1.00  0.00     0.021 C
ENDROOT
BRANCH   1  18
HETATM   18  O2  UNL     1     -27.987 -21.746 -38.152  1.00  0.00    -0.315 OA
BRANCH  18  19
HETATM   19  C5  UNL     1     -27.923 -22.348 -36.909  1.00  0.00     0.259 C
HETATM   20  O1  UNL     1     -28.424 -21.741 -35.928  1.00  0.00    -0.265 OA
BRANCH  19  21
HETATM   21  C4  UNL     1     -27.296 -23.667 -36.671  1.00  0.00     0.115 C
BRANCH  21  22
HETATM   22  C2  UNL     1     -25.896 -23.720 -37.260  1.00  0.00    -0.013 C
HETATM   23  C1  UNL     1     -24.902 -24.323 -36.312  1.00  0.00     0.010 C
HETATM   24  C3  UNL     1     -25.981 -24.557 -38.538  1.00  0.00     0.010 C
ENDBRANCH  21  22
ENDBRANCH  19  21
ENDBRANCH  18  19
ENDBRANCH   1  18
BRANCH   3  25
HETATM   25  O3  UNL     1     -27.466 -20.815 -41.033  1.00  0.00    -0.384 OA
ATOM     26  H3  UNL     1     -28.302 -20.942 -40.599  1.00  0.00     0.211 HD
ENDBRANCH   3  25
BRANCH   7  27
HETATM   27  C13 UNL     1     -23.501 -18.826 -43.968  1.00  0.00    -0.013 C
HETATM   28  C14 UNL     1     -22.703 -20.121 -44.091  1.00  0.00     0.010 C
BRANCH  27  29
HETATM   29  C15 UNL     1     -22.726 -17.753 -44.619  1.00  0.00     0.015 C
BRANCH  29  30
HETATM   30  C16 UNL     1     -22.946 -17.444 -46.040  1.00  0.00     0.113 C
BRANCH  30  31
HETATM   31  C17 UNL     1     -24.239 -16.834 -46.403  1.00  0.00     0.172 C
HETATM   32  O4  UNL     1     -24.949 -17.521 -47.220  1.00  0.00    -0.648 OA
HETATM   33  O5  UNL     1     -24.675 -15.633 -45.920  1.00  0.00    -0.648 OA
ENDBRANCH  30  31
ENDBRANCH  29  30
ENDBRANCH  27  29
ENDBRANCH   7  27
TORSDOF 9
ENDMDL