MODEL 2
REMARK VINA RESULT: -7.518015026      3.615      7.058
REMARK  10 active torsions:
REMARK  status: ('A' for Active; 'I' for Inactive)
REMARK    1  A    between atoms: C2_2  and  C3_3
REMARK    2  A    between atoms: C3_3  and  C5_5
REMARK    3  A    between atoms: C6_6  and  C7_7
REMARK    4  A    between atoms: C9_9  and  C10_10
REMARK    5  A    between atoms: C10_10  and  C11_11
REMARK    6  A    between atoms: C12_12  and  O1_14
REMARK    7  A    between atoms: C16_18  and  C18_20
REMARK    8  A    between atoms: C24_30  and  C26_32
REMARK    9  A    between atoms: C26_32  and  O3_33
REMARK   10  A    between atoms: O3_33  and  C27_34
ROOT
HETATM    1  C11 UNL     1     -26.692 -20.246 -40.547  1.00  0.00     0.034 C
HETATM    2  C12 UNL     1     -27.167 -19.773 -39.213  1.00  0.00     0.059 C
HETATM    3  C13 UNL     1     -27.558 -18.279 -39.282  1.00  0.00     0.046 C
HETATM    4  C14 UNL     1     -28.378 -20.484 -38.716  1.00  0.00     0.044 C
HETATM    5  C15 UNL     1     -28.452 -21.961 -38.877  1.00  0.00     0.011 C
HETATM    6  C16 UNL     1     -28.389 -22.739 -37.592  1.00  0.00    -0.002 C
HETATM    7  C17 UNL     1     -29.239 -24.023 -37.672  1.00  0.00     0.021 C
HETATM    8  C19 UNL     1     -27.063 -23.143 -37.103  1.00  0.00     0.093 C
HETATM    9  C20 UNL     1     -26.283 -23.671 -38.222  1.00  0.00     0.128 C
HETATM   10  O2  UNL     1     -25.366 -24.436 -37.963  1.00  0.00    -0.298 OA
HETATM   11  C21 UNL     1     -26.499 -23.369 -39.653  1.00  0.00     0.088 C
HETATM   12  C22 UNL     1     -27.671 -22.552 -40.014  1.00  0.00    -0.023 C
HETATM   13  C23 UNL     1     -28.617 -23.505 -40.754  1.00  0.00     0.017 C
HETATM   14  C24 UNL     1     -27.302 -21.486 -41.049  1.00  0.00    -0.007 C
HETATM   15  C25 UNL     1     -28.665 -21.101 -41.668  1.00  0.00     0.019 C
ENDROOT
BRANCH   1  16
HETATM   16  C10 UNL     1     -25.165 -20.159 -40.682  1.00  0.00     0.036 C
BRANCH  16  17
HETATM   17  C9  UNL     1     -24.786 -19.120 -41.663  1.00  0.00    -0.020 C
HETATM   18  C7  UNL     1     -24.018 -19.281 -42.722  1.00  0.00    -0.066 C
HETATM   19  C8  UNL     1     -23.377 -20.544 -43.145  1.00  0.00     0.048 C
BRANCH  18  20
HETATM   20  C6  UNL     1     -23.734 -18.128 -43.611  1.00  0.00     0.003 C
HETATM   21  C5  UNL     1     -22.852 -18.128 -44.554  1.00  0.00    -0.018 C
BRANCH  21  22
HETATM   22  C3  UNL     1     -22.614 -16.942 -45.412  1.00  0.00     0.026 C
HETATM   23  C4  UNL     1     -23.558 -15.814 -45.099  1.00  0.00     0.018 C
BRANCH  22  24
HETATM   24  C2  UNL     1     -22.823 -17.360 -46.817  1.00  0.00    -0.029 C
HETATM   25  C1  UNL     1     -24.032 -17.464 -47.329  1.00  0.00     0.007 C
ENDBRANCH  22  24
ENDBRANCH  21  22
ENDBRANCH  18  20
ENDBRANCH  16  17
ENDBRANCH   1  16
BRANCH   2  26
HETATM   26  O1  UNL     1     -26.206 -19.798 -38.208  1.00  0.00    -0.390 OA
ATOM     27  H1  UNL     1     -25.328 -19.573 -38.490  1.00  0.00     0.210 HD
ENDBRANCH   2  26
BRANCH  14  28
HETATM   28  C26 UNL     1     -26.550 -22.141 -42.179  1.00  0.00     0.189 C
BRANCH  28  29
HETATM   29  O3  UNL     1     -26.789 -21.486 -43.418  1.00  0.00    -0.321 OA
BRANCH  29  30
HETATM   30  C27 UNL     1     -26.879 -22.134 -44.617  1.00  0.00     0.254 C
HETATM   31  C28 UNL     1     -26.320 -23.489 -44.878  1.00  0.00     0.126 C
HETATM   32  O4  UNL     1     -27.485 -21.522 -45.561  1.00  0.00    -0.266 OA
ENDBRANCH  29  30
ENDBRANCH  28  29
ENDBRANCH  14  28
BRANCH   6  33
HETATM   33  C18 UNL     1     -29.063 -21.942 -36.519  1.00  0.00     0.062 C
HETATM   34  N1  UNL     1     -28.758 -22.037 -35.287  1.00  0.00    -0.410 N
ATOM     35  H12 UNL     1     -28.017 -22.691 -35.036  1.00  0.00     0.155 HD
ATOM     36  H11 UNL     1     -29.217 -21.494 -34.555  1.00  0.00     0.155 HD
ENDBRANCH   6  33
TORSDOF 10
ENDMDL