MODEL 4
REMARK VINA RESULT: -6.240567048      0.878      1.108
REMARK  10 active torsions:
REMARK  status: ('A' for Active; 'I' for Inactive)
REMARK    1  A    between atoms: O1_2  and  C2_3
REMARK    2  A    between atoms: C2_3  and  C3_4
REMARK    3  A    between atoms: C3_4  and  C4_5
REMARK    4  A    between atoms: C4_5  and  C5_6
REMARK    5  A    between atoms: C5_6  and  C6_7
REMARK    6  A    between atoms: C6_7  and  C7_8
REMARK    7  A    between atoms: C7_8  and  O3_10
REMARK    8  A    between atoms: C21_24  and  C22_25
REMARK    9  A    between atoms: C22_25  and  O4_27
REMARK   10  A    between atoms: C22_25  and  O5_29
ROOT
HETATM    1  C3  UNL     1     -25.220 -18.257 -43.408  1.00  0.00    -0.015 C
HETATM    2  C9  UNL     1     -24.407 -17.535 -42.387  1.00  0.00     0.013 C
HETATM    3  C10 UNL     1     -24.981 -17.999 -41.025  1.00  0.00     0.011 C
HETATM    4  C11 UNL     1     -25.116 -19.470 -41.319  1.00  0.00    -0.036 C
HETATM    5  C12 UNL     1     -23.790 -20.138 -41.389  1.00  0.00     0.016 C
HETATM    6  C13 UNL     1     -26.094 -20.202 -40.417  1.00  0.00    -0.002 C
HETATM    7  C14 UNL     1     -25.713 -20.216 -38.990  1.00  0.00     0.006 C
HETATM    8  C15 UNL     1     -26.229 -21.326 -38.163  1.00  0.00     0.010 C
HETATM    9  C16 UNL     1     -27.267 -22.138 -38.826  1.00  0.00    -0.031 C
HETATM   10  C17 UNL     1     -28.496 -21.276 -39.042  1.00  0.00     0.016 C
HETATM   11  C18 UNL     1     -26.687 -22.634 -40.147  1.00  0.00    -0.001 C
HETATM   12  C19 UNL     1     -27.786 -23.531 -40.618  1.00  0.00     0.006 C
HETATM   13  C20 UNL     1     -28.030 -24.343 -39.334  1.00  0.00     0.011 C
HETATM   14  C21 UNL     1     -27.685 -23.388 -38.184  1.00  0.00     0.056 C
HETATM   15  C24 UNL     1     -26.204 -21.597 -41.050  1.00  0.00    -0.005 C
HETATM   16  C25 UNL     1     -26.958 -21.475 -42.368  1.00  0.00     0.006 C
HETATM   17  C26 UNL     1     -26.016 -20.680 -43.297  1.00  0.00     0.007 C
HETATM   18  C27 UNL     1     -25.849 -19.375 -42.644  1.00  0.00     0.005 C
ENDROOT
BRANCH   1  19
HETATM   19  C2  UNL     1     -26.371 -17.308 -43.784  1.00  0.00     0.176 C
BRANCH  19  20
HETATM   20  O1  UNL     1     -26.000 -15.990 -43.650  1.00  0.00    -0.395 OA
HETATM   21  C1  UNL     1     -27.134 -15.238 -43.432  1.00  0.00     0.201 C
ENDBRANCH  19  20
ENDBRANCH   1  19
BRANCH   1  22
HETATM   22  C4  UNL     1     -24.475 -18.689 -44.607  1.00  0.00     0.012 C
BRANCH  22  23
HETATM   23  C5  UNL     1     -23.222 -18.024 -44.979  1.00  0.00     0.011 C
BRANCH  23  24
HETATM   24  C6  UNL     1     -23.219 -16.824 -45.832  1.00  0.00     0.111 C
BRANCH  24  25
HETATM   25  C7  UNL     1     -24.178 -16.838 -46.967  1.00  0.00     0.258 C
HETATM   26  O2  UNL     1     -24.060 -17.513 -47.996  1.00  0.00    -0.265 OA
BRANCH  25  27
HETATM   27  O3  UNL     1     -25.295 -16.021 -46.848  1.00  0.00    -0.326 OA
HETATM   28  C8  UNL     1     -26.566 -16.388 -47.300  1.00  0.00     0.213 C
ENDBRANCH  25  27
ENDBRANCH  24  25
ENDBRANCH  23  24
ENDBRANCH  22  23
ENDBRANCH   1  22
BRANCH  14  29
HETATM   29  C22 UNL     1     -26.774 -24.010 -37.192  1.00  0.00     0.159 C
HETATM   30  C23 UNL     1     -27.067 -25.521 -37.206  1.00  0.00     0.079 C
BRANCH  29  31
HETATM   31  O4  UNL     1     -25.434 -23.881 -37.420  1.00  0.00    -0.365 OA
ATOM     32  H4  UNL     1     -25.013 -24.577 -37.912  1.00  0.00     0.213 HD
ENDBRANCH  29  31
BRANCH  29  33
HETATM   33  O5  UNL     1     -27.136 -23.570 -35.925  1.00  0.00    -0.365 OA
ATOM     34  H5  UNL     1     -27.132 -22.620 -35.922  1.00  0.00     0.213 HD
ENDBRANCH  29  33
ENDBRANCH  14  29
TORSDOF 10
ENDMDL