MODEL 5
REMARK VINA RESULT: -6.827884965      1.957      3.229
REMARK  10 active torsions:
REMARK  status: ('A' for Active; 'I' for Inactive)
REMARK    1  A    between atoms: C2_2  and  O2_4
REMARK    2  A    between atoms: O2_4  and  C3_5
REMARK    3  A    between atoms: C3_5  and  C4_6
REMARK    4  A    between atoms: C3_5  and  C7_9
REMARK    5  A    between atoms: C7_9  and  C9_11
REMARK    6  A    between atoms: C9_11  and  C10_12
REMARK    7  A    between atoms: C10_12  and  C11_13
REMARK    8  A    between atoms: C13_15  and  C14_16
REMARK    9  A    between atoms: C14_16  and  N1_17
REMARK   10  A    between atoms: C23_32  and  O4_33
ROOT
HETATM    1  C11 UNL     1     -27.051 -17.775 -42.141  1.00  0.00    -0.013 C
HETATM    2  C12 UNL     1     -28.223 -17.361 -42.919  1.00  0.00     0.021 C
HETATM    3  C13 UNL     1     -26.371 -19.037 -42.544  1.00  0.00     0.024 C
HETATM    4  C15 UNL     1     -25.855 -19.602 -41.241  1.00  0.00     0.013 C
HETATM    5  C16 UNL     1     -26.382 -18.769 -40.115  1.00  0.00     0.008 C
HETATM    6  C17 UNL     1     -26.966 -19.711 -39.063  1.00  0.00    -0.009 C
HETATM    7  C18 UNL     1     -27.503 -18.878 -37.878  1.00  0.00     0.021 C
HETATM    8  C19 UNL     1     -26.054 -20.692 -38.487  1.00  0.00     0.057 C
HETATM    9  C20 UNL     1     -26.595 -22.056 -38.411  1.00  0.00    -0.001 A
HETATM   10  C21 UNL     1     -26.112 -23.228 -37.793  1.00  0.00     0.124 A
HETATM   11  N2  UNL     1     -26.938 -24.211 -38.160  1.00  0.00    -0.271 N
ATOM     12  H2  UNL     1     -26.848 -25.186 -37.874  1.00  0.00     0.194 HD
HETATM   13  O3  UNL     1     -27.862 -23.752 -38.927  1.00  0.00    -0.235 OA
HETATM   14  C22 UNL     1     -27.702 -22.439 -39.110  1.00  0.00     0.139 A
HETATM   15  C23 UNL     1     -28.497 -21.472 -39.876  1.00  0.00     0.105 C
HETATM   16  C24 UNL     1     -28.128 -20.216 -39.846  1.00  0.00    -0.034 C
HETATM   17  C25 UNL     1     -28.695 -19.027 -40.608  1.00  0.00     0.048 C
HETATM   18  C26 UNL     1     -27.582 -18.088 -40.724  1.00  0.00    -0.025 C
HETATM   19  C27 UNL     1     -27.995 -16.813 -40.022  1.00  0.00     0.017 C
ENDROOT
BRANCH   1  20
HETATM   20  C10 UNL     1     -26.066 -16.662 -41.947  1.00  0.00    -0.020 C
BRANCH  20  21
HETATM   21  C9  UNL     1     -24.963 -16.366 -42.845  1.00  0.00    -0.023 C
BRANCH  21  22
HETATM   22  C7  UNL     1     -25.150 -15.745 -44.161  1.00  0.00     0.034 C
HETATM   23  C8  UNL     1     -23.881 -14.877 -44.398  1.00  0.00     0.017 C
BRANCH  22  24
HETATM   24  C3  UNL     1     -25.207 -16.756 -45.310  1.00  0.00     0.142 C
BRANCH  24  25
HETATM   25  O2  UNL     1     -24.659 -17.981 -45.007  1.00  0.00    -0.315 OA
BRANCH  25  26
HETATM   26  C2  UNL     1     -23.443 -18.491 -45.262  1.00  0.00     0.255 C
HETATM   27  C1  UNL     1     -22.825 -19.556 -44.442  1.00  0.00     0.126 C
HETATM   28  O1  UNL     1     -22.820 -18.044 -46.226  1.00  0.00    -0.266 OA
ENDBRANCH  25  26
ENDBRANCH  24  25
BRANCH  24  29
HETATM   29  C4  UNL     1     -26.430 -16.699 -46.121  1.00  0.00     0.008 C
HETATM   30  C5  UNL     1     -27.200 -17.941 -46.339  1.00  0.00     0.012 C
HETATM   31  C6  UNL     1     -26.126 -16.163 -47.522  1.00  0.00     0.012 C
ENDBRANCH  24  29
ENDBRANCH  22  24
ENDBRANCH  21  22
ENDBRANCH  20  21
ENDBRANCH   1  20
BRANCH   3  32
HETATM   32  C14 UNL     1     -26.995 -20.070 -43.344  1.00  0.00     0.235 C
BRANCH  32  33
HETATM   33  N1  UNL     1     -26.220 -20.721 -44.373  1.00  0.00    -0.079 N
ATOM     34  H13 UNL     1     -26.365 -20.230 -45.255  1.00  0.00     0.274 HD
ATOM     35  H12 UNL     1     -25.231 -20.539 -44.204  1.00  0.00     0.274 HD
ATOM     36  H11 UNL     1     -26.348 -21.721 -44.529  1.00  0.00     0.274 HD
ENDBRANCH  32  33
ENDBRANCH   3  32
BRANCH  15  37
HETATM   37  O4  UNL     1     -29.594 -21.912 -40.593  1.00  0.00    -0.357 OA
ATOM     38  H4  UNL     1     -30.331 -21.327 -40.724  1.00  0.00     0.217 HD
ENDBRANCH  15  37
TORSDOF 10
ENDMDL