MODEL 2
REMARK VINA RESULT: -7.468240435      0.681      1.558
REMARK  9 active torsions:
REMARK  status: ('A' for Active; 'I' for Inactive)
REMARK    1  A    between atoms: O1_2  and  C2_3
REMARK    2  A    between atoms: C2_3  and  C3_5
REMARK    3  A    between atoms: C3_5  and  C4_6
REMARK    4  A    between atoms: C3_5  and  O5_33
REMARK    5  A    between atoms: C5_7  and  C6_8
REMARK    6  A    between atoms: C6_8  and  C8_10
REMARK    7  A    between atoms: C8_10  and  O3_11
REMARK    8  A    between atoms: C19_23  and  C21_25
REMARK    9  A    between atoms: C21_25  and  O4_26
ROOT
HETATM    1  C8  UNL     1     -25.610 -20.040 -41.467  1.00  0.00     0.111 C
HETATM    2  C9  UNL     1     -26.603 -19.034 -41.097  1.00  0.00    -0.049 C
HETATM    3  C10 UNL     1     -28.036 -19.199 -40.732  1.00  0.00     0.046 C
HETATM    4  C11 UNL     1     -26.117 -17.755 -41.149  1.00  0.00    -0.021 C
HETATM    5  C12 UNL     1     -24.742 -17.444 -41.545  1.00  0.00     0.033 C
HETATM    6  C13 UNL     1     -24.236 -18.289 -42.676  1.00  0.00     0.009 C
HETATM    7  C14 UNL     1     -24.160 -17.596 -44.015  1.00  0.00    -0.035 C
HETATM    8  C15 UNL     1     -22.881 -18.164 -44.742  1.00  0.00     0.016 C
HETATM    9  C16 UNL     1     -23.765 -16.142 -43.901  1.00  0.00     0.010 C
HETATM   10  C17 UNL     1     -24.804 -15.134 -44.113  1.00  0.00     0.002 C
HETATM   11  C18 UNL     1     -26.121 -15.645 -44.642  1.00  0.00     0.012 C
HETATM   12  C19 UNL     1     -25.843 -16.669 -45.668  1.00  0.00    -0.018 C
HETATM   13  C20 UNL     1     -27.204 -17.100 -46.242  1.00  0.00     0.018 C
HETATM   14  C22 UNL     1     -25.221 -17.875 -45.003  1.00  0.00     0.004 C
HETATM   15  C23 UNL     1     -26.351 -18.728 -44.509  1.00  0.00     0.007 C
HETATM   16  C24 UNL     1     -25.717 -19.927 -43.881  1.00  0.00     0.014 C
HETATM   17  C25 UNL     1     -24.811 -19.670 -42.729  1.00  0.00    -0.000 C
HETATM   18  C26 UNL     1     -23.610 -20.634 -42.702  1.00  0.00     0.019 C
ENDROOT
BRANCH   1  19
HETATM   19  C6  UNL     1     -26.124 -21.376 -41.390  1.00  0.00    -0.045 C
HETATM   20  C7  UNL     1     -25.662 -22.543 -42.142  1.00  0.00     0.047 C
BRANCH  19  21
HETATM   21  C5  UNL     1     -26.275 -21.796 -39.970  1.00  0.00     0.005 C
HETATM   22  C4  UNL     1     -27.094 -22.811 -39.603  1.00  0.00     0.015 C
BRANCH  22  23
HETATM   23  C3  UNL     1     -27.271 -23.256 -38.210  1.00  0.00     0.243 C
BRANCH  23  24
HETATM   24  C2  UNL     1     -26.176 -24.200 -37.879  1.00  0.00     0.291 C
HETATM   25  O2  UNL     1     -26.101 -25.279 -38.517  1.00  0.00    -0.262 OA
BRANCH  24  26
HETATM   26  O1  UNL     1     -25.234 -23.952 -36.903  1.00  0.00    -0.324 OA
HETATM   27  C1  UNL     1     -24.978 -24.941 -35.925  1.00  0.00     0.213 C
ENDBRANCH  24  26
ENDBRANCH  23  24
BRANCH  23  28
HETATM   28  O5  UNL     1     -27.271 -22.189 -37.318  1.00  0.00    -0.377 OA
HETATM   29  C27 UNL     1     -28.355 -22.317 -36.477  1.00  0.00     0.203 C
ENDBRANCH  23  28
ENDBRANCH  22  23
ENDBRANCH  19  21
ENDBRANCH   1  19
BRANCH   1  30
HETATM   30  O3  UNL     1     -24.546 -19.968 -40.498  1.00  0.00    -0.380 OA
ATOM     31  H3  UNL     1     -24.769 -19.249 -39.920  1.00  0.00     0.211 HD
ENDBRANCH   1  30
BRANCH  12  32
HETATM   32  C21 UNL     1     -25.077 -16.144 -46.836  1.00  0.00     0.173 C
BRANCH  32  33
HETATM   33  O4  UNL     1     -24.654 -17.206 -47.665  1.00  0.00    -0.400 OA
ATOM     34  H4  UNL     1     -24.917 -17.050 -48.564  1.00  0.00     0.209 HD
ENDBRANCH  32  33
ENDBRANCH  12  32
TORSDOF 9
ENDMDL