MODEL 3
REMARK VINA RESULT: -7.149625574      2.367      7.098
REMARK  9 active torsions:
REMARK  status: ('A' for Active; 'I' for Inactive)
REMARK    1  A    between atoms: O1_2  and  C2_3
REMARK    2  A    between atoms: C12_14  and  C13_15
REMARK    3  A    between atoms: C13_15  and  C14_16
REMARK    4  A    between atoms: C17_20  and  C18_21
REMARK    5  A    between atoms: C18_21  and  O4_22
REMARK    6  A    between atoms: C18_21  and  C19_24
REMARK    7  A    between atoms: C18_21  and  C20_27
REMARK    8  A    between atoms: C19_24  and  O5_25
REMARK    9  A    between atoms: C20_27  and  C21_28
ROOT
HETATM    1  C14 UNL     1     -27.487 -19.413 -40.053  1.00  0.00    -0.007 C
HETATM    2  C15 UNL     1     -27.670 -20.132 -38.750  1.00  0.00     0.031 C
HETATM    3  C16 UNL     1     -27.754 -19.073 -37.656  1.00  0.00     0.168 C
HETATM    4  O3  UNL     1     -27.970 -17.803 -38.222  1.00  0.00    -0.383 OA
HETATM    5  C17 UNL     1     -29.070 -17.865 -39.055  1.00  0.00     0.158 C
HETATM    6  C25 UNL     1     -28.706 -18.603 -40.346  1.00  0.00     0.040 C
ENDROOT
BRANCH   1   7
HETATM    7  C13 UNL     1     -27.109 -20.372 -41.178  1.00  0.00     0.032 C
BRANCH   7   8
HETATM    8  C12 UNL     1     -26.864 -19.692 -42.435  1.00  0.00    -0.021 C
HETATM    9  C11 UNL     1     -25.830 -19.441 -43.167  1.00  0.00    -0.050 C
HETATM   10  C8  UNL     1     -24.404 -19.751 -43.030  1.00  0.00     0.078 C
HETATM   11  C26 UNL     1     -26.101 -18.660 -44.479  1.00  0.00     0.047 C
HETATM   12  O2  UNL     1     -23.552 -18.664 -43.173  1.00  0.00    -0.365 OA
HETATM   13  C9  UNL     1     -24.089 -20.832 -44.061  1.00  0.00     0.051 C
HETATM   14  C10 UNL     1     -24.031 -20.356 -41.697  1.00  0.00     0.051 C
HETATM   15  C6  UNL     1     -23.796 -17.761 -44.138  1.00  0.00     0.065 C
HETATM   16  C5  UNL     1     -23.156 -16.434 -43.698  1.00  0.00     0.038 C
HETATM   17  C7  UNL     1     -23.065 -18.146 -45.409  1.00  0.00     0.046 C
HETATM   18  C27 UNL     1     -25.247 -17.443 -44.380  1.00  0.00     0.053 C
HETATM   19  C4  UNL     1     -23.945 -15.250 -44.113  1.00  0.00     0.006 C
HETATM   20  C3  UNL     1     -24.581 -15.343 -45.461  1.00  0.00     0.032 C
HETATM   21  C2  UNL     1     -25.330 -16.644 -45.663  1.00  0.00     0.128 C
BRANCH  21  22
HETATM   22  O1  UNL     1     -26.625 -16.459 -46.097  1.00  0.00    -0.390 OA
HETATM   23  C1  UNL     1     -26.696 -16.493 -47.509  1.00  0.00     0.202 C
ENDBRANCH  21  22
ENDBRANCH   7   8
ENDBRANCH   1   7
BRANCH   5  24
HETATM   24  C18 UNL     1     -29.690 -16.555 -39.387  1.00  0.00     0.108 C
BRANCH  24  25
HETATM   25  O4  UNL     1     -30.520 -16.668 -40.522  1.00  0.00    -0.385 OA
ATOM     26  H4  UNL     1     -30.012 -16.586 -41.320  1.00  0.00     0.210 HD
ENDBRANCH  24  25
BRANCH  24  27
HETATM   27  C19 UNL     1     -30.632 -16.207 -38.234  1.00  0.00     0.204 C
BRANCH  27  28
HETATM   28  O5  UNL     1     -30.193 -16.717 -37.028  1.00  0.00    -0.398 OA
ATOM     29  H5  UNL     1     -30.831 -17.295 -36.628  1.00  0.00     0.209 HD
ENDBRANCH  27  28
ENDBRANCH  24  27
BRANCH  24  30
HETATM   30  C20 UNL     1     -28.704 -15.454 -39.555  1.00  0.00     0.070 C
BRANCH  30  31
HETATM   31  C21 UNL     1     -28.567 -14.923 -40.925  1.00  0.00    -0.022 C
HETATM   32  C22 UNL     1     -27.508 -15.209 -41.695  1.00  0.00    -0.091 C
HETATM   33  C23 UNL     1     -27.373 -14.679 -43.059  1.00  0.00     0.042 C
HETATM   34  C24 UNL     1     -26.415 -16.095 -41.165  1.00  0.00     0.042 C
ENDBRANCH  30  31
ENDBRANCH  24  30
ENDBRANCH   5  24
TORSDOF 9
ENDMDL