MODEL 1
REMARK VINA RESULT: -7.192436520      0.000      0.000
REMARK  9 active torsions:
REMARK  status: ('A' for Active; 'I' for Inactive)
REMARK    1  A    between atoms: C2_2  and  C3_3
REMARK    2  A    between atoms: C2_2  and  C6_7
REMARK    3  A    between atoms: C3_3  and  C4_4
REMARK    4  A    between atoms: C9_10  and  C10_11
REMARK    5  A    between atoms: C10_11  and  O2_12
REMARK    6  A    between atoms: C14_17  and  O3_18
REMARK    7  A    between atoms: C20_25  and  C21_26
REMARK    8  A    between atoms: C20_25  and  C23_28
REMARK    9  A    between atoms: C23_28  and  C24_29
ROOT
HETATM    1  C6  UNL     1     -27.135 -19.177 -39.261  1.00  0.00     0.014 C
HETATM    2  C7  UNL     1     -26.194 -19.566 -40.337  1.00  0.00     0.010 C
HETATM    3  C8  UNL     1     -26.278 -18.829 -41.615  1.00  0.00     0.015 C
HETATM    4  C9  UNL     1     -27.594 -18.234 -41.964  1.00  0.00     0.012 C
HETATM    5  C11 UNL     1     -28.448 -17.875 -40.796  1.00  0.00     0.002 C
HETATM    6  C12 UNL     1     -28.511 -19.023 -39.812  1.00  0.00     0.014 C
HETATM    7  C13 UNL     1     -27.895 -16.691 -40.031  1.00  0.00     0.037 C
HETATM    8  C14 UNL     1     -28.523 -15.466 -40.645  1.00  0.00     0.122 C
HETATM    9  C15 UNL     1     -27.614 -14.893 -41.655  1.00  0.00     0.017 C
HETATM   10  C16 UNL     1     -28.397 -14.040 -42.614  1.00  0.00     0.013 C
HETATM   11  C17 UNL     1     -26.738 -15.908 -42.392  1.00  0.00     0.022 C
HETATM   12  C18 UNL     1     -26.130 -15.063 -43.524  1.00  0.00     0.009 C
HETATM   13  C19 UNL     1     -24.868 -15.691 -43.951  1.00  0.00     0.020 C
HETATM   14  C20 UNL     1     -25.036 -16.622 -45.153  1.00  0.00     0.048 C
HETATM   15  C26 UNL     1     -25.941 -17.731 -44.856  1.00  0.00     0.268 C
HETATM   16  O4  UNL     1     -25.555 -18.843 -45.301  1.00  0.00    -0.264 OA
HETATM   17  O5  UNL     1     -27.107 -17.590 -44.160  1.00  0.00    -0.314 OA
HETATM   18  C27 UNL     1     -27.450 -17.059 -42.939  1.00  0.00     0.147 C
ENDROOT
BRANCH   1  19
HETATM   19  C2  UNL     1     -27.114 -20.250 -38.186  1.00  0.00    -0.078 C
HETATM   20  C1  UNL     1     -28.013 -20.181 -37.259  1.00  0.00     0.015 C
BRANCH  19  21
HETATM   21  C3  UNL     1     -26.067 -21.240 -38.319  1.00  0.00     0.111 C
BRANCH  21  22
HETATM   22  C4  UNL     1     -26.422 -22.656 -38.305  1.00  0.00     0.127 C
HETATM   23  C5  UNL     1     -26.611 -23.284 -39.689  1.00  0.00     0.091 C
HETATM   24  O1  UNL     1     -26.592 -23.416 -37.402  1.00  0.00    -0.298 OA
ENDBRANCH  21  22
ENDBRANCH  19  21
ENDBRANCH   1  19
BRANCH   4  25
HETATM   25  C10 UNL     1     -28.383 -19.281 -42.768  1.00  0.00     0.176 C
BRANCH  25  26
HETATM   26  O2  UNL     1     -27.421 -20.205 -43.215  1.00  0.00    -0.400 OA
ATOM     27  H2  UNL     1     -27.838 -21.055 -43.139  1.00  0.00     0.209 HD
ENDBRANCH  25  26
ENDBRANCH   4  25
BRANCH   8  28
HETATM   28  O3  UNL     1     -28.760 -14.546 -39.612  1.00  0.00    -0.395 OA
ATOM     29  H3  UNL     1     -29.026 -15.038 -38.844  1.00  0.00     0.210 HD
ENDBRANCH   8  28
BRANCH  14  30
HETATM   30  C21 UNL     1     -23.634 -17.100 -45.450  1.00  0.00     0.015 C
HETATM   31  C22 UNL     1     -22.668 -17.021 -44.359  1.00  0.00     0.006 C
ENDBRANCH  14  30
BRANCH  14  32
HETATM   32  C23 UNL     1     -25.574 -15.877 -46.334  1.00  0.00     0.019 C
BRANCH  32  33
HETATM   33  C24 UNL     1     -26.003 -16.779 -47.468  1.00  0.00    -0.003 C
HETATM   34  C25 UNL     1     -27.505 -16.659 -47.662  1.00  0.00     0.005 C
ENDBRANCH  32  33
ENDBRANCH  14  32
TORSDOF 9
ENDMDL