MODEL 3
REMARK VINA RESULT: -7.267943769      2.445      5.705
REMARK  9 active torsions:
REMARK  status: ('A' for Active; 'I' for Inactive)
REMARK    1  A    between atoms: C2_2  and  O2_4
REMARK    2  A    between atoms: O2_4  and  C3_5
REMARK    3  A    between atoms: C4_6  and  C5_7
REMARK    4  A    between atoms: C5_7  and  C6_8
REMARK    5  A    between atoms: C6_8  and  C7_9
REMARK    6  A    between atoms: C6_8  and  C11_13
REMARK    7  A    between atoms: C11_13  and  C12_14
REMARK    8  A    between atoms: C27_29  and  O3_31
REMARK    9  A    between atoms: C29_33  and  O4_34
ROOT
HETATM    1  C3  UNL     1     -28.288 -17.204 -42.598  1.00  0.00     0.179 C
HETATM    2  C4  UNL     1     -27.240 -16.471 -43.473  1.00  0.00     0.000 C
HETATM    3  C16 UNL     1     -27.626 -15.007 -43.430  1.00  0.00     0.040 C
HETATM    4  C17 UNL     1     -28.078 -14.665 -42.024  1.00  0.00    -0.023 C
HETATM    5  C18 UNL     1     -27.808 -15.290 -40.895  1.00  0.00    -0.080 C
HETATM    6  C19 UNL     1     -28.387 -14.728 -39.677  1.00  0.00     0.043 C
HETATM    7  C20 UNL     1     -26.971 -16.513 -40.708  1.00  0.00     0.054 C
HETATM    8  C21 UNL     1     -25.726 -16.236 -41.435  1.00  0.00     0.021 C
HETATM    9  C22 UNL     1     -25.883 -16.612 -42.897  1.00  0.00     0.020 C
HETATM   10  C23 UNL     1     -25.316 -17.986 -43.008  1.00  0.00    -0.025 C
HETATM   11  C24 UNL     1     -25.308 -19.059 -42.216  1.00  0.00    -0.023 C
HETATM   12  C25 UNL     1     -25.904 -19.261 -40.864  1.00  0.00     0.041 C
HETATM   13  C26 UNL     1     -25.727 -20.755 -40.553  1.00  0.00     0.017 C
HETATM   14  C27 UNL     1     -27.385 -19.003 -41.039  1.00  0.00     0.095 C
HETATM   15  C28 UNL     1     -28.012 -19.698 -39.811  1.00  0.00     0.050 C
HETATM   16  C29 UNL     1     -27.821 -17.626 -41.244  1.00  0.00     0.123 C
ENDROOT
BRANCH   2  17
HETATM   17  C5  UNL     1     -27.313 -17.058 -44.825  1.00  0.00     0.025 C
BRANCH  17  18
HETATM   18  C6  UNL     1     -26.827 -16.725 -46.106  1.00  0.00     0.032 C
BRANCH  18  19
HETATM   19  C7  UNL     1     -26.866 -18.031 -46.960  1.00  0.00    -0.016 C
HETATM   20  C8  UNL     1     -27.719 -18.237 -47.917  1.00  0.00    -0.091 C
HETATM   21  C9  UNL     1     -28.733 -17.213 -48.262  1.00  0.00     0.042 C
HETATM   22  C10 UNL     1     -27.719 -19.515 -48.713  1.00  0.00     0.042 C
ENDBRANCH  18  19
BRANCH  18  23
HETATM   23  C11 UNL     1     -25.612 -16.064 -46.596  1.00  0.00    -0.018 C
BRANCH  23  24
HETATM   24  C12 UNL     1     -24.276 -16.568 -46.322  1.00  0.00    -0.001 C
HETATM   25  C13 UNL     1     -23.328 -16.061 -45.562  1.00  0.00    -0.088 C
HETATM   26  C14 UNL     1     -21.988 -16.763 -45.420  1.00  0.00     0.043 C
HETATM   27  C15 UNL     1     -23.561 -14.807 -44.808  1.00  0.00     0.043 C
ENDBRANCH  23  24
ENDBRANCH  18  23
ENDBRANCH  17  18
ENDBRANCH   2  17
BRANCH   1  28
HETATM   28  O2  UNL     1     -28.931 -18.246 -43.314  1.00  0.00    -0.312 OA
BRANCH  28  29
HETATM   29  C2  UNL     1     -30.299 -18.433 -43.400  1.00  0.00     0.255 C
HETATM   30  C1  UNL     1     -31.003 -17.899 -44.588  1.00  0.00     0.126 C
HETATM   31  O1  UNL     1     -30.878 -19.037 -42.481  1.00  0.00    -0.266 OA
ENDBRANCH  28  29
ENDBRANCH   1  28
BRANCH  16  32
HETATM   32  O4  UNL     1     -28.996 -17.537 -40.407  1.00  0.00    -0.383 OA
ATOM     33  H4  UNL     1     -28.719 -17.022 -39.658  1.00  0.00     0.210 HD
ENDBRANCH  16  32
BRANCH  14  34
HETATM   34  O3  UNL     1     -27.745 -19.843 -42.108  1.00  0.00    -0.386 OA
ATOM     35  H3  UNL     1     -27.352 -20.677 -41.880  1.00  0.00     0.210 HD
ENDBRANCH  14  34
TORSDOF 9
ENDMDL