MODEL 4
REMARK VINA RESULT: -6.688796458      4.120      6.305
REMARK  8 active torsions:
REMARK  status: ('A' for Active; 'I' for Inactive)
REMARK    1  A    between atoms: O1_2  and  C2_3
REMARK    2  A    between atoms: C2_3  and  C3_4
REMARK    3  A    between atoms: C3_4  and  O2_5
REMARK    4  A    between atoms: C3_4  and  C4_7
REMARK    5  A    between atoms: C4_7  and  C5_8
REMARK    6  A    between atoms: C5_8  and  C6_9
REMARK    7  A    between atoms: C6_9  and  C7_10
REMARK    8  A    between atoms: C13_18  and  C15_20
ROOT
HETATM    1  C7  UNL     1     -24.841 -20.417 -42.228  1.00  0.00    -0.044 C
HETATM    2  C8  UNL     1     -25.752 -19.308 -42.771  1.00  0.00     0.015 C
HETATM    3  C9  UNL     1     -25.392 -21.779 -42.480  1.00  0.00     0.010 C
HETATM    4  C10 UNL     1     -25.708 -22.532 -41.191  1.00  0.00     0.011 C
HETATM    5  C11 UNL     1     -26.764 -21.726 -40.464  1.00  0.00     0.036 C
HETATM    6  C12 UNL     1     -27.240 -22.404 -39.239  1.00  0.00    -0.003 C
HETATM    7  N1  UNL     1     -26.932 -23.595 -39.012  1.00  0.00    -0.377 N
ATOM      8  H1  UNL     1     -26.348 -24.065 -39.704  1.00  0.00     0.160 HD
HETATM    9  C13 UNL     1     -27.329 -24.354 -37.869  1.00  0.00     0.119 C
HETATM   10  C14 UNL     1     -28.576 -25.192 -38.179  1.00  0.00     0.051 C
HETATM   11  C16 UNL     1     -27.511 -23.504 -36.651  1.00  0.00     0.037 C
HETATM   12  C17 UNL     1     -28.446 -24.203 -35.675  1.00  0.00     0.016 C
HETATM   13  C18 UNL     1     -29.676 -23.337 -35.558  1.00  0.00     0.079 C
HETATM   14  C19 UNL     1     -29.393 -22.079 -36.250  1.00  0.00     0.132 C
HETATM   15  O5  UNL     1     -30.123 -21.119 -36.327  1.00  0.00    -0.298 OA
HETATM   16  C20 UNL     1     -28.037 -22.138 -36.876  1.00  0.00     0.076 C
HETATM   17  C21 UNL     1     -28.085 -21.653 -38.287  1.00  0.00     0.005 C
HETATM   18  C22 UNL     1     -29.485 -21.631 -38.858  1.00  0.00     0.022 C
HETATM   19  C23 UNL     1     -27.623 -20.188 -38.279  1.00  0.00     0.016 C
HETATM   20  C24 UNL     1     -26.157 -20.137 -38.718  1.00  0.00     0.006 C
HETATM   21  C25 UNL     1     -26.192 -20.364 -40.214  1.00  0.00    -0.004 C
HETATM   22  C26 UNL     1     -24.782 -20.202 -40.731  1.00  0.00     0.014 C
ENDROOT
BRANCH   1  23
HETATM   23  C6  UNL     1     -23.484 -20.175 -42.876  1.00  0.00     0.009 C
BRANCH  23  24
HETATM   24  C5  UNL     1     -23.589 -19.861 -44.327  1.00  0.00     0.003 C
BRANCH  24  25
HETATM   25  C4  UNL     1     -22.774 -18.624 -44.622  1.00  0.00     0.034 C
BRANCH  25  26
HETATM   26  C3  UNL     1     -23.110 -17.965 -45.924  1.00  0.00     0.142 C
BRANCH  26  27
HETATM   27  C2  UNL     1     -24.534 -17.475 -45.840  1.00  0.00     0.198 C
BRANCH  27  28
HETATM   28  O1  UNL     1     -25.173 -17.395 -47.065  1.00  0.00    -0.393 OA
HETATM   29  C1  UNL     1     -25.948 -16.279 -47.253  1.00  0.00     0.201 C
ENDBRANCH  27  28
ENDBRANCH  26  27
BRANCH  26  30
HETATM   30  O2  UNL     1     -22.285 -16.871 -46.185  1.00  0.00    -0.393 OA
ATOM     31  H2  UNL     1     -22.567 -16.474 -47.000  1.00  0.00     0.210 HD
ENDBRANCH  26  30
ENDBRANCH  25  26
ENDBRANCH  24  25
ENDBRANCH  23  24
ENDBRANCH   1  23
BRANCH   9  32
HETATM   32  C15 UNL     1     -26.254 -25.347 -37.603  1.00  0.00     0.202 C
HETATM   33  O3  UNL     1     -25.266 -24.938 -36.909  1.00  0.00    -0.646 OA
HETATM   34  O4  UNL     1     -26.321 -26.635 -38.077  1.00  0.00    -0.646 OA
ENDBRANCH   9  32
TORSDOF 8
ENDMDL