MODEL 5
REMARK VINA RESULT: -3.528364279      6.972      8.375
REMARK  1 active torsions:
REMARK  status: ('A' for Active; 'I' for Inactive)
REMARK       I    between atoms: C2_2  and  N1_4
REMARK    1  A    between atoms: N1_4  and  C3_6
ROOT
HETATM    1  C3  UNL     1      11.768  24.417  14.770  1.00  0.00     0.171 C
HETATM    2  C4  UNL     1      12.323  24.016  13.492  1.00  0.00     0.102 C
HETATM    3  N2  UNL     1      12.750  23.706  12.468  1.00  0.00    -0.194 NA
HETATM    4  C5  UNL     1      10.284  24.540  14.778  1.00  0.00     0.059 C
HETATM    5  C6  UNL     1       9.926  25.935  14.339  1.00  0.00     0.014 C
HETATM    6  C7  UNL     1      10.648  26.857  15.330  1.00  0.00     0.077 C
HETATM    7  S1  UNL     1      12.309  26.117  15.213  1.00  0.00    -0.123 SA
ENDROOT
BRANCH   1   8
HETATM    8  N1  UNL     1      12.207  23.565  15.851  1.00  0.00    -0.331 N
HETATM    9  C2  UNL     1      12.012  22.161  15.836  1.00  0.00     0.215 C
HETATM   10  C1  UNL     1      12.476  21.319  16.965  1.00  0.00     0.117 C
HETATM   11  O1  UNL     1      11.443  21.584  14.871  1.00  0.00    -0.274 OA
ATOM     12  H1  UNL     1      12.673  23.988  16.653  1.00  0.00     0.165 HD
ENDBRANCH   1   8
TORSDOF 1
ENDMDL