MODEL 4
REMARK VINA RESULT: -4.045661407      3.313      3.847
REMARK  1 active torsions:
REMARK  status: ('A' for Active; 'I' for Inactive)
REMARK    1  A    between atoms: C1_2  and  C2_4
ROOT
HETATM    1  C2  UNL     1      15.132  19.866  17.011  1.00  0.00     0.107 C
HETATM    2  C3  UNL     1      15.673  19.186  15.768  1.00  0.00     0.102 C
HETATM    3  S1  UNL     1      17.480  19.205  16.153  1.00  0.00    -0.097 SA
HETATM    4  S2  UNL     1      17.176  18.914  18.280  1.00  0.00    -0.097 SA
HETATM    5  C4  UNL     1      15.338  18.880  18.145  1.00  0.00     0.102 C
ENDROOT
BRANCH   1   6
HETATM    6  C1  UNL     1      13.761  20.324  16.882  1.00  0.00     0.178 C
HETATM    7  O1  UNL     1      13.382  20.933  15.864  1.00  0.00    -0.648 OA
HETATM    8  O2  UNL     1      12.855  20.090  17.890  1.00  0.00    -0.648 OA
ENDBRANCH   1   6
TORSDOF 1
ENDMDL