MODEL 4
REMARK VINA RESULT: -5.732670521      1.525      4.192
REMARK  2 active torsions:
REMARK  status: ('A' for Active; 'I' for Inactive)
REMARK    1  A    between atoms: O1_1  and  C1_3
REMARK    2  A    between atoms: C1_3  and  C2_4
ROOT
HETATM    1  C2  UNL     1      16.568  18.836  16.650  1.00  0.00     0.184 C
HETATM    2  C3  UNL     1      15.635  19.709  15.816  1.00  0.00     0.044 C
HETATM    3  C4  UNL     1      14.272  19.713  16.396  1.00  0.00     0.020 C
HETATM    4  C5  UNL     1      13.414  20.880  16.055  1.00  0.00     0.007 C
HETATM    5  C6  UNL     1      12.416  20.904  17.201  1.00  0.00     0.003 C
HETATM    6  C7  UNL     1      12.996  20.014  18.292  1.00  0.00     0.035 C
HETATM    7  C8  UNL     1      14.434  19.931  17.912  1.00  0.00     0.164 C
HETATM    8  O2  UNL     1      15.110  18.828  18.375  1.00  0.00    -0.235 OA
HETATM    9  O3  UNL     1      16.366  18.949  17.993  1.00  0.00    -0.233 OA
ENDROOT
BRANCH   1  10
HETATM   10  C1  UNL     1      17.980  19.342  16.352  1.00  0.00     0.199 C
BRANCH  10  11
HETATM   11  O1  UNL     1      18.628  18.389  15.560  1.00  0.00    -0.398 OA
ATOM     12  H1  UNL     1      18.441  17.528  15.917  1.00  0.00     0.209 HD
ENDBRANCH  10  11
ENDBRANCH   1  10
TORSDOF 2
ENDMDL