MODEL 3
REMARK VINA RESULT: -4.660403743      2.775      4.208
REMARK  2 active torsions:
REMARK  status: ('A' for Active; 'I' for Inactive)
REMARK    1  A    between atoms: C2_2  and  C3_3
REMARK    2  A    between atoms: C3_3  and  O1_4
ROOT
HETATM    1  C3  UNL     1      16.764  19.313  15.830  1.00  0.00     0.101 C
HETATM    2  C4  UNL     1      17.363  18.903  17.152  1.00  0.00     0.210 C
HETATM    3  O2  UNL     1      16.479  18.215  17.954  1.00  0.00    -0.383 OA
HETATM    4  C5  UNL     1      15.540  19.136  18.435  1.00  0.00     0.214 C
HETATM    5  C6  UNL     1      14.764  19.639  17.271  1.00  0.00     0.014 C
HETATM    6  S1  UNL     1      13.401  20.022  17.478  1.00  0.00    -0.087 SA
HETATM    7  C7  UNL     1      15.347  19.754  15.931  1.00  0.00     0.092 C
ENDROOT
BRANCH   1   8
HETATM    8  C2  UNL     1      16.916  18.154  14.900  1.00  0.00     0.003 C
HETATM    9  C1  UNL     1      18.062  17.994  14.255  1.00  0.00     0.010 C
ENDBRANCH   1   8
BRANCH   1  10
HETATM   10  O1  UNL     1      17.588  20.332  15.306  1.00  0.00    -0.383 OA
ATOM     11  H1  UNL     1      18.227  19.888  14.760  1.00  0.00     0.211 HD
ENDBRANCH   1  10
TORSDOF 2
ENDMDL