MODEL 3
REMARK VINA RESULT: -3.907080041      7.936      9.091
REMARK  2 active torsions:
REMARK  status: ('A' for Active; 'I' for Inactive)
REMARK    1  A    between atoms: N1_1  and  C1_4
REMARK    2  A    between atoms: C7_10  and  N2_11
ROOT
HETATM    1  C1  UNL     1       8.035  16.538  12.850  1.00  0.00     0.030 C
HETATM    2  C2  UNL     1       8.459  15.266  12.075  1.00  0.00     0.038 C
HETATM    3  C3  UNL     1       8.052  15.869  10.712  1.00  0.00     0.023 C
HETATM    4  C4  UNL     1       6.561  15.986  11.099  1.00  0.00     0.014 C
HETATM    5  C5  UNL     1       6.837  17.081  12.154  1.00  0.00     0.016 C
HETATM    6  C6  UNL     1       7.369  18.092  11.113  1.00  0.00     0.045 C
HETATM    7  C7  UNL     1       8.619  17.240  10.809  1.00  0.00     0.103 C
HETATM    8  C8  UNL     1       9.177  17.390  12.245  1.00  0.00     0.068 C
ENDROOT
BRANCH   1   9
HETATM    9  N1  UNL     1       8.039  16.427  14.218  1.00  0.00    -0.421 N
ATOM     10  H12 UNL     1       8.402  15.595  14.681  1.00  0.00     0.150 HD
ATOM     11  H11 UNL     1       7.657  17.225  14.725  1.00  0.00     0.150 HD
ENDBRANCH   1   9
BRANCH   7  12
HETATM   12  N2  UNL     1       9.423  17.723   9.807  1.00  0.00    -0.145 N
HETATM   13  O1  UNL     1       8.971  18.256   8.759  1.00  0.00    -0.536 OA
HETATM   14  O2  UNL     1      10.787  17.649   9.903  1.00  0.00    -0.536 OA
ENDBRANCH   7  12
TORSDOF 2
ENDMDL