MODEL 2
REMARK VINA RESULT: -4.124107740      2.367      3.225
REMARK  1 active torsions:
REMARK  status: ('A' for Active; 'I' for Inactive)
REMARK    1  A    between atoms: C4_6  and  C5_7
ROOT
HETATM    1  C1  UNL     1      17.077  17.197  17.982  1.00  0.00     0.017 C
HETATM    2  C2  UNL     1      16.798  18.475  17.734  1.00  0.00    -0.054 C
HETATM    3  C3  UNL     1      16.170  19.366  18.779  1.00  0.00     0.121 C
HETATM    4  S1  UNL     1      14.522  19.698  18.019  1.00  0.00    -0.092 SA
HETATM    5  S2  UNL     1      15.271  19.617  15.986  1.00  0.00    -0.077 SA
HETATM    6  C4  UNL     1      17.005  19.270  16.508  1.00  0.00     0.188 C
ENDROOT
BRANCH   6   7
HETATM    7  C5  UNL     1      17.757  18.600  15.473  1.00  0.00     0.192 C
HETATM    8  O1  UNL     1      19.007  18.606  15.491  1.00  0.00    -0.647 OA
HETATM    9  O2  UNL     1      17.112  17.939  14.447  1.00  0.00    -0.647 OA
ENDBRANCH   6   7
TORSDOF 1
ENDMDL