MODEL 3
REMARK VINA RESULT: -4.590523036      1.134      4.199
REMARK  2 active torsions:
REMARK  status: ('A' for Active; 'I' for Inactive)
REMARK    1  A    between atoms: O1_1  and  C1_3
REMARK    2  A    between atoms: C1_3  and  C2_4
ROOT
HETATM    1  C2  UNL     1      17.229  18.808  15.112  1.00  0.00     0.146 C
HETATM    2  C3  UNL     1      18.044  19.880  15.784  1.00  0.00     0.037 C
HETATM    3  C4  UNL     1      17.596  19.770  17.223  1.00  0.00     0.043 C
HETATM    4  C5  UNL     1      16.352  18.925  17.078  1.00  0.00     0.085 C
HETATM    5  C6  UNL     1      15.160  19.749  16.660  1.00  0.00     0.066 C
HETATM    6  C7  UNL     1      14.397  19.871  17.968  1.00  0.00     0.170 C
HETATM    7  O2  UNL     1      15.277  19.468  18.974  1.00  0.00    -0.388 OA
HETATM    8  C8  UNL     1      15.892  18.339  18.386  1.00  0.00     0.205 C
HETATM    9  O3  UNL     1      16.732  17.988  16.150  1.00  0.00    -0.370 OA
ENDROOT
BRANCH   1  10
HETATM   10  C1  UNL     1      18.117  17.993  14.193  1.00  0.00     0.196 C
BRANCH  10  11
HETATM   11  O1  UNL     1      19.395  18.029  14.705  1.00  0.00    -0.398 OA
ATOM     12  H1  UNL     1      19.985  18.257  13.996  1.00  0.00     0.209 HD
ENDBRANCH  10  11
ENDBRANCH   1  10
TORSDOF 2
ENDMDL