MODEL 3
REMARK VINA RESULT: -4.856105143      3.335      6.008
REMARK  1 active torsions:
REMARK  status: ('A' for Active; 'I' for Inactive)
REMARK    1  A    between atoms: C2_3  and  C3_4
ROOT
HETATM    1  N1  UNL     1      14.555  19.965  18.377  1.00  0.00    -0.197 NA
HETATM    2  C1  UNL     1      13.852  20.041  17.466  1.00  0.00     0.063 C
HETATM    3  C2  UNL     1      12.963  20.135  16.328  1.00  0.00     0.185 C
ENDROOT
BRANCH   3   4
HETATM    4  C3  UNL     1      12.393  21.550  16.204  1.00  0.00     0.334 C
HETATM    5  N2  UNL     1      11.220  21.464  15.370  1.00  0.00    -0.045 N
HETATM    6  C4  UNL     1      11.298  22.588  14.452  1.00  0.00     0.273 C
ATOM      7  H22 UNL     1      11.119  20.563  14.902  1.00  0.00     0.280 HD
ATOM      8  H21 UNL     1      10.347  21.429  15.897  1.00  0.00     0.280 HD
HETATM    9  C5  UNL     1      12.459  23.367  15.026  1.00  0.00     0.087 C
HETATM   10  C6  UNL     1      11.958  24.294  16.086  1.00  0.00     0.040 C
HETATM   11  C9  UNL     1      13.086  24.256  14.017  1.00  0.00     0.040 C
HETATM   12  O1  UNL     1      13.282  22.361  15.500  1.00  0.00    -0.345 OA
HETATM   13  C7  UNL     1      11.529  25.515  15.326  1.00  0.00     0.003 C
HETATM   14  C8  UNL     1      12.084  25.399  13.930  1.00  0.00     0.003 C
ENDBRANCH   3   4
TORSDOF 1
ENDMDL