MODEL 2
REMARK VINA RESULT: -5.937011137      1.043      2.894
REMARK  1 active torsions:
REMARK  status: ('A' for Active; 'I' for Inactive)
REMARK    1  A    between atoms: C1_2  and  C2_4
ROOT
HETATM    1  C2  UNL     1      16.731  19.401  16.936  1.00  0.00     0.151 C
HETATM    2  C3  UNL     1      15.242  19.678  16.723  1.00  0.00     0.228 C
HETATM    3  O3  UNL     1      14.820  19.871  18.023  1.00  0.00    -0.239 OA
HETATM    4  O4  UNL     1      15.676  19.461  18.875  1.00  0.00    -0.229 OA
HETATM    5  C4  UNL     1      16.636  18.684  18.224  1.00  0.00     0.112 C
HETATM    6  C5  UNL     1      17.880  18.416  18.993  1.00  0.00     0.042 C
HETATM    7  C6  UNL     1      17.209  17.136  19.501  1.00  0.00     0.006 C
HETATM    8  C7  UNL     1      16.272  17.256  18.290  1.00  0.00     0.042 C
ENDROOT
BRANCH   1   9
HETATM    9  C1  UNL     1      17.399  18.777  15.825  1.00  0.00     0.182 C
HETATM   10  O1  UNL     1      18.636  18.583  15.763  1.00  0.00    -0.648 OA
HETATM   11  O2  UNL     1      16.654  18.351  14.734  1.00  0.00    -0.648 OA
ENDBRANCH   1   9
TORSDOF 1
ENDMDL