MODEL 1
REMARK VINA RESULT: -4.323188269      0.000      0.000
REMARK  2 active torsions:
REMARK  status: ('A' for Active; 'I' for Inactive)
REMARK    1  A    between atoms: C2_3  and  C3_4
REMARK    2  A    between atoms: C3_4  and  O1_5
ROOT
HETATM    1  N1  UNL     1      11.876  22.263  16.960  1.00  0.00    -0.197 NA
HETATM    2  C1  UNL     1      12.273  21.176  17.079  1.00  0.00     0.062 C
HETATM    3  C2  UNL     1      12.799  19.807  17.223  1.00  0.00     0.162 C
ENDROOT
BRANCH   3   4
HETATM    4  C3  UNL     1      14.323  19.897  17.394  1.00  0.00     0.078 C
HETATM    5  C4  UNL     1      14.952  19.843  16.067  1.00  0.00     0.040 C
HETATM    6  C5  UNL     1      16.310  19.323  15.938  1.00  0.00     0.013 C
HETATM    7  C6  UNL     1      17.221  19.463  17.101  1.00  0.00     0.074 C
HETATM    8  S1  UNL     1      16.481  18.594  18.514  1.00  0.00    -0.166 SA
HETATM    9  C7  UNL     1      14.690  18.818  18.358  1.00  0.00     0.112 C
BRANCH   4  10
HETATM   10  O1  UNL     1      14.584  21.136  17.978  1.00  0.00    -0.388 OA
ATOM     11  H1  UNL     1      14.682  21.756  17.265  1.00  0.00     0.210 HD
ENDBRANCH   4  10
ENDBRANCH   3   4
TORSDOF 2
ENDMDL