MODEL 4
REMARK VINA RESULT: -6.492774624      4.420      7.408
REMARK  9 active torsions:
REMARK  status: ('A' for Active; 'I' for Inactive)
REMARK    1  A    between atoms: O1_2  and  C2_3
REMARK    2  A    between atoms: C3_4  and  C4_5
REMARK    3  A    between atoms: C4_5  and  O2_6
REMARK    4  A    between atoms: O2_6  and  C5_7
REMARK    5  A    between atoms: C7_11  and  O4_12
REMARK    6  A    between atoms: C8_14  and  N2_15
REMARK    7  A    between atoms: C16_25  and  O5_26
REMARK    8  A    between atoms: C21_36  and  O6_37
REMARK    9  A    between atoms: O6_37  and  C22_38
ROOT
HETATM    1  C2  UNL     1      17.806  82.011  -2.143  1.00  0.00     0.197 A
HETATM    2  C3  UNL     1      17.415  80.631  -2.552  1.00  0.00     0.037 A
HETATM    3  C6  UNL     1      16.799  80.740  -3.851  1.00  0.00     0.042 A
HETATM    4  C7  UNL     1      16.235  79.814  -4.711  1.00  0.00     0.107 A
HETATM    5  C8  UNL     1      15.694  80.189  -5.947  1.00  0.00     0.094 A
HETATM    6  C15 UNL     1      15.728  81.512  -6.309  1.00  0.00     0.111 A
HETATM    7  N3  UNL     1      15.170  81.861  -7.570  1.00  0.00    -0.097 NA
HETATM    8  C16 UNL     1      16.286  82.452  -5.468  1.00  0.00     0.120 A
HETATM    9  C17 UNL     1      16.821  82.094  -4.249  1.00  0.00     0.082 A
HETATM   10  N4  UNL     1      17.439  82.874  -3.230  1.00  0.00    -0.338 N
HETATM   11  C18 UNL     1      17.737  84.267  -3.095  1.00  0.00     0.162 C
HETATM   12  C19 UNL     1      17.748  84.729  -1.660  1.00  0.00     0.237 A
HETATM   13  N5  UNL     1      18.726  84.223  -0.736  1.00  0.00    -0.058 N
ATOM     14  H51 UNL     1      19.426  84.626  -0.113  1.00  0.00     0.278 HD
ATOM     15  H52 UNL     1      19.611  83.721  -0.805  1.00  0.00     0.278 HD
HETATM   16  C20 UNL     1      17.331  83.864  -0.641  1.00  0.00     0.253 A
HETATM   17  C21 UNL     1      16.964  82.430  -0.966  1.00  0.00     0.224 C
ENDROOT
BRANCH   5  18
HETATM   18  N2  UNL     1      15.132  79.224  -6.794  1.00  0.00    -0.359 N
HETATM   19  C9  UNL     1      13.945  78.767  -6.749  1.00  0.00    -0.013 C
HETATM   20  C10 UNL     1      12.995  79.245  -5.731  1.00  0.00     0.052 C
HETATM   21  C14 UNL     1      13.522  77.750  -7.723  1.00  0.00     0.052 C
HETATM   22  C11 UNL     1      12.084  78.042  -5.439  1.00  0.00     0.006 C
HETATM   23  C12 UNL     1      11.225  77.857  -6.669  1.00  0.00     0.001 C
HETATM   24  C13 UNL     1      12.049  77.638  -7.889  1.00  0.00     0.006 C
ATOM     25  H2  UNL     1      15.738  78.850  -7.524  1.00  0.00     0.165 HD
ENDBRANCH   5  18
BRANCH   4  26
HETATM   26  O4  UNL     1      16.197  78.493  -4.358  1.00  0.00    -0.357 OA
ATOM     27  H4  UNL     1      16.738  78.179  -3.644  1.00  0.00     0.217 HD
ENDBRANCH   4  26
BRANCH   8  28
HETATM   28  O5  UNL     1      16.282  83.771  -5.906  1.00  0.00    -0.357 OA
ATOM     29  H5  UNL     1      17.124  84.203  -5.981  1.00  0.00     0.218 HD
ENDBRANCH   8  28
BRANCH   2  30
HETATM   30  C4  UNL     1      17.637  79.589  -1.806  1.00  0.00     0.160 C
BRANCH  30  31
HETATM   31  O2  UNL     1      16.885  78.484  -1.582  1.00  0.00    -0.275 OA
BRANCH  31  32
HETATM   32  C5  UNL     1      15.635  78.495  -1.007  1.00  0.00     0.377 C
HETATM   33  N1  UNL     1      14.430  78.482  -1.788  1.00  0.00    -0.032 NA
HETATM   34  O3  UNL     1      15.585  78.517   0.253  1.00  0.00    -0.242 OA
ENDBRANCH  31  32
ENDBRANCH  30  31
ENDBRANCH   2  30
BRANCH   1  35
HETATM   35  O1  UNL     1      19.169  82.073  -1.850  1.00  0.00    -0.359 OA
HETATM   36  C1  UNL     1      19.535  81.104  -0.920  1.00  0.00     0.205 C
ENDBRANCH   1  35
BRANCH  17  37
HETATM   37  O6  UNL     1      15.603  82.339  -1.355  1.00  0.00    -0.315 OA
BRANCH  37  38
HETATM   38  C22 UNL     1      14.636  81.874  -0.507  1.00  0.00     0.398 C
HETATM   39  O7  UNL     1      14.842  81.888   0.729  1.00  0.00    -0.276 OA
ENDBRANCH  37  38
ENDBRANCH  17  37
TORSDOF 9
ENDMDL