MODEL 3
REMARK VINA RESULT: -7.551846646      2.300      5.042
REMARK  7 active torsions:
REMARK  status: ('A' for Active; 'I' for Inactive)
REMARK    1  A    between atoms: O1_2  and  C2_3
REMARK    2  A    between atoms: C4_5  and  O2_6
REMARK    3  A    between atoms: C8_10  and  O3_11
REMARK    4  A    between atoms: C11_15  and  C12_16
REMARK    5  A    between atoms: C14_21  and  O6_22
REMARK    6  A    between atoms: C18_27  and  O7_28
REMARK    7  A    between atoms: O7_28  and  C19_29
REMARK       I    between atoms: C19_29  and  N3_31
REMARK       I    between atoms: N3_31  and  C20_33
ROOT
HETATM    1  C2  UNL     1      14.286  73.304  -1.876  1.00  0.00     0.107 A
HETATM    2  C3  UNL     1      15.305  74.197  -1.979  1.00  0.00     0.077 A
HETATM    3  C4  UNL     1      15.189  75.226  -2.902  1.00  0.00     0.083 A
HETATM    4  C6  UNL     1      14.069  75.369  -3.717  1.00  0.00     0.046 A
HETATM    5  C7  UNL     1      13.040  74.470  -3.624  1.00  0.00     0.124 A
HETATM    6  C8  UNL     1      13.176  73.442  -2.687  1.00  0.00     0.136 A
HETATM    7  O4  UNL     1      11.922  74.541  -4.403  1.00  0.00    -0.305 OA
HETATM    8  C10 UNL     1      11.762  75.518  -5.339  1.00  0.00     0.103 A
HETATM    9  C11 UNL     1      10.599  75.489  -6.092  1.00  0.00     0.090 A
HETATM   10  C13 UNL     1      10.414  76.450  -7.059  1.00  0.00     0.098 A
HETATM   11  N2  UNL     1       9.219  76.420  -7.832  1.00  0.00    -0.098 NA
HETATM   12  C14 UNL     1      11.391  77.401  -7.242  1.00  0.00     0.097 A
HETATM   13  C15 UNL     1      12.564  77.422  -6.475  1.00  0.00    -0.015 A
HETATM   14  C16 UNL     1      13.505  78.488  -6.831  1.00  0.00     0.052 C
HETATM   15  C17 UNL     1      12.758  76.467  -5.500  1.00  0.00     0.020 A
HETATM   16  C18 UNL     1      13.967  76.561  -4.631  1.00  0.00     0.209 C
ENDROOT
BRANCH  16  17
HETATM   17  O7  UNL     1      13.637  77.615  -3.715  1.00  0.00    -0.288 OA
BRANCH  17  18
HETATM   18  C19 UNL     1      14.377  78.673  -3.345  1.00  0.00     0.369 C
HETATM   19  O8  UNL     1      14.972  79.409  -4.159  1.00  0.00    -0.238 OA
HETATM   20  N3  UNL     1      14.543  79.042  -1.955  1.00  0.00    -0.257 N
HETATM   21  C20 UNL     1      13.898  78.255  -0.960  1.00  0.00     0.337 C
ATOM     22  H3  UNL     1      15.109  79.850  -1.695  1.00  0.00     0.175 HD
HETATM   23  N4  UNL     1      14.030  78.578   0.419  1.00  0.00    -0.040 NA
HETATM   24  O9  UNL     1      13.188  77.243  -1.286  1.00  0.00    -0.251 OA
ENDBRANCH  17  18
ENDBRANCH  16  17
BRANCH   3  25
HETATM   25  O2  UNL     1      16.251  76.103  -2.971  1.00  0.00    -0.355 OA
HETATM   26  C5  UNL     1      17.081  76.405  -1.887  1.00  0.00     0.210 C
ENDBRANCH   3  25
BRANCH   6  27
HETATM   27  O3  UNL     1      12.150  72.522  -2.568  1.00  0.00    -0.351 OA
HETATM   28  C9  UNL     1      11.826  71.659  -3.654  1.00  0.00     0.210 C
ENDBRANCH   6  27
BRANCH   9  29
HETATM   29  C12 UNL     1       9.570  74.490  -5.884  1.00  0.00     0.269 C
HETATM   30  N1  UNL     1       8.839  74.337  -4.687  1.00  0.00    -0.057 NA
HETATM   31  O5  UNL     1       9.294  73.697  -6.816  1.00  0.00    -0.271 OA
ENDBRANCH   9  29
BRANCH  12  32
HETATM   32  O6  UNL     1      11.188  78.375  -8.237  1.00  0.00    -0.358 OA
ATOM     33  H6  UNL     1      11.151  78.089  -9.142  1.00  0.00     0.217 HD
ENDBRANCH  12  32
BRANCH   1  34
HETATM   34  O1  UNL     1      14.372  72.260  -0.955  1.00  0.00    -0.353 OA
HETATM   35  C1  UNL     1      13.992  72.429   0.389  1.00  0.00     0.210 C
ENDBRANCH   1  34
TORSDOF 7
ENDMDL