MODEL 4
REMARK VINA RESULT: -6.487787075      1.313      2.244
REMARK  8 active torsions:
REMARK  status: ('A' for Active; 'I' for Inactive)
REMARK    1  A    between atoms: C13_17  and  S1_18
REMARK    2  A    between atoms: C15_23  and  C16_24
REMARK    3  A    between atoms: C16_24  and  C17_25
REMARK    4  A    between atoms: C17_25  and  O8_26
REMARK    5  A    between atoms: C17_25  and  C18_28
REMARK    6  A    between atoms: C18_28  and  C19_32
REMARK    7  A    between atoms: C19_32  and  O9_33
REMARK    8  A    between atoms: N2_35  and  O10_37
ROOT
HETATM    1  C1  UNL     1      11.907  77.004  -3.896  1.00  0.00     0.043 C
HETATM    2  C2  UNL     1      12.955  76.538  -2.918  1.00  0.00    -0.080 C
HETATM    3  C3  UNL     1      12.748  75.684  -1.970  1.00  0.00     0.009 C
HETATM    4  C4  UNL     1      14.004  75.473  -1.220  1.00  0.00     0.163 C
HETATM    5  O1  UNL     1      13.967  75.922   0.048  1.00  0.00    -0.346 OA
HETATM    6  C5  UNL     1      14.176  77.220   0.355  1.00  0.00     0.158 C
HETATM    7  C6  UNL     1      12.888  78.062   0.329  1.00  0.00     0.078 C
HETATM    8  C7  UNL     1      14.603  77.276   1.836  1.00  0.00     0.078 C
HETATM    9  O2  UNL     1      15.161  77.707  -0.458  1.00  0.00    -0.347 OA
HETATM   10  C8  UNL     1      15.966  76.792  -1.107  1.00  0.00     0.164 C
HETATM   11  C9  UNL     1      16.889  76.003  -0.280  1.00  0.00     0.204 C
HETATM   12  O3  UNL     1      17.135  74.701  -0.691  1.00  0.00    -0.353 OA
HETATM   13  C10 UNL     1      17.945  74.650  -1.800  1.00  0.00     0.158 C
HETATM   14  C11 UNL     1      18.635  73.297  -1.823  1.00  0.00     0.078 C
HETATM   15  C12 UNL     1      19.103  75.667  -1.736  1.00  0.00     0.078 C
HETATM   16  O4  UNL     1      17.230  74.979  -2.870  1.00  0.00    -0.332 OA
HETATM   17  C13 UNL     1      15.866  74.968  -2.859  1.00  0.00     0.283 C
HETATM   18  C14 UNL     1      15.124  75.982  -2.112  1.00  0.00     0.068 C
HETATM   19  C15 UNL     1      14.391  77.028  -2.913  1.00  0.00     0.034 C
ENDROOT
BRANCH  19  20
HETATM   20  C16 UNL     1      14.705  77.277  -4.316  1.00  0.00     0.048 C
BRANCH  20  21
HETATM   21  C17 UNL     1      15.350  78.537  -4.749  1.00  0.00     0.172 C
BRANCH  21  22
HETATM   22  O8  UNL     1      15.342  78.462  -6.181  1.00  0.00    -0.389 OA
ATOM     23  H8  UNL     1      15.084  79.333  -6.459  1.00  0.00     0.210 HD
ENDBRANCH  21  22
BRANCH  21  24
HETATM   24  C18 UNL     1      14.504  79.759  -4.486  1.00  0.00     0.085 C
HETATM   25  N1  UNL     1      13.517  80.101  -5.234  1.00  0.00    -0.397 N
ATOM     26  H12 UNL     1      13.315  79.496  -6.030  1.00  0.00     0.156 HD
ATOM     27  H11 UNL     1      12.946  80.927  -5.056  1.00  0.00     0.156 HD
BRANCH  24  28
HETATM   28  C19 UNL     1      14.793  80.624  -3.349  1.00  0.00     0.185 C
HETATM   29  N2  UNL     1      14.300  81.798  -3.250  1.00  0.00    -0.246 N
ATOM     30  H2  UNL     1      13.683  82.165  -3.975  1.00  0.00     0.196 HD
BRANCH  28  31
HETATM   31  O9  UNL     1      15.639  80.124  -2.349  1.00  0.00    -0.343 OA
ATOM     32  H9  UNL     1      16.341  80.686  -2.044  1.00  0.00     0.219 HD
ENDBRANCH  28  31
BRANCH  29  33
HETATM   33  O10 UNL     1      14.615  82.557  -2.151  1.00  0.00    -0.288 OA
ATOM     34  H10 UNL     1      13.910  82.886  -1.606  1.00  0.00     0.244 HD
ENDBRANCH  29  33
ENDBRANCH  24  28
ENDBRANCH  21  24
ENDBRANCH  20  21
ENDBRANCH  19  20
BRANCH  17  35
HETATM   35  S1  UNL     1      15.237  73.321  -2.939  1.00  0.00     0.132 S
HETATM   36  O5  UNL     1      13.903  73.236  -3.644  1.00  0.00    -0.593 OA
HETATM   37  O6  UNL     1      16.175  72.573  -3.897  1.00  0.00    -0.593 OA
HETATM   38  O7  UNL     1      15.213  72.450  -1.556  1.00  0.00    -0.593 OA
ENDBRANCH  17  35
TORSDOF 8
ENDMDL