MODEL 4
REMARK VINA RESULT: -8.363924988      2.660      4.487
REMARK  8 active torsions:
REMARK  status: ('A' for Active; 'I' for Inactive)
REMARK    1  A    between atoms: N1_4  and  N2_6
REMARK    2  A    between atoms: N2_6  and  C4_8
REMARK    3  A    between atoms: C5_11  and  N4_12
REMARK    4  A    between atoms: C10_20  and  N6_21
REMARK    5  A    between atoms: N6_21  and  C11_23
REMARK    6  A    between atoms: C12_24  and  N7_25
REMARK    7  A    between atoms: N7_25  and  C13_27
REMARK    8  A    between atoms: C17_31  and  N8_32
ROOT
HETATM    1  C11 UNL     1      12.832  78.835  -6.016  1.00  0.00     0.128 A
HETATM    2  C12 UNL     1      12.984  78.540  -7.351  1.00  0.00     0.175 A
HETATM    3  O2  UNL     1      13.836  79.406  -7.880  1.00  0.00    -0.279 OA
HETATM    4  C19 UNL     1      14.257  80.249  -6.988  1.00  0.00     0.184 A
HETATM    5  C20 UNL     1      15.192  81.347  -7.152  1.00  0.00     0.127 C
HETATM    6  N9  UNL     1      15.935  82.234  -7.267  1.00  0.00    -0.189 NA
HETATM    7  C21 UNL     1      13.657  79.941  -5.787  1.00  0.00     0.122 A
HETATM    8  N10 UNL     1      13.851  80.627  -4.556  1.00  0.00    -0.096 NA
ENDROOT
BRANCH   2   9
HETATM    9  N7  UNL     1      12.327  77.475  -8.053  1.00  0.00    -0.364 N
ATOM     10  H7  UNL     1      12.860  76.908  -8.712  1.00  0.00     0.162 HD
BRANCH   9  11
HETATM   11  C13 UNL     1      10.920  77.186  -7.844  1.00  0.00     0.085 C
HETATM   12  C14 UNL     1      10.743  75.803  -7.284  1.00  0.00     0.025 C
HETATM   13  C15 UNL     1       9.350  75.308  -7.267  1.00  0.00     0.004 C
HETATM   14  C16 UNL     1       8.374  76.341  -7.789  1.00  0.00     0.033 C
HETATM   15  C17 UNL     1       8.867  76.664  -9.206  1.00  0.00     0.185 C
HETATM   16  C18 UNL     1      10.103  77.478  -9.048  1.00  0.00     0.057 C
BRANCH  15  17
HETATM   17  N8  UNL     1       7.855  77.418  -9.873  1.00  0.00    -0.075 N
ATOM     18  H83 UNL     1       7.570  76.996 -10.757  1.00  0.00     0.274 HD
ATOM     19  H82 UNL     1       6.954  77.370  -9.399  1.00  0.00     0.274 HD
ATOM     20  H81 UNL     1       8.189  78.376  -9.985  1.00  0.00     0.274 HD
ENDBRANCH  15  17
ENDBRANCH   9  11
ENDBRANCH   2   9
BRANCH   1  21
HETATM   21  N6  UNL     1      12.036  78.207  -5.042  1.00  0.00    -0.184 N
ATOM     22  H6  UNL     1      11.023  78.320  -5.084  1.00  0.00     0.184 HD
BRANCH  21  23
HETATM   23  C10 UNL     1      12.550  77.484  -4.088  1.00  0.00     0.712 A
HETATM   24  N5  UNL     1      12.378  76.160  -3.990  1.00  0.00    -0.021 N
HETATM   25  C5  UNL     1      12.943  75.447  -2.996  1.00  0.00     0.709 A
ATOM     26  H5  UNL     1      11.805  75.679  -4.684  1.00  0.00     0.203 HD
HETATM   27  N3  UNL     1      13.698  76.071  -2.078  1.00  0.00    -0.020 N
HETATM   28  C4  UNL     1      13.895  77.385  -2.141  1.00  0.00     0.726 A
ATOM     29  H3  UNL     1      14.125  75.532  -1.324  1.00  0.00     0.203 HD
HETATM   30  N11 UNL     1      13.307  78.083  -3.161  1.00  0.00    -0.020 N
ATOM     31  H11 UNL     1      13.451  79.091  -3.216  1.00  0.00     0.203 HD
BRANCH  25  32
HETATM   32  N4  UNL     1      12.769  74.043  -2.888  1.00  0.00    -0.213 N
HETATM   33  C6  UNL     1      12.307  73.289  -4.013  1.00  0.00     0.167 C
HETATM   34  C7  UNL     1      12.033  71.844  -3.643  1.00  0.00     0.188 C
HETATM   35  O1  UNL     1      11.623  71.735  -2.313  1.00  0.00    -0.388 OA
HETATM   36  C8  UNL     1      12.709  71.997  -1.502  1.00  0.00     0.188 C
HETATM   37  C9  UNL     1      13.085  73.444  -1.599  1.00  0.00     0.167 C
ENDBRANCH  25  32
BRANCH  28  38
HETATM   38  N2  UNL     1      14.614  78.061  -1.327  1.00  0.00    -0.131 N
ATOM     39  H2  UNL     1      15.591  78.177  -1.594  1.00  0.00     0.205 HD
BRANCH  38  40
HETATM   40  N1  UNL     1      14.251  78.650  -0.145  1.00  0.00    -0.295 N
HETATM   41  C2  UNL     1      14.337  79.916   0.029  1.00  0.00    -0.004 C
HETATM   42  C1  UNL     1      14.830  80.801  -1.040  1.00  0.00     0.064 C
HETATM   43  C3  UNL     1      13.931  80.494   1.330  1.00  0.00     0.064 C
ATOM     44  H1  UNL     1      13.904  78.065   0.616  1.00  0.00     0.186 HD
ENDBRANCH  38  40
ENDBRANCH  28  38
ENDBRANCH  21  23
ENDBRANCH   1  21
TORSDOF 8
ENDMDL