MODEL 2
REMARK VINA RESULT: -7.762970695      4.026      8.855
REMARK  10 active torsions:
REMARK  status: ('A' for Active; 'I' for Inactive)
REMARK       I    between atoms: N1_2  and  C2_3
REMARK       I    between atoms: C2_3  and  N2_4
REMARK       I    between atoms: C2_3  and  N3_7
REMARK       I    between atoms: N3_7  and  C4_8
REMARK    1  A    between atoms: C4_8  and  O2_10
REMARK    2  A    between atoms: O2_10  and  C5_11
REMARK    3  A    between atoms: C6_12  and  O3_13
REMARK    4  A    between atoms: O3_13  and  C7_14
REMARK    5  A    between atoms: C9_16  and  O4_17
REMARK    6  A    between atoms: C10_19  and  O5_20
REMARK    7  A    between atoms: C11_22  and  O6_23
REMARK    8  A    between atoms: C13_25  and  O7_26
REMARK    9  A    between atoms: C16_30  and  C17_31
REMARK   10  A    between atoms: C17_31  and  O9_33
ROOT
HETATM    1  C7  UNL     1      14.387  78.126  -4.358  1.00  0.00     0.075 C
HETATM    2  C8  UNL     1      14.637  78.890  -3.335  1.00  0.00     0.043 A
HETATM    3  C9  UNL     1      15.245  78.428  -2.175  1.00  0.00     0.115 A
HETATM    4  C10 UNL     1      15.571  79.281  -1.126  1.00  0.00     0.136 A
HETATM    5  C11 UNL     1      15.323  80.624  -1.157  1.00  0.00     0.138 A
HETATM    6  C13 UNL     1      14.733  81.093  -2.320  1.00  0.00     0.113 A
HETATM    7  C14 UNL     1      14.409  80.273  -3.378  1.00  0.00     0.013 A
HETATM    8  C15 UNL     1      13.990  80.843  -4.479  1.00  0.00     0.004 C
HETATM    9  C16 UNL     1      13.761  80.116  -5.777  1.00  0.00     0.123 C
HETATM   10  C19 UNL     1      13.683  78.659  -5.577  1.00  0.00     0.019 C
HETATM   11  C20 UNL     1      14.000  77.850  -6.811  1.00  0.00     0.023 C
HETATM   12  C21 UNL     1      12.172  78.392  -5.311  1.00  0.00     0.023 C
ENDROOT
BRANCH   1  13
HETATM   13  O3  UNL     1      14.704  76.769  -4.416  1.00  0.00    -0.323 OA
BRANCH  13  14
HETATM   14  C6  UNL     1      13.972  75.734  -3.920  1.00  0.00     0.167 C
HETATM   15  C5  UNL     1      13.871  74.466  -3.816  1.00  0.00     0.173 C
BRANCH  15  16
HETATM   16  O2  UNL     1      12.822  73.831  -3.139  1.00  0.00    -0.260 OA
BRANCH  16  17
HETATM   17  C4  UNL     1      11.933  72.905  -3.636  1.00  0.00     0.448 C
HETATM   18  N3  UNL     1      10.675  73.263  -4.145  1.00  0.00    -0.296 NA
HETATM   19  C2  UNL     1       9.511  73.587  -4.616  1.00  0.00     0.338 C
HETATM   20  N1  UNL     1       8.496  73.871  -5.027  1.00  0.00    -0.384 NA
HETATM   21  N2  UNL     1      10.030  75.275  -4.942  1.00  0.00    -0.324 N
HETATM   22  C1  UNL     1       7.236  73.963  -5.460  1.00  0.00     0.234 C
HETATM   23  C3  UNL     1      10.683  75.260  -6.142  1.00  0.00     0.123 C
ATOM     24  H2  UNL     1       9.869  76.087  -4.347  1.00  0.00     0.169 HD
HETATM   25  O1  UNL     1      12.214  71.683  -3.621  1.00  0.00    -0.220 OA
ENDBRANCH  16  17
ENDBRANCH  15  16
ENDBRANCH  13  14
ENDBRANCH   1  13
BRANCH   3  26
HETATM   26  O4  UNL     1      15.561  77.099  -2.013  1.00  0.00    -0.357 OA
ATOM     27  H4  UNL     1      16.350  76.831  -1.556  1.00  0.00     0.217 HD
ENDBRANCH   3  26
BRANCH   9  28
HETATM   28  C17 UNL     1      15.041  80.486  -6.517  1.00  0.00     0.267 C
HETATM   29  O8  UNL     1      15.300  80.251  -7.687  1.00  0.00    -0.265 OA
BRANCH  28  30
HETATM   30  O9  UNL     1      15.995  81.152  -5.768  1.00  0.00    -0.326 OA
HETATM   31  C18 UNL     1      16.331  82.501  -6.107  1.00  0.00     0.213 C
ENDBRANCH  28  30
ENDBRANCH   9  28
BRANCH   4  32
HETATM   32  O5  UNL     1      16.174  78.743   0.011  1.00  0.00    -0.356 OA
ATOM     33  H5  UNL     1      15.752  78.867   0.853  1.00  0.00     0.218 HD
ENDBRANCH   4  32
BRANCH   6  34
HETATM   34  O7  UNL     1      14.475  82.449  -2.387  1.00  0.00    -0.357 OA
ATOM     35  H7  UNL     1      15.149  82.995  -2.773  1.00  0.00     0.217 HD
ENDBRANCH   6  34
BRANCH   5  36
HETATM   36  O6  UNL     1      15.614  81.482  -0.143  1.00  0.00    -0.351 OA
HETATM   37  C12 UNL     1      14.821  81.731   1.005  1.00  0.00     0.210 C
ENDBRANCH   5  36
TORSDOF 10
ENDMDL