MODEL 5
REMARK VINA RESULT: -8.672100654      1.652      1.883
REMARK  8 active torsions:
REMARK  status: ('A' for Active; 'I' for Inactive)
REMARK    1  A    between atoms: O1_2  and  C2_3
REMARK    2  A    between atoms: C7_9  and  O3_10
REMARK    3  A    between atoms: C8_12  and  O4_13
REMARK    4  A    between atoms: C10_15  and  O5_16
REMARK    5  A    between atoms: C11_18  and  N1_19
REMARK    6  A    between atoms: N1_19  and  N2_21
REMARK    7  A    between atoms: C18_33  and  O9_34
REMARK    8  A    between atoms: C19_36  and  O10_37
ROOT
HETATM    1  C2  UNL     1       8.907  75.282  -7.666  1.00  0.00     0.105 A
HETATM    2  C3  UNL     1       9.879  76.246  -7.899  1.00  0.00     0.058 A
HETATM    3  C4  UNL     1      10.898  76.478  -7.007  1.00  0.00     0.055 A
HETATM    4  C5  UNL     1      11.832  77.442  -7.279  1.00  0.00     0.201 A
HETATM    5  O2  UNL     1      11.732  78.085  -8.336  1.00  0.00    -0.286 OA
HETATM    6  C6  UNL     1      12.850  77.659  -6.369  1.00  0.00     0.087 A
HETATM    7  C7  UNL     1      13.815  78.617  -6.585  1.00  0.00     0.119 A
HETATM    8  C8  UNL     1      14.827  78.804  -5.621  1.00  0.00     0.138 A
HETATM    9  C10 UNL     1      14.808  78.014  -4.500  1.00  0.00     0.133 A
HETATM   10  C11 UNL     1      13.891  77.057  -4.232  1.00  0.00     0.119 A
HETATM   11  C16 UNL     1      12.894  76.903  -5.219  1.00  0.00     0.124 A
HETATM   12  O8  UNL     1      11.966  75.990  -5.009  1.00  0.00    -0.303 OA
HETATM   13  C17 UNL     1      10.986  75.749  -5.842  1.00  0.00     0.126 A
HETATM   14  C18 UNL     1      10.026  74.787  -5.595  1.00  0.00     0.137 A
HETATM   15  C19 UNL     1       8.989  74.556  -6.509  1.00  0.00     0.137 A
ENDROOT
BRANCH  10  16
HETATM   16  N1  UNL     1      13.845  76.223  -3.110  1.00  0.00    -0.289 N
ATOM     17  H1  UNL     1      13.109  76.454  -2.443  1.00  0.00     0.187 HD
BRANCH  16  18
HETATM   18  N2  UNL     1      14.623  75.146  -2.750  1.00  0.00    -0.241 N
HETATM   19  C12 UNL     1      15.753  75.189  -1.844  1.00  0.00     0.163 C
HETATM   20  C13 UNL     1      17.034  74.694  -2.495  1.00  0.00     0.125 C
HETATM   21  C14 UNL     1      16.775  73.493  -3.323  1.00  0.00     0.227 C
HETATM   22  O6  UNL     1      17.807  72.891  -3.788  1.00  0.00    -0.273 OA
HETATM   23  N3  UNL     1      15.478  72.981  -3.624  1.00  0.00    -0.278 N
HETATM   24  C15 UNL     1      14.354  73.842  -3.327  1.00  0.00     0.343 C
ATOM     25  H3  UNL     1      15.350  72.053  -4.029  1.00  0.00     0.173 HD
HETATM   26  O7  UNL     1      13.178  73.519  -3.542  1.00  0.00    -0.245 OA
ENDBRANCH  16  18
ENDBRANCH  10  16
BRANCH   9  27
HETATM   27  O5  UNL     1      15.829  78.219  -3.548  1.00  0.00    -0.356 OA
ATOM     28  H5  UNL     1      16.725  78.088  -3.835  1.00  0.00     0.218 HD
ENDBRANCH   9  27
BRANCH   8  29
HETATM   29  O4  UNL     1      15.820  79.733  -5.759  1.00  0.00    -0.351 OA
HETATM   30  C9  UNL     1      15.790  81.085  -5.433  1.00  0.00     0.210 C
ENDBRANCH   8  29
BRANCH   7  31
HETATM   31  O3  UNL     1      13.866  79.403  -7.666  1.00  0.00    -0.357 OA
ATOM     32  H3  UNL     1      13.902  80.352  -7.636  1.00  0.00     0.218 HD
ENDBRANCH   7  31
BRANCH  14  33
HETATM   33  O9  UNL     1      10.066  74.035  -4.448  1.00  0.00    -0.356 OA
ATOM     34  H9  UNL     1      10.848  74.015  -3.908  1.00  0.00     0.218 HD
ENDBRANCH  14  33
BRANCH  15  35
HETATM   35  O10 UNL     1       8.029  73.572  -6.225  1.00  0.00    -0.351 OA
HETATM   36  C20 UNL     1       6.865  73.887  -5.473  1.00  0.00     0.210 C
ENDBRANCH  15  35
BRANCH   1  37
HETATM   37  O1  UNL     1       7.883  75.062  -8.583  1.00  0.00    -0.353 OA
HETATM   38  C1  UNL     1       6.783  75.918  -8.660  1.00  0.00     0.210 C
ENDBRANCH   1  37
TORSDOF 8
ENDMDL