MODEL 2
REMARK VINA RESULT: -8.887622829      3.053      6.701
REMARK  7 active torsions:
REMARK  status: ('A' for Active; 'I' for Inactive)
REMARK    1  A    between atoms: C3_3  and  N1_4
REMARK    2  A    between atoms: N1_4  and  C4_6
REMARK    3  A    between atoms: C5_9  and  N3_10
REMARK    4  A    between atoms: N3_10  and  C6_12
REMARK    5  A    between atoms: C9_16  and  C10_17
REMARK    6  A    between atoms: C17_35  and  N9_36
REMARK    7  A    between atoms: N9_36  and  O3_38
ROOT
HETATM    1  C4  UNL     1      12.949  77.274  -5.080  1.00  0.00     0.138 A
HETATM    2  N2  UNL     1      12.116  77.001  -6.085  1.00  0.00    -0.176 N
ATOM      3  H2  UNL     1      11.488  76.206  -5.966  1.00  0.00     0.186 HD
HETATM    4  C5  UNL     1      12.032  77.677  -7.236  1.00  0.00     0.681 A
HETATM    5  N5  UNL     1      12.853  78.728  -7.409  1.00  0.00    -0.189 N
ATOM      6  H5  UNL     1      12.818  79.268  -8.274  1.00  0.00     0.184 HD
HETATM    7  C11 UNL     1      13.731  79.067  -6.431  1.00  0.00     0.089 A
HETATM    8  C12 UNL     1      14.588  80.140  -6.578  1.00  0.00     0.088 A
HETATM    9  C13 UNL     1      14.584  80.929  -7.761  1.00  0.00     0.103 C
HETATM   10  N6  UNL     1      14.585  81.589  -8.713  1.00  0.00    -0.191 NA
HETATM   11  C14 UNL     1      15.481  80.477  -5.567  1.00  0.00     0.114 A
HETATM   12  N7  UNL     1      15.520  79.763  -4.437  1.00  0.00    -0.350 N
ATOM     13  H7  UNL     1      16.178  80.016  -3.700  1.00  0.00     0.166 HD
HETATM   14  C15 UNL     1      14.704  78.720  -4.266  1.00  0.00     0.115 A
HETATM   15  N8  UNL     1      14.785  78.065  -3.151  1.00  0.00    -0.385 N
ATOM     16  H81 UNL     1      14.161  77.269  -3.021  1.00  0.00     0.157 HD
ATOM     17  H82 UNL     1      15.449  78.334  -2.426  1.00  0.00     0.157 HD
HETATM   18  C16 UNL     1      13.799  78.354  -5.252  1.00  0.00     0.081 A
ENDROOT
BRANCH   4  19
HETATM   19  N3  UNL     1      11.112  77.314  -8.252  1.00  0.00    -0.212 N
ATOM     20  H3  UNL     1      11.497  77.175  -9.187  1.00  0.00     0.179 HD
BRANCH  19  21
HETATM   21  C6  UNL     1       9.719  77.124  -8.106  1.00  0.00     0.169 C
HETATM   22  C7  UNL     1       8.884  77.476  -9.320  1.00  0.00     0.116 C
HETATM   23  C8  UNL     1       7.548  76.925  -8.957  1.00  0.00     0.152 C
HETATM   24  O1  UNL     1       6.543  77.595  -8.841  1.00  0.00    -0.296 OA
HETATM   25  C9  UNL     1       7.620  75.453  -8.761  1.00  0.00     0.207 C
HETATM   26  S1  UNL     1       9.280  75.339  -7.971  1.00  0.00    -0.121 SA
BRANCH  25  27
HETATM   27  C10 UNL     1       6.618  74.982  -7.771  1.00  0.00     0.252 C
HETATM   28  N4  UNL     1       7.040  74.657  -6.455  1.00  0.00    -0.061 NA
HETATM   29  O2  UNL     1       5.393  74.853  -8.040  1.00  0.00    -0.275 OA
ENDBRANCH  25  27
ENDBRANCH  19  21
ENDBRANCH   4  19
BRANCH   1  30
HETATM   30  N1  UNL     1      13.019  76.622  -3.992  1.00  0.00    -0.338 N
ATOM     31  H1  UNL     1      13.104  77.170  -3.135  1.00  0.00     0.167 HD
BRANCH  30  32
HETATM   32  C3  UNL     1      12.993  75.229  -3.843  1.00  0.00     0.086 A
HETATM   33  C2  UNL     1      11.940  74.333  -3.897  1.00  0.00     0.036 A
HETATM   34  C1  UNL     1      10.536  74.765  -4.145  1.00  0.00     0.071 C
HETATM   35  N10 UNL     1      12.416  73.082  -3.693  1.00  0.00    -0.360 N
HETATM   36  C18 UNL     1      13.752  73.121  -3.505  1.00  0.00     0.124 A
HETATM   37  C19 UNL     1      11.616  71.883  -3.678  1.00  0.00     0.155 C
HETATM   38  C17 UNL     1      14.108  74.452  -3.599  1.00  0.00     0.098 A
BRANCH  38  39
HETATM   39  N9  UNL     1      15.455  74.905  -3.454  1.00  0.00    -0.266 N
ATOM     40  H9  UNL     1      16.161  74.737  -4.171  1.00  0.00     0.194 HD
BRANCH  39  41
HETATM   41  O3  UNL     1      15.718  75.523  -2.392  1.00  0.00    -0.289 OA
ATOM     42  H3  UNL     1      16.400  75.147  -1.848  1.00  0.00     0.244 HD
ENDBRANCH  39  41
ENDBRANCH  38  39
ENDBRANCH  30  32
ENDBRANCH   1  30
TORSDOF 7
ENDMDL