MODEL 5
REMARK VINA RESULT: -7.440808820      3.614      7.493
REMARK  8 active torsions:
REMARK  status: ('A' for Active; 'I' for Inactive)
REMARK    1  A    between atoms: C3_4  and  O2_5
REMARK    2  A    between atoms: C4_7  and  S1_8
REMARK    3  A    between atoms: S1_8  and  N1_11
REMARK    4  A    between atoms: C7_14  and  N2_15
REMARK    5  A    between atoms: N2_15  and  C8_17
REMARK    6  A    between atoms: C9_18  and  O5_19
REMARK    7  A    between atoms: C14_26  and  S2_27
REMARK    8  A    between atoms: S2_27  and  N4_28
ROOT
HETATM    1  C8  UNL     1      12.532  76.010  -4.353  1.00  0.00     0.084 A
HETATM    2  C9  UNL     1      13.697  75.419  -3.905  1.00  0.00     0.095 A
HETATM    3  C10 UNL     1      13.598  74.074  -3.613  1.00  0.00     0.066 A
HETATM    4  C11 UNL     1      12.450  73.327  -3.740  1.00  0.00     0.060 A
HETATM    5  N3  UNL     1      12.499  71.935  -3.398  1.00  0.00    -0.101 NA
HETATM    6  C12 UNL     1      11.266  73.936  -4.197  1.00  0.00     0.010 A
HETATM    7  C13 UNL     1      10.067  73.347  -4.375  1.00  0.00     0.047 A
HETATM    8  C14 UNL     1       9.039  74.127  -4.832  1.00  0.00     0.121 A
HETATM    9  S3  UNL     1       9.772  75.657  -5.001  1.00  0.00    -0.073 SA
HETATM   10  C15 UNL     1      11.354  75.264  -4.488  1.00  0.00     0.048 A
ENDROOT
BRANCH   1  11
HETATM   11  N2  UNL     1      12.477  77.367  -4.693  1.00  0.00    -0.349 N
ATOM     12  H2  UNL     1      11.929  77.980  -4.090  1.00  0.00     0.166 HD
BRANCH  11  13
HETATM   13  C7  UNL     1      13.130  77.960  -5.814  1.00  0.00     0.090 A
HETATM   14  C2  UNL     1      12.797  77.761  -7.152  1.00  0.00     0.080 A
HETATM   15  C1  UNL     1      11.679  76.866  -7.596  1.00  0.00     0.079 C
HETATM   16  O1  UNL     1      13.614  78.474  -7.869  1.00  0.00    -0.289 OA
HETATM   17  C3  UNL     1      14.459  79.129  -7.141  1.00  0.00     0.209 A
HETATM   18  C4  UNL     1      14.190  78.834  -5.807  1.00  0.00     0.161 A
BRANCH  17  19
HETATM   19  O2  UNL     1      15.489  79.997  -7.530  1.00  0.00    -0.339 OA
ATOM     20  H2  UNL     1      15.811  80.783  -7.105  1.00  0.00     0.220 HD
ENDBRANCH  17  19
BRANCH  18  21
HETATM   21  S1  UNL     1      15.026  79.452  -4.402  1.00  0.00     0.250 S
HETATM   22  O3  UNL     1      14.599  78.787  -3.128  1.00  0.00    -0.205 OA
HETATM   23  O4  UNL     1      16.507  79.308  -4.523  1.00  0.00    -0.205 OA
BRANCH  21  24
HETATM   24  N1  UNL     1      14.687  81.145  -4.200  1.00  0.00    -0.215 NA
HETATM   25  C5  UNL     1      14.527  81.480  -2.805  1.00  0.00     0.129 C
HETATM   26  C6  UNL     1      15.818  81.893  -4.718  1.00  0.00     0.129 C
ENDBRANCH  21  24
ENDBRANCH  18  21
ENDBRANCH  11  13
ENDBRANCH   1  11
BRANCH   2  27
HETATM   27  O5  UNL     1      14.875  76.120  -3.760  1.00  0.00    -0.358 OA
ATOM     28  H5  UNL     1      15.599  76.032  -4.367  1.00  0.00     0.217 HD
ENDBRANCH   2  27
BRANCH   8  29
HETATM   29  S2  UNL     1       7.369  73.667  -5.164  1.00  0.00     0.263 S
HETATM   30  O6  UNL     1       6.507  74.888  -5.042  1.00  0.00    -0.200 OA
HETATM   31  O7  UNL     1       7.279  73.161  -6.554  1.00  0.00    -0.200 OA
BRANCH  29  32
HETATM   32  N4  UNL     1       6.892  72.461  -4.070  1.00  0.00    -0.324 N
ATOM     33  H42 UNL     1       6.063  71.875  -4.179  1.00  0.00     0.169 HD
ATOM     34  H41 UNL     1       7.559  72.421  -3.300  1.00  0.00     0.169 HD
ENDBRANCH  29  32
ENDBRANCH   8  29
TORSDOF 8
ENDMDL