MODEL 3
REMARK VINA RESULT: -7.547225557      2.283      3.571
REMARK  9 active torsions:
REMARK  status: ('A' for Active; 'I' for Inactive)
REMARK    1  A    between atoms: O1_2  and  C2_3
REMARK    2  A    between atoms: C3_4  and  O2_5
REMARK    3  A    between atoms: C5_7  and  O3_8
REMARK    4  A    between atoms: C8_11  and  O4_12
REMARK    5  A    between atoms: C11_16  and  O5_17
REMARK    6  A    between atoms: C13_20  and  O6_21
REMARK    7  A    between atoms: C17_28  and  O8_29
REMARK    8  A    between atoms: C20_32  and  O9_33
REMARK    9  A    between atoms: O9_33  and  C21_34
ROOT
HETATM    1  C2  UNL     1      11.911  73.285  -3.600  1.00  0.00     0.138 A
HETATM    2  C3  UNL     1      11.189  74.078  -4.427  1.00  0.00     0.139 A
HETATM    3  C5  UNL     1      11.607  75.359  -4.788  1.00  0.00     0.118 A
HETATM    4  C7  UNL     1      12.809  75.819  -4.270  1.00  0.00     0.050 A
HETATM    5  C8  UNL     1      13.251  77.114  -4.597  1.00  0.00     0.093 A
HETATM    6  C9  UNL     1      14.428  77.600  -4.091  1.00  0.00     0.041 A
HETATM    7  C10 UNL     1      15.176  76.790  -3.242  1.00  0.00     0.085 A
HETATM    8  C11 UNL     1      14.766  75.526  -2.906  1.00  0.00     0.107 A
HETATM    9  C12 UNL     1      13.595  75.041  -3.413  1.00  0.00     0.051 A
HETATM   10  C13 UNL     1      13.133  73.777  -3.088  1.00  0.00     0.116 A
HETATM   11  N1  UNL     1      16.310  77.575  -2.817  1.00  0.00    -0.310 N
HETATM   12  C14 UNL     1      17.613  77.581  -2.324  1.00  0.00     0.099 C
HETATM   13  C15 UNL     1      18.141  78.785  -2.353  1.00  0.00     0.073 C
HETATM   14  C16 UNL     1      17.128  79.713  -2.915  1.00  0.00     0.211 C
HETATM   15  O7  UNL     1      17.474  80.914  -3.238  1.00  0.00    -0.287 OA
HETATM   16  C17 UNL     1      15.884  79.002  -2.977  1.00  0.00     0.238 C
HETATM   17  C19 UNL     1      15.198  78.875  -4.293  1.00  0.00     0.043 C
HETATM   18  C20 UNL     1      15.239  79.501  -5.407  1.00  0.00     0.160 C
ENDROOT
BRANCH  16  19
HETATM   19  O8  UNL     1      14.985  79.296  -1.958  1.00  0.00    -0.354 OA
HETATM   20  C18 UNL     1      14.771  80.651  -1.858  1.00  0.00     0.206 C
ENDBRANCH  16  19
BRANCH  18  21
HETATM   21  O9  UNL     1      15.918  80.677  -5.640  1.00  0.00    -0.275 OA
BRANCH  21  22
HETATM   22  C21 UNL     1      15.760  81.402  -6.839  1.00  0.00     0.377 C
HETATM   23  N2  UNL     1      15.064  80.856  -7.949  1.00  0.00    -0.032 NA
HETATM   24  O10 UNL     1      16.246  82.547  -6.913  1.00  0.00    -0.242 OA
ENDBRANCH  21  22
ENDBRANCH  18  21
BRANCH   5  25
HETATM   25  O4  UNL     1      12.477  77.890  -5.424  1.00  0.00    -0.359 OA
ATOM     26  H4  UNL     1      12.627  77.851  -6.361  1.00  0.00     0.217 HD
ENDBRANCH   5  25
BRANCH   8  27
HETATM   27  O5  UNL     1      15.546  74.778  -2.066  1.00  0.00    -0.357 OA
ATOM     28  H5  UNL     1      15.260  74.645  -1.171  1.00  0.00     0.217 HD
ENDBRANCH   8  27
BRANCH   3  29
HETATM   29  O3  UNL     1      10.826  76.123  -5.638  1.00  0.00    -0.352 OA
HETATM   30  C6  UNL     1      10.588  75.836  -7.007  1.00  0.00     0.210 C
ENDBRANCH   3  29
BRANCH   2  31
HETATM   31  O2  UNL     1       9.981  73.596  -4.932  1.00  0.00    -0.351 OA
HETATM   32  C4  UNL     1       8.768  73.958  -4.322  1.00  0.00     0.210 C
ENDBRANCH   2  31
BRANCH  10  33
HETATM   33  O6  UNL     1      13.808  72.949  -2.276  1.00  0.00    -0.357 OA
ATOM     34  H6  UNL     1      13.950  73.259  -1.389  1.00  0.00     0.217 HD
ENDBRANCH  10  33
BRANCH   1  35
HETATM   35  O1  UNL     1      11.493  71.992  -3.234  1.00  0.00    -0.351 OA
HETATM   36  C1  UNL     1      12.055  70.933  -4.006  1.00  0.00     0.210 C
ENDBRANCH   1  35
TORSDOF 9
ENDMDL