MODEL 3
REMARK VINA RESULT: -9.609364292      2.300      3.658
REMARK  7 active torsions:
REMARK  status: ('A' for Active; 'I' for Inactive)
REMARK    1  A    between atoms: O1_2  and  C2_3
REMARK    2  A    between atoms: C2_3  and  C3_5
REMARK    3  A    between atoms: C8_11  and  N1_12
REMARK    4  A    between atoms: N1_12  and  C9_14
REMARK    5  A    between atoms: C9_14  and  O3_15
REMARK    6  A    between atoms: C9_14  and  C10_17
REMARK    7  A    between atoms: C15_24  and  C16_25
ROOT
HETATM    1  C3  UNL     1      16.117  74.060  -2.033  1.00  0.00     0.126 C
HETATM    2  C4  UNL     1      16.628  75.482  -1.960  1.00  0.00     0.024 C
HETATM    3  C5  UNL     1      15.819  76.246  -2.951  1.00  0.00     0.042 C
HETATM    4  C6  UNL     1      14.510  75.459  -3.099  1.00  0.00    -0.021 A
HETATM    5  C7  UNL     1      14.707  74.228  -2.573  1.00  0.00     0.006 A
HETATM    6  S1  UNL     1      13.208  73.465  -2.794  1.00  0.00    -0.074 SA
HETATM    7  C8  UNL     1      12.334  74.763  -3.576  1.00  0.00     0.094 A
HETATM    8  C19 UNL     1      13.278  75.742  -3.620  1.00  0.00     0.085 A
HETATM    9  C20 UNL     1      12.929  77.069  -4.203  1.00  0.00     0.103 C
HETATM   10  N5  UNL     1      12.675  78.142  -4.648  1.00  0.00    -0.191 NA
ENDROOT
BRANCH   7  11
HETATM   11  N1  UNL     1      10.971  74.685  -3.990  1.00  0.00    -0.352 N
ATOM     12  H1  UNL     1      10.352  75.406  -3.619  1.00  0.00     0.163 HD
BRANCH  11  13
HETATM   13  C9  UNL     1      10.363  73.733  -4.853  1.00  0.00     0.272 C
BRANCH  13  14
HETATM   14  O3  UNL     1       9.696  72.804  -4.023  1.00  0.00    -0.371 OA
ATOM     15  H3  UNL     1       9.265  72.184  -4.600  1.00  0.00     0.212 HD
ENDBRANCH  13  14
BRANCH  13  16
HETATM   16  C10 UNL     1       9.304  74.376  -5.702  1.00  0.00     0.087 A
HETATM   17  C11 UNL     1       7.958  74.129  -5.603  1.00  0.00     0.092 A
HETATM   18  N2  UNL     1       7.237  73.266  -4.732  1.00  0.00    -0.099 NA
HETATM   19  C12 UNL     1       7.305  74.906  -6.553  1.00  0.00     0.092 A
HETATM   20  C13 UNL     1       5.983  75.080  -6.919  1.00  0.00     0.191 A
HETATM   21  C17 UNL     1       8.278  75.618  -7.217  1.00  0.00     0.167 A
HETATM   22  O4  UNL     1       5.118  74.416  -6.294  1.00  0.00    -0.287 OA
HETATM   23  C14 UNL     1       5.665  75.955  -7.935  1.00  0.00     0.098 A
HETATM   24  C15 UNL     1       6.705  76.637  -8.557  1.00  0.00     0.146 A
HETATM   25  O6  UNL     1       7.944  76.443  -8.180  1.00  0.00    -0.287 OA
HETATM   26  N4  UNL     1       9.471  75.269  -6.675  1.00  0.00    -0.329 N
HETATM   27  C18 UNL     1      10.723  75.847  -7.151  1.00  0.00     0.158 C
BRANCH  24  28
HETATM   28  C16 UNL     1       6.385  77.569  -9.636  1.00  0.00     0.288 C
HETATM   29  N3  UNL     1       5.207  78.353  -9.621  1.00  0.00    -0.055 NA
HETATM   30  O5  UNL     1       7.189  77.669 -10.602  1.00  0.00    -0.269 OA
ENDBRANCH  24  28
ENDBRANCH  13  16
ENDBRANCH  11  13
ENDBRANCH   7  11
BRANCH   1  31
HETATM   31  C2  UNL     1      16.953  73.297  -2.996  1.00  0.00     0.267 C
HETATM   32  O2  UNL     1      16.537  72.921  -4.122  1.00  0.00    -0.264 OA
BRANCH  31  33
HETATM   33  O1  UNL     1      18.256  72.977  -2.649  1.00  0.00    -0.326 OA
HETATM   34  C1  UNL     1      18.503  72.314  -1.403  1.00  0.00     0.213 C
ENDBRANCH  31  33
ENDBRANCH   1  31
TORSDOF 7
ENDMDL