MODEL 4
REMARK VINA RESULT: -5.208374793      1.114      1.526
REMARK  8 active torsions:
REMARK  status: ('A' for Active; 'I' for Inactive)
REMARK    1  A    between atoms: C2_2  and  N1_3
REMARK    2  A    between atoms: C2_2  and  N2_7
REMARK    3  A    between atoms: C2_2  and  C5_23
REMARK    4  A    between atoms: N2_7  and  C3_9
REMARK    5  A    between atoms: N4_13  and  O2_14
REMARK    6  A    between atoms: C4_16  and  N5_17
REMARK    7  A    between atoms: N5_17  and  N6_18
REMARK    8  A    between atoms: N5_17  and  O3_21
ROOT
HETATM    1  C3  UNL     1      -5.786  14.109  13.385  1.00  0.00     0.173 A
HETATM    2  N3  UNL     1      -6.704  13.999  14.358  1.00  0.00    -0.220 N
ATOM      3  H3  UNL     1      -6.699  13.313  15.113  1.00  0.00     0.198 HD
HETATM    4  O1  UNL     1      -7.591  14.912  14.170  1.00  0.00    -0.125 OA
HETATM    5  N4  UNL     1      -7.322  15.633  13.125  1.00  0.00    -0.083 N
HETATM    6  C4  UNL     1      -6.182  15.161  12.591  1.00  0.00     0.229 A
ENDROOT
BRANCH   1   7
HETATM    7  N2  UNL     1      -4.755  13.401  13.213  1.00  0.00    -0.340 N
ATOM      8  H2  UNL     1      -3.860  13.850  13.409  1.00  0.00     0.163 HD
BRANCH   7   9
HETATM    9  C2  UNL     1      -4.699  12.048  12.776  1.00  0.00     0.197 C
HETATM   10  C1  UNL     1      -3.267  11.741  12.376  1.00  0.00     0.071 C
BRANCH   9  11
HETATM   11  N1  UNL     1      -5.493  11.919  11.566  1.00  0.00    -0.053 N
ATOM     12  H13 UNL     1      -5.422  11.000  11.129  1.00  0.00     0.277 HD
ATOM     13  H12 UNL     1      -6.498  11.896  11.740  1.00  0.00     0.277 HD
ATOM     14  H11 UNL     1      -5.204  12.683  10.955  1.00  0.00     0.277 HD
ENDBRANCH   9  11
BRANCH   9  15
HETATM   15  C5  UNL     1      -5.235  11.056  13.763  1.00  0.00     0.042 A
HETATM   16  C6  UNL     1      -4.374  10.332  14.713  1.00  0.00     0.009 A
HETATM   17  C7  UNL     1      -4.820   9.618  13.461  1.00  0.00     0.009 A
ENDBRANCH   9  15
ENDBRANCH   7   9
ENDBRANCH   1   7
BRANCH   6  18
HETATM   18  N5  UNL     1      -5.564  15.698  11.426  1.00  0.00    -0.051 NA
BRANCH  18  19
HETATM   19  N6  UNL     1      -4.311  16.258  11.699  1.00  0.00    -0.335 NA
ATOM     20  H62 UNL     1      -4.459  17.240  11.930  1.00  0.00     0.173 HD
ATOM     21  H61 UNL     1      -3.661  16.149  10.921  1.00  0.00     0.173 HD
ENDBRANCH  18  19
BRANCH  18  22
HETATM   22  O3  UNL     1      -5.387  14.756  10.482  1.00  0.00    -0.288 OA
ATOM     23  H3  UNL     1      -5.174  15.142   9.640  1.00  0.00     0.239 HD
ENDBRANCH  18  22
ENDBRANCH   6  18
BRANCH   5  24
HETATM   24  O2  UNL     1      -8.096  16.674  12.693  1.00  0.00    -0.260 OA
ATOM     25  H2  UNL     1      -9.003  16.802  12.945  1.00  0.00     0.247 HD
ENDBRANCH   5  24
TORSDOF 8
ENDMDL