MODEL 2
REMARK VINA RESULT: -4.783279966      6.349      8.743
REMARK  5 active torsions:
REMARK  status: ('A' for Active; 'I' for Inactive)
REMARK    1  A    between atoms: N1_1  and  C1_4
REMARK    2  A    between atoms: N5_17  and  C6_18
REMARK    3  A    between atoms: C6_18  and  O3_19
REMARK    4  A    between atoms: O3_19  and  C7_20
REMARK    5  A    between atoms: C7_20  and  O4_21
ROOT
HETATM    1  C1  UNL     1     -10.635  23.572  11.143  1.00  0.00     0.134 A
HETATM    2  N2  UNL     1      -9.559  23.734  10.347  1.00  0.00    -0.293 N
ATOM      3  H2  UNL     1      -9.573  24.417   9.591  1.00  0.00     0.172 HD
HETATM    4  C2  UNL     1      -8.477  22.988  10.565  1.00  0.00     0.327 A
HETATM    5  O1  UNL     1      -7.462  23.140   9.815  1.00  0.00    -0.247 OA
HETATM    6  N3  UNL     1      -8.421  22.079  11.552  1.00  0.00    -0.292 N
ATOM      7  H3  UNL     1      -7.570  21.531  11.678  1.00  0.00     0.172 HD
HETATM    8  C3  UNL     1      -9.473  21.873  12.383  1.00  0.00     0.148 A
HETATM    9  C4  UNL     1     -10.599  22.642  12.164  1.00  0.00     0.125 A
HETATM   10  N4  UNL     1     -11.501  22.266  13.100  1.00  0.00    -0.302 N
ATOM     11  H4  UNL     1     -12.442  22.642  13.214  1.00  0.00     0.171 HD
HETATM   12  C5  UNL     1     -10.934  21.309  13.850  1.00  0.00     0.330 A
HETATM   13  O2  UNL     1     -11.463  20.709  14.824  1.00  0.00    -0.246 OA
HETATM   14  N5  UNL     1      -9.693  21.056  13.423  1.00  0.00    -0.261 N
ENDROOT
BRANCH  14  15
HETATM   15  C6  UNL     1      -8.724  20.119  13.920  1.00  0.00     0.307 C
BRANCH  15  16
HETATM   16  O3  UNL     1      -8.268  19.234  12.950  1.00  0.00    -0.348 OA
BRANCH  16  17
HETATM   17  C7  UNL     1      -8.796  17.972  13.317  1.00  0.00     0.336 C
BRANCH  17  18
HETATM   18  O4  UNL     1      -8.754  17.086  12.238  1.00  0.00    -0.377 OA
ATOM     19  H4  UNL     1      -9.626  16.939  11.890  1.00  0.00     0.212 HD
ENDBRANCH  17  18
ENDBRANCH  16  17
ENDBRANCH  15  16
ENDBRANCH  14  15
BRANCH   1  20
HETATM   20  N1  UNL     1     -11.669  24.299  10.919  1.00  0.00    -0.383 N
ATOM     21  H12 UNL     1     -12.066  24.404   9.985  1.00  0.00     0.157 HD
ATOM     22  H11 UNL     1     -12.098  24.782  11.708  1.00  0.00     0.157 HD
ENDBRANCH   1  20
TORSDOF 5
ENDMDL