MODEL 3
REMARK VINA RESULT: -5.032977697      2.228      5.884
REMARK  7 active torsions:
REMARK  status: ('A' for Active; 'I' for Inactive)
REMARK    1  A    between atoms: N1_1  and  C1_4
REMARK    2  A    between atoms: C4_12  and  C5_13
REMARK    3  A    between atoms: C5_13  and  O3_15
REMARK    4  A    between atoms: O3_15  and  C6_16
REMARK    5  A    between atoms: C6_16  and  C7_18
REMARK    6  A    between atoms: C7_18  and  N4_19
REMARK    7  A    between atoms: C7_18  and  N5_23
ROOT
HETATM    1  C5  UNL     1      -4.525  11.579  11.799  1.00  0.00     0.306 C
HETATM    2  O2  UNL     1      -3.295  11.774  11.617  1.00  0.00    -0.259 OA
ENDROOT
BRANCH   1   3
HETATM    3  C4  UNL     1      -5.359  12.713  12.207  1.00  0.00     0.099 A
HETATM    4  C1  UNL     1      -5.710  12.934  13.515  1.00  0.00     0.120 A
HETATM    5  N2  UNL     1      -6.482  14.009  13.788  1.00  0.00    -0.294 N
HETATM    6  C2  UNL     1      -6.922  14.860  12.872  1.00  0.00     0.325 A
ATOM      7  H2  UNL     1      -6.743  14.175  14.760  1.00  0.00     0.172 HD
HETATM    8  O1  UNL     1      -7.644  15.866  13.120  1.00  0.00    -0.247 OA
HETATM    9  N3  UNL     1      -6.590  14.661  11.584  1.00  0.00    -0.318 N
HETATM   10  C3  UNL     1      -5.825  13.608  11.270  1.00  0.00     0.114 A
ATOM     11  H3  UNL     1      -6.916  15.301  10.859  1.00  0.00     0.170 HD
BRANCH   4  12
HETATM   12  N1  UNL     1      -5.301  12.130  14.429  1.00  0.00    -0.384 N
ATOM     13  H12 UNL     1      -5.335  12.416  15.407  1.00  0.00     0.157 HD
ATOM     14  H11 UNL     1      -4.938  11.200  14.217  1.00  0.00     0.157 HD
ENDBRANCH   4  12
ENDBRANCH   1   3
BRANCH   1  15
HETATM   15  O3  UNL     1      -5.033  10.309  11.607  1.00  0.00    -0.238 OA
BRANCH  15  16
HETATM   16  C6  UNL     1      -4.595   9.195  12.284  1.00  0.00     0.325 C
HETATM   17  O4  UNL     1      -4.924   9.061  13.490  1.00  0.00    -0.260 OA
BRANCH  16  18
HETATM   18  C7  UNL     1      -3.753   8.126  11.693  1.00  0.00     0.476 C
BRANCH  18  19
HETATM   19  N4  UNL     1      -4.426   7.290  10.774  1.00  0.00    -0.041 N
ATOM     20  H43 UNL     1      -5.178   6.782  11.241  1.00  0.00     0.277 HD
ATOM     21  H42 UNL     1      -4.972   7.850  10.119  1.00  0.00     0.277 HD
ATOM     22  H41 UNL     1      -3.822   6.642  10.270  1.00  0.00     0.277 HD
ENDBRANCH  18  19
BRANCH  18  23
HETATM   23  N5  UNL     1      -2.616   8.744  11.047  1.00  0.00    -0.041 N
ATOM     24  H53 UNL     1      -2.022   8.067  10.567  1.00  0.00     0.277 HD
ATOM     25  H52 UNL     1      -2.880   9.298  10.232  1.00  0.00     0.277 HD
ATOM     26  H51 UNL     1      -2.107   9.288  11.743  1.00  0.00     0.277 HD
ENDBRANCH  18  23
ENDBRANCH  16  18
ENDBRANCH  15  16
ENDBRANCH   1  15
TORSDOF 7
ENDMDL