MODEL 1
REMARK VINA RESULT: -5.658540769      0.000      0.000
REMARK  3 active torsions:
REMARK  status: ('A' for Active; 'I' for Inactive)
REMARK    1  A    between atoms: C2_5  and  N3_6
REMARK    2  A    between atoms: C3_13  and  C4_14
REMARK    3  A    between atoms: N5_15  and  C5_17
ROOT
HETATM    1  N1  UNL     1      -6.181  13.008  14.661  1.00  0.00    -0.085 NA
HETATM    2  C1  UNL     1      -6.367  13.871  13.523  1.00  0.00     0.128 C
HETATM    3  N2  UNL     1      -7.157  14.872  13.418  1.00  0.00    -0.331 N
ATOM      4  H2  UNL     1      -7.781  15.202  14.154  1.00  0.00     0.164 HD
HETATM    5  C2  UNL     1      -7.035  15.477  12.083  1.00  0.00     0.485 C
HETATM    6  N4  UNL     1      -6.526  14.343  11.289  1.00  0.00    -0.014 N
ATOM      7  H41 UNL     1      -6.112  14.582  10.387  1.00  0.00     0.283 HD
ATOM      8  H42 UNL     1      -7.235  13.725  10.891  1.00  0.00     0.283 HD
HETATM    9  C3  UNL     1      -5.645  13.746  12.239  1.00  0.00     0.292 C
ENDROOT
BRANCH   9  10
HETATM   10  C4  UNL     1      -5.283  12.354  11.924  1.00  0.00     0.103 C
HETATM   11  N5  UNL     1      -4.249  11.752  12.381  1.00  0.00    -0.353 N
ATOM     12  H5  UNL     1      -3.626  12.261  13.009  1.00  0.00     0.166 HD
BRANCH  11  13
HETATM   13  C5  UNL     1      -3.934  10.410  12.054  1.00  0.00     0.114 A
HETATM   14  C6  UNL     1      -4.842   9.448  11.741  1.00  0.00     0.123 A
HETATM   15  C7  UNL     1      -4.390   8.178  11.442  1.00  0.00     0.252 A
HETATM   16  O1  UNL     1      -5.194   7.251  11.145  1.00  0.00    -0.268 OA
HETATM   17  N6  UNL     1      -3.079   7.853  11.447  1.00  0.00    -0.275 N
HETATM   18  C8  UNL     1      -2.208   8.833  11.763  1.00  0.00     0.328 A
ATOM     19  H6  UNL     1      -2.762   6.910  11.223  1.00  0.00     0.173 HD
HETATM   20  O2  UNL     1      -0.984   8.528  11.768  1.00  0.00    -0.247 OA
HETATM   21  N7  UNL     1      -2.617  10.080  12.059  1.00  0.00    -0.294 N
ATOM     22  H7  UNL     1      -1.923  10.791  12.291  1.00  0.00     0.172 HD
ENDBRANCH  11  13
ENDBRANCH   9  10
BRANCH   5  23
HETATM   23  N3  UNL     1      -8.350  15.870  11.673  1.00  0.00    -0.033 N
ATOM     24  H33 UNL     1      -8.344  16.567  10.927  1.00  0.00     0.278 HD
ATOM     25  H32 UNL     1      -8.846  15.138  11.164  1.00  0.00     0.278 HD
ATOM     26  H31 UNL     1      -8.847  16.183  12.507  1.00  0.00     0.278 HD
ENDBRANCH   5  23
TORSDOF 3
ENDMDL