MODEL 5
REMARK VINA RESULT: -5.182229814      9.758     10.992
REMARK  4 active torsions:
REMARK  status: ('A' for Active; 'I' for Inactive)
REMARK    1  A    between atoms: N1_1  and  C1_4
REMARK    2  A    between atoms: C2_7  and  N3_8
REMARK    3  A    between atoms: N3_8  and  C3_10
REMARK    4  A    between atoms: N8_23  and  O3_24
ROOT
HETATM    1  C1  UNL     1     -10.116  21.486  15.446  1.00  0.00     0.721 A
HETATM    2  N2  UNL     1      -9.493  21.451  14.253  1.00  0.00    -0.019 N
ATOM      3  H2  UNL     1      -8.694  22.066  14.095  1.00  0.00     0.203 HD
HETATM    4  C2  UNL     1      -9.888  20.634  13.264  1.00  0.00     0.715 A
HETATM    5  N7  UNL     1     -10.942  19.838  13.502  1.00  0.00    -0.138 N
ATOM      6  H7  UNL     1     -11.267  19.205  12.771  1.00  0.00     0.189 HD
HETATM    7  C5  UNL     1     -11.580  19.858  14.693  1.00  0.00     0.380 A
HETATM    8  O2  UNL     1     -12.578  19.093  14.895  1.00  0.00    -0.243 OA
HETATM    9  N8  UNL     1     -11.167  20.689  15.678  1.00  0.00     0.004 N
ENDROOT
BRANCH   4  10
HETATM   10  N3  UNL     1      -9.242  20.655  12.147  1.00  0.00    -0.020 N
ATOM     11  H3  UNL     1      -8.797  19.798  11.818  1.00  0.00     0.203 HD
BRANCH  10  12
HETATM   12  C3  UNL     1      -9.130  21.835  11.361  1.00  0.00     0.715 A
HETATM   13  N4  UNL     1     -10.127  22.598  10.848  1.00  0.00    -0.127 N
HETATM   14  N5  UNL     1      -9.608  23.612  10.176  1.00  0.00    -0.237 N
ATOM     15  H4  UNL     1     -11.125  22.419  10.963  1.00  0.00     0.205 HD
HETATM   16  C4  UNL     1      -8.266  23.535  10.233  1.00  0.00     0.353 A
ATOM     17  H5  UNL     1     -10.139  24.335   9.693  1.00  0.00     0.192 HD
HETATM   18  O1  UNL     1      -7.434  24.340   9.701  1.00  0.00    -0.245 OA
HETATM   19  N6  UNL     1      -7.991  22.435  10.967  1.00  0.00    -0.138 N
ATOM     20  H6  UNL     1      -7.053  22.104  11.191  1.00  0.00     0.189 HD
ENDBRANCH  10  12
ENDBRANCH   4  10
BRANCH   1  21
HETATM   21  N1  UNL     1      -9.735  22.279  16.409  1.00  0.00    -0.232 N
ATOM     22  H12 UNL     1      -8.930  22.881  16.235  1.00  0.00     0.174 HD
ATOM     23  H11 UNL     1     -10.210  22.311  17.310  1.00  0.00     0.174 HD
ENDBRANCH   1  21
BRANCH   9  24
HETATM   24  O3  UNL     1     -11.814  20.718  16.902  1.00  0.00    -0.265 OA
ATOM     25  H3  UNL     1     -12.748  20.890  16.949  1.00  0.00     0.246 HD
ENDBRANCH   9  24
TORSDOF 4
ENDMDL