MODEL 3
REMARK VINA RESULT: -4.597105049      3.150      5.534
REMARK  5 active torsions:
REMARK  status: ('A' for Active; 'I' for Inactive)
REMARK    1  A    between atoms: N1_2  and  C3_4
REMARK    2  A    between atoms: C3_4  and  C4_5
REMARK    3  A    between atoms: C5_10  and  N4_11
REMARK       I    between atoms: N4_11  and  C6_13
REMARK    4  A    between atoms: C7_18  and  N7_19
REMARK    5  A    between atoms: N7_19  and  N8_21
ROOT
HETATM    1  C4  UNL     1      -6.869  15.520  12.028  1.00  0.00     0.126 A
HETATM    2  N2  UNL     1      -8.032  15.812  11.424  1.00  0.00    -0.286 N
ATOM      3  H2  UNL     1      -8.232  15.382  10.521  1.00  0.00     0.188 HD
HETATM    4  N3  UNL     1      -8.926  16.627  11.943  1.00  0.00    -0.281 N
ATOM      5  H3  UNL     1      -9.789  16.804  11.430  1.00  0.00     0.188 HD
HETATM    6  C5  UNL     1      -8.736  17.242  13.143  1.00  0.00     0.169 A
HETATM    7  C7  UNL     1      -7.561  16.967  13.786  1.00  0.00     0.167 A
HETATM    8  N9  UNL     1      -6.671  16.123  13.215  1.00  0.00    -0.325 N
ATOM      9  H9  UNL     1      -5.802  15.931  13.713  1.00  0.00     0.169 HD
ENDROOT
BRANCH   6  10
HETATM   10  N4  UNL     1      -9.620  18.027  13.621  1.00  0.00    -0.313 N
HETATM   11  C6  UNL     1      -9.542  19.409  13.808  1.00  0.00     0.187 C
HETATM   12  N5  UNL     1      -9.965  20.200  12.881  1.00  0.00    -0.373 N
HETATM   13  N6  UNL     1      -9.021  19.994  14.996  1.00  0.00    -0.064 NA
ATOM     14  H52 UNL     1     -10.339  19.780  12.030  1.00  0.00     0.158 HD
ATOM     15  H51 UNL     1      -9.908  21.209  13.018  1.00  0.00     0.158 HD
ATOM     16  H4  UNL     1     -10.498  17.590  13.901  1.00  0.00     0.170 HD
ENDBRANCH   6  10
BRANCH   7  17
HETATM   17  N7  UNL     1      -7.256  17.475  14.915  1.00  0.00    -0.289 N
ATOM     18  H7  UNL     1      -7.770  17.173  15.743  1.00  0.00     0.188 HD
BRANCH  17  19
HETATM   19  N8  UNL     1      -6.254  18.419  15.061  1.00  0.00    -0.344 N
ATOM     20  H82 UNL     1      -5.424  18.323  14.477  1.00  0.00     0.176 HD
ATOM     21  H81 UNL     1      -6.321  19.192  15.723  1.00  0.00     0.176 HD
ENDBRANCH  17  19
ENDBRANCH   7  17
BRANCH   1  22
HETATM   22  C3  UNL     1      -5.829  14.626  11.513  1.00  0.00     0.349 C
BRANCH  22  23
HETATM   23  N1  UNL     1      -5.904  13.284  12.061  1.00  0.00     0.086 N
HETATM   24  C1  UNL     1      -4.826  13.084  13.034  1.00  0.00     0.309 C
HETATM   25  C2  UNL     1      -5.627  12.379  10.957  1.00  0.00     0.309 C
ENDBRANCH  22  23
ENDBRANCH   1  22
TORSDOF 5
ENDMDL