MODEL 1
REMARK VINA RESULT: -5.132527684      0.000      0.000
REMARK  6 active torsions:
REMARK  status: ('A' for Active; 'I' for Inactive)
REMARK    1  A    between atoms: N1_1  and  C1_5
REMARK    2  A    between atoms: C1_5  and  C2_6
REMARK    3  A    between atoms: C2_6  and  N2_7
REMARK    4  A    between atoms: N2_7  and  C3_9
REMARK    5  A    between atoms: C5_16  and  N5_17
REMARK    6  A    between atoms: N5_17  and  O2_19
ROOT
HETATM    1  C3  UNL     1      -5.576  12.984  12.359  1.00  0.00     0.179 C
HETATM    2  N3  UNL     1      -5.696  13.317  13.673  1.00  0.00    -0.289 N
ATOM      3  H3  UNL     1      -4.977  12.955  14.300  1.00  0.00     0.172 HD
HETATM    4  C4  UNL     1      -6.672  14.083  14.249  1.00  0.00     0.340 C
HETATM    5  O1  UNL     1      -6.917  13.919  15.464  1.00  0.00    -0.246 OA
HETATM    6  N4  UNL     1      -7.436  15.035  13.643  1.00  0.00    -0.139 N
ATOM      7  H4  UNL     1      -8.073  15.534  14.264  1.00  0.00     0.189 HD
HETATM    8  C5  UNL     1      -7.479  15.419  12.354  1.00  0.00     0.708 C
HETATM    9  N6  UNL     1      -6.701  14.936  11.344  1.00  0.00    -0.151 N
ATOM     10  H6  UNL     1      -6.766  15.458  10.470  1.00  0.00     0.188 HD
HETATM   11  C6  UNL     1      -5.866  13.888  11.310  1.00  0.00     0.304 C
HETATM   12  O3  UNL     1      -5.260  13.665  10.237  1.00  0.00    -0.263 OA
ENDROOT
BRANCH   1  13
HETATM   13  N2  UNL     1      -5.210  11.859  12.065  1.00  0.00    -0.350 N
ATOM     14  H2  UNL     1      -5.122  11.845  11.049  1.00  0.00     0.166 HD
BRANCH  13  15
HETATM   15  C2  UNL     1      -4.864  10.605  12.498  1.00  0.00     0.089 C
BRANCH  15  16
HETATM   16  C1  UNL     1      -3.435  10.351  12.918  1.00  0.00     0.274 C
BRANCH  16  17
HETATM   17  N1  UNL     1      -2.556  10.874  11.881  1.00  0.00    -0.075 N
ATOM     18  H13 UNL     1      -1.597  10.998  12.205  1.00  0.00     0.274 HD
ATOM     19  H12 UNL     1      -2.366  10.192  11.146  1.00  0.00     0.274 HD
ATOM     20  H11 UNL     1      -2.964  11.736  11.520  1.00  0.00     0.274 HD
ENDBRANCH  16  17
ENDBRANCH  15  16
ENDBRANCH  13  15
ENDBRANCH   1  13
BRANCH   8  21
HETATM   21  N5  UNL     1      -8.344  16.331  12.061  1.00  0.00    -0.098 N
ATOM     22  H5  UNL     1      -8.269  17.272  12.448  1.00  0.00     0.213 HD
BRANCH  21  23
HETATM   23  O2  UNL     1      -9.364  15.994  11.214  1.00  0.00    -0.276 OA
ATOM     24  H2  UNL     1     -10.079  16.611  11.114  1.00  0.00     0.245 HD
ENDBRANCH  21  23
ENDBRANCH   8  21
TORSDOF 6
ENDMDL