MODEL 3
REMARK VINA RESULT: -5.240144631      1.318      1.799
REMARK  4 active torsions:
REMARK  status: ('A' for Active; 'I' for Inactive)
REMARK    1  A    between atoms: N1_1  and  C1_4
REMARK    2  A    between atoms: C2_10  and  C3_11
REMARK    3  A    between atoms: C3_11  and  N4_12
REMARK    4  A    between atoms: N4_12  and  C4_14
ROOT
HETATM    1  N4  UNL     1      -4.702  11.304  11.871  1.00  0.00    -0.365 N
ATOM      2  H4  UNL     1      -4.402  11.261  10.897  1.00  0.00     0.161 HD
ENDROOT
BRANCH   1   3
HETATM    3  C3  UNL     1      -4.380  10.172  12.702  1.00  0.00     0.184 C
BRANCH   3   4
HETATM    4  C2  UNL     1      -4.389   8.902  11.927  1.00  0.00     0.097 A
HETATM    5  C1  UNL     1      -3.333   8.415  11.194  1.00  0.00     0.147 A
HETATM    6  N2  UNL     1      -3.735   7.259  10.651  1.00  0.00    -0.224 N
HETATM    7  O1  UNL     1      -4.964   7.048  11.028  1.00  0.00    -0.155 OA
ATOM      8  H2  UNL     1      -3.177   6.651  10.050  1.00  0.00     0.198 HD
HETATM    9  N3  UNL     1      -5.382   8.023  11.797  1.00  0.00    -0.240 N
ATOM     10  H3  UNL     1      -6.306   8.097  12.222  1.00  0.00     0.196 HD
BRANCH   5  11
HETATM   11  N1  UNL     1      -2.165   8.924  11.026  1.00  0.00    -0.382 N
ATOM     12  H12 UNL     1      -1.905   9.783  10.544  1.00  0.00     0.157 HD
ATOM     13  H11 UNL     1      -1.302   8.507  11.377  1.00  0.00     0.157 HD
ENDBRANCH   5  11
ENDBRANCH   3   4
ENDBRANCH   1   3
BRANCH   1  14
HETATM   14  C4  UNL     1      -5.330  12.360  12.239  1.00  0.00     0.186 A
HETATM   15  N5  UNL     1      -5.605  12.499  13.557  1.00  0.00    -0.277 N
HETATM   16  N6  UNL     1      -6.245  13.553  14.020  1.00  0.00    -0.250 N
ATOM     17  H5  UNL     1      -5.310  11.770  14.207  1.00  0.00     0.189 HD
HETATM   18  C5  UNL     1      -6.661  14.547  13.213  1.00  0.00     0.341 A
ATOM     19  H6  UNL     1      -6.431  13.618  15.021  1.00  0.00     0.192 HD
HETATM   20  O2  UNL     1      -7.275  15.547  13.696  1.00  0.00    -0.245 OA
HETATM   21  N7  UNL     1      -6.404  14.436  11.907  1.00  0.00    -0.271 N
HETATM   22  C6  UNL     1      -5.747  13.366  11.397  1.00  0.00     0.294 A
ATOM     23  H7  UNL     1      -6.709  15.178  11.277  1.00  0.00     0.174 HD
HETATM   24  O3  UNL     1      -5.531  13.311  10.173  1.00  0.00    -0.264 OA
ENDBRANCH   1  14
TORSDOF 4
ENDMDL