MODEL 1
REMARK VINA RESULT: -5.145290448      0.000      0.000
REMARK  4 active torsions:
REMARK  status: ('A' for Active; 'I' for Inactive)
REMARK    1  A    between atoms: N1_1  and  C1_4
REMARK    2  A    between atoms: C2_7  and  S1_8
REMARK    3  A    between atoms: S1_8  and  N3_11
REMARK    4  A    between atoms: C4_16  and  N5_17
ROOT
HETATM    1  S1  UNL     1      -5.022  15.633  12.596  1.00  0.00     0.282 S
HETATM    2  O1  UNL     1      -4.380  15.698  13.938  1.00  0.00    -0.203 OA
HETATM    3  O2  UNL     1      -4.159  16.382  11.631  1.00  0.00    -0.203 OA
ENDROOT
BRANCH   1   4
HETATM    4  C2  UNL     1      -5.180  13.993  12.016  1.00  0.00     0.248 A
HETATM    5  N2  UNL     1      -4.761  12.867  12.656  1.00  0.00    -0.162 N
HETATM    6  C1  UNL     1      -5.066  11.822  11.886  1.00  0.00     0.692 A
ATOM      7  H2  UNL     1      -4.297  12.829  13.563  1.00  0.00     0.186 HD
HETATM    8  N7  UNL     1      -5.670  12.276  10.774  1.00  0.00    -0.130 N
HETATM    9  N6  UNL     1      -5.736  13.593  10.858  1.00  0.00    -0.260 N
ATOM     10  H7  UNL     1      -6.015  11.705  10.002  1.00  0.00     0.205 HD
ATOM     11  H6  UNL     1      -6.145  14.209  10.155  1.00  0.00     0.190 HD
BRANCH   6  12
HETATM   12  N1  UNL     1      -4.801  10.595  12.204  1.00  0.00    -0.233 N
ATOM     13  H12 UNL     1      -5.087  10.089  13.042  1.00  0.00     0.174 HD
ATOM     14  H11 UNL     1      -4.251   9.965  11.620  1.00  0.00     0.174 HD
ENDBRANCH   6  12
ENDBRANCH   1   4
BRANCH   1  15
HETATM   15  N3  UNL     1      -6.573  16.394  12.591  1.00  0.00    -0.125 NA
HETATM   16  C3  UNL     1      -7.106  16.645  13.897  1.00  0.00     0.347 C
HETATM   17  N4  UNL     1      -7.983  15.503  13.731  1.00  0.00    -0.020 N
HETATM   18  C4  UNL     1      -7.685  15.541  12.309  1.00  0.00     0.475 C
ATOM     19  H42 UNL     1      -7.839  14.650  14.272  1.00  0.00     0.282 HD
ATOM     20  H41 UNL     1      -8.946  15.531  14.063  1.00  0.00     0.282 HD
BRANCH  18  21
HETATM   21  N5  UNL     1      -8.742  16.284  11.632  1.00  0.00    -0.036 N
ATOM     22  H53 UNL     1      -8.702  17.280  11.847  1.00  0.00     0.278 HD
ATOM     23  H52 UNL     1      -8.583  16.337  10.626  1.00  0.00     0.278 HD
ATOM     24  H51 UNL     1      -9.656  15.886  11.850  1.00  0.00     0.278 HD
ENDBRANCH  18  21
ENDBRANCH   1  15
TORSDOF 4
ENDMDL