MODEL 3
REMARK VINA RESULT: -5.572259787      2.388      6.210
REMARK  4 active torsions:
REMARK  status: ('A' for Active; 'I' for Inactive)
REMARK    1  A    between atoms: N1_1  and  C1_4
REMARK    2  A    between atoms: C2_7  and  N3_8
REMARK    3  A    between atoms: N3_8  and  O1_9
REMARK    4  A    between atoms: N3_8  and  C3_11
ROOT
HETATM    1  N3  UNL     1      -6.189  14.179  11.429  1.00  0.00    -0.089 NA
ENDROOT
BRANCH   1   2
HETATM    2  C2  UNL     1      -5.338  13.145  11.879  1.00  0.00     0.131 A
HETATM    3  N2  UNL     1      -4.347  13.274  12.770  1.00  0.00    -0.179 N
HETATM    4  C1  UNL     1      -3.566  12.257  13.166  1.00  0.00     0.676 A
ATOM      5  H2  UNL     1      -4.176  14.197  13.169  1.00  0.00     0.185 HD
HETATM    6  N7  UNL     1      -3.732  11.015  12.681  1.00  0.00    -0.202 N
HETATM    7  C7  UNL     1      -4.705  10.832  11.791  1.00  0.00     0.109 A
ATOM      8  H7  UNL     1      -3.137  10.243  12.984  1.00  0.00     0.183 HD
HETATM    9  C6  UNL     1      -5.515  11.853  11.372  1.00  0.00     0.063 A
BRANCH   4  10
HETATM   10  N1  UNL     1      -2.637  12.470  14.026  1.00  0.00    -0.234 N
ATOM     11  H12 UNL     1      -2.849  13.027  14.854  1.00  0.00     0.174 HD
ATOM     12  H11 UNL     1      -1.707  12.081  13.869  1.00  0.00     0.174 HD
ENDBRANCH   4  10
ENDBRANCH   1   2
BRANCH   1  13
HETATM   13  O1  UNL     1      -5.472  15.082  10.700  1.00  0.00    -0.300 OA
ATOM     14  H1  UNL     1      -6.024  15.461  10.027  1.00  0.00     0.238 HD
ENDBRANCH   1  13
BRANCH   1  15
HETATM   15  C3  UNL     1      -6.896  14.858  12.443  1.00  0.00     0.197 A
HETATM   16  N4  UNL     1      -6.913  14.494  13.730  1.00  0.00    -0.280 N
HETATM   17  N5  UNL     1      -7.560  15.108  14.684  1.00  0.00    -0.250 N
ATOM     18  H4  UNL     1      -6.375  13.666  13.989  1.00  0.00     0.188 HD
HETATM   19  C4  UNL     1      -8.291  16.210  14.401  1.00  0.00     0.341 A
ATOM     20  H5  UNL     1      -7.515  14.756  15.640  1.00  0.00     0.192 HD
HETATM   21  O2  UNL     1      -8.912  16.789  15.341  1.00  0.00    -0.245 OA
HETATM   22  N6  UNL     1      -8.315  16.622  13.141  1.00  0.00    -0.272 N
HETATM   23  C5  UNL     1      -7.655  16.000  12.151  1.00  0.00     0.291 A
ATOM     24  H6  UNL     1      -8.862  17.452  12.912  1.00  0.00     0.174 HD
HETATM   25  O3  UNL     1      -7.689  16.409  10.949  1.00  0.00    -0.264 OA
ENDBRANCH   1  15
TORSDOF 4
ENDMDL