MODEL 1
REMARK VINA RESULT: -11.188928487      0.000      0.000
REMARK  6 active torsions:
REMARK  status: ('A' for Active; 'I' for Inactive)
REMARK    1  A    between atoms: C3_3  and  C4_4
REMARK    2  A    between atoms: C7_11  and  N3_12
REMARK    3  A    between atoms: N6_23  and  C11_24
REMARK    4  A    between atoms: C11_24  and  C13_26
REMARK    5  A    between atoms: C16_29  and  N7_30
REMARK       I    between atoms: N7_30  and  C17_32
REMARK    6  A    between atoms: C17_32  and  C18_34
ROOT
HETATM    1  C1  UNL     1       0.714 -11.594 -15.898  1.00  0.00     0.071 C
HETATM    2  C2  UNL     1       1.049 -10.843 -14.667  1.00  0.00     0.037 A
HETATM    3  C3  UNL     1       1.158 -11.386 -13.391  1.00  0.00     0.019 A
HETATM    4  C10 UNL     1       1.486 -10.365 -12.518  1.00  0.00     0.121 A
HETATM    5  N5  UNL     1       1.563  -9.278 -13.262  1.00  0.00    -0.308 N
ATOM      6  H5  UNL     1       1.792  -8.353 -12.897  1.00  0.00     0.186 HD
HETATM    7  N6  UNL     1       1.307  -9.529 -14.555  1.00  0.00    -0.291 N
ENDROOT
BRANCH   7   8
HETATM    8  C11 UNL     1       1.313  -8.547 -15.596  1.00  0.00     0.108 C
HETATM    9  C12 UNL     1       1.886  -9.058 -16.907  1.00  0.00     0.035 C
BRANCH   8  10
HETATM   10  C13 UNL     1       1.957  -7.229 -15.199  1.00  0.00     0.010 C
HETATM   11  C14 UNL     1       1.668  -6.246 -16.291  1.00  0.00     0.009 C
HETATM   12  C15 UNL     1       1.436  -4.844 -15.859  1.00  0.00     0.026 C
HETATM   13  C16 UNL     1       0.561  -4.684 -14.642  1.00  0.00     0.084 C
HETATM   14  C24 UNL     1       0.196  -6.009 -14.007  1.00  0.00     0.026 C
HETATM   15  C25 UNL     1       1.455  -6.795 -13.842  1.00  0.00     0.009 C
BRANCH  13  16
HETATM   16  N7  UNL     1      -0.586  -3.859 -14.891  1.00  0.00    -0.356 N
HETATM   17  C17 UNL     1      -0.606  -2.685 -15.657  1.00  0.00     0.222 C
HETATM   18  O1  UNL     1       0.451  -2.265 -16.203  1.00  0.00    -0.273 OA
ATOM     19  H7  UNL     1      -1.468  -4.154 -14.471  1.00  0.00     0.162 HD
BRANCH  17  20
HETATM   20  C18 UNL     1      -1.849  -1.900 -15.853  1.00  0.00     0.083 C
HETATM   21  C19 UNL     1      -1.564  -0.641 -16.652  1.00  0.00     0.014 C
HETATM   22  C20 UNL     1      -2.692   0.335 -16.525  1.00  0.00     0.007 C
HETATM   23  C21 UNL     1      -3.969  -0.386 -16.095  1.00  0.00     0.079 C
HETATM   24  C22 UNL     1      -3.830  -1.005 -14.736  1.00  0.00     0.244 C
HETATM   25  F2  UNL     1      -4.582  -2.174 -14.717  1.00  0.00    -0.206 F
HETATM   26  F3  UNL     1      -4.270  -0.145 -13.728  1.00  0.00    -0.206 F
HETATM   27  C23 UNL     1      -2.388  -1.403 -14.507  1.00  0.00     0.093 C
ENDBRANCH  17  20
ENDBRANCH  13  16
ENDBRANCH   8  10
ENDBRANCH   7   8
BRANCH   3  28
HETATM   28  C4  UNL     1       0.964 -12.780 -13.000  1.00  0.00     0.034 A
HETATM   29  C5  UNL     1      -0.300 -13.249 -12.706  1.00  0.00     0.105 A
HETATM   30  N1  UNL     1      -0.519 -14.535 -12.339  1.00  0.00    -0.349 N
HETATM   31  C6  UNL     1       0.496 -15.410 -12.248  1.00  0.00     0.151 A
ATOM     32  H1  UNL     1      -1.468 -14.843 -12.129  1.00  0.00     0.167 HD
HETATM   33  N2  UNL     1       0.547 -16.712 -11.913  1.00  0.00    -0.174 N
HETATM   34  C8  UNL     1       1.768 -14.962 -12.538  1.00  0.00     0.133 A
HETATM   35  C7  UNL     1       1.833 -17.110 -11.984  1.00  0.00     0.678 A
ATOM     36  H2  UNL     1      -0.247 -17.296 -11.652  1.00  0.00     0.186 HD
HETATM   37  N4  UNL     1       2.561 -16.034 -12.365  1.00  0.00    -0.185 N
ATOM     38  H4  UNL     1       3.571 -16.036 -12.501  1.00  0.00     0.184 HD
HETATM   39  C9  UNL     1       2.019 -13.654 -12.915  1.00  0.00     0.160 A
HETATM   40  F1  UNL     1       3.306 -13.265 -13.191  1.00  0.00    -0.203 F
BRANCH  35  41
HETATM   41  N3  UNL     1       2.302 -18.280 -11.740  1.00  0.00    -0.234 N
ATOM     42  H32 UNL     1       1.947 -19.154 -12.128  1.00  0.00     0.174 HD
ATOM     43  H31 UNL     1       3.087 -18.519 -11.134  1.00  0.00     0.174 HD
ENDBRANCH  35  41
ENDBRANCH   3  28
TORSDOF 6
ENDMDL