MODEL 5
REMARK VINA RESULT: -8.162633974      1.763      2.303
REMARK  6 active torsions:
REMARK  status: ('A' for Active; 'I' for Inactive)
REMARK    1  A    between atoms: C2_2  and  C5_5
REMARK    2  A    between atoms: C7_9  and  N1_10
REMARK    3  A    between atoms: C9_16  and  S3_17
REMARK    4  A    between atoms: S3_17  and  N3_20
REMARK       I    between atoms: N3_20  and  C10_22
REMARK       I    between atoms: C10_22  and  N4_24
REMARK    5  A    between atoms: N4_24  and  C11_26
REMARK    6  A    between atoms: C11_26  and  C12_27
ROOT
HETATM    1  S3  UNL     1      -0.176 -16.037 -16.026  1.00  0.00     0.270 S
HETATM    2  O1  UNL     1       0.837 -16.751 -16.902  1.00  0.00    -0.200 OA
HETATM    3  O2  UNL     1      -1.533 -16.567 -16.245  1.00  0.00    -0.200 OA
ENDROOT
BRANCH   1   4
HETATM    4  C9  UNL     1       0.352 -16.126 -14.308  1.00  0.00     0.122 A
HETATM    5  C5  UNL     1       0.490 -17.313 -13.708  1.00  0.00     0.017 A
HETATM    6  S1  UNL     1       0.992 -16.958 -12.089  1.00  0.00    -0.083 SA
HETATM    7  C6  UNL     1       1.005 -15.260 -12.254  1.00  0.00     0.077 A
HETATM    8  S2  UNL     1       1.290 -13.719 -11.497  1.00  0.00    -0.045 SA
HETATM    9  C8  UNL     1       0.630 -14.974 -13.531  1.00  0.00     0.083 A
HETATM   10  C7  UNL     1       0.912 -12.795 -12.858  1.00  0.00     0.143 A
HETATM   11  N2  UNL     1       0.592 -13.652 -13.814  1.00  0.00    -0.334 N
ATOM     12  H2  UNL     1       0.324 -13.324 -14.742  1.00  0.00     0.168 HD
BRANCH   5  13
HETATM   13  C2  UNL     1       0.320 -18.745 -14.163  1.00  0.00    -0.016 C
HETATM   14  C1  UNL     1      -1.064 -19.126 -14.529  1.00  0.00     0.020 C
HETATM   15  C3  UNL     1       0.591 -19.630 -12.887  1.00  0.00     0.020 C
HETATM   16  C4  UNL     1       1.403 -19.189 -15.102  1.00  0.00     0.020 C
ENDBRANCH   5  13
BRANCH  10  17
HETATM   17  N1  UNL     1       0.926 -11.473 -12.970  1.00  0.00    -0.380 N
ATOM     18  H12 UNL     1       1.467 -10.936 -13.648  1.00  0.00     0.158 HD
ATOM     19  H11 UNL     1       0.411 -10.794 -12.411  1.00  0.00     0.158 HD
ENDBRANCH  10  17
ENDBRANCH   1   4
BRANCH   1  20
HETATM   20  N3  UNL     1      -0.178 -14.402 -16.575  1.00  0.00    -0.232 N
HETATM   21  C10 UNL     1       1.017 -13.674 -16.843  1.00  0.00     0.330 C
HETATM   22  O3  UNL     1       2.102 -14.297 -16.656  1.00  0.00    -0.246 OA
HETATM   23  N4  UNL     1       1.060 -12.353 -17.287  1.00  0.00    -0.336 N
ATOM     24  H4  UNL     1       0.188 -11.846 -17.440  1.00  0.00     0.164 HD
ATOM     25  H3  UNL     1      -1.074 -13.936 -16.714  1.00  0.00     0.183 HD
BRANCH  23  26
HETATM   26  C11 UNL     1       2.317 -11.694 -17.532  1.00  0.00     0.194 C
BRANCH  26  27
HETATM   27  C12 UNL     1       2.171 -10.259 -17.823  1.00  0.00     0.114 C
HETATM   28  F1  UNL     1       1.852  -9.841 -19.060  1.00  0.00    -0.209 F
HETATM   29  C13 UNL     1       2.351  -9.371 -16.865  1.00  0.00    -0.044 C
HETATM   30  C14 UNL     1       2.211  -7.890 -17.125  1.00  0.00     0.038 C
HETATM   31  C18 UNL     1       2.705  -9.731 -15.456  1.00  0.00     0.038 C
HETATM   32  C15 UNL     1       1.086  -7.358 -16.251  1.00  0.00     0.024 C
HETATM   33  C16 UNL     1       1.227  -7.826 -14.825  1.00  0.00     0.083 C
HETATM   34 CL1  UNL     1       0.984  -6.495 -13.692  1.00  0.00    -0.125 Cl
HETATM   35  C17 UNL     1       2.570  -8.467 -14.600  1.00  0.00     0.024 C
ENDBRANCH  26  27
ENDBRANCH  23  26
ENDBRANCH   1  20
TORSDOF 6
ENDMDL