MODEL 1
REMARK VINA RESULT: -8.763139271      0.000      0.000
REMARK  7 active torsions:
REMARK  status: ('A' for Active; 'I' for Inactive)
REMARK    1  A    between atoms: O1_2  and  C2_3
REMARK    2  A    between atoms: C8_10  and  O2_11
REMARK    3  A    between atoms: C12_18  and  O3_19
REMARK    4  A    between atoms: C12_18  and  C13_21
REMARK    5  A    between atoms: C17_27  and  C18_28
REMARK    6  A    between atoms: C18_28  and  N2_29
REMARK    7  A    between atoms: C19_33  and  O4_34
ROOT
HETATM    1  C2  UNL     1       2.153  -8.603 -16.252  1.00  0.00     0.109 A
HETATM    2  C3  UNL     1       2.063  -8.910 -14.916  1.00  0.00    -0.018 A
HETATM    3  C4  UNL     1       2.078  -7.864 -13.833  1.00  0.00     0.052 C
HETATM    4  C5  UNL     1       1.840 -10.203 -14.547  1.00  0.00    -0.031 A
HETATM    5  C6  UNL     1       1.697 -11.194 -15.503  1.00  0.00    -0.024 A
HETATM    6  C7  UNL     1       1.788 -10.824 -16.795  1.00  0.00     0.077 A
HETATM    7 CL1  UNL     1       1.759 -12.043 -18.083  1.00  0.00    -0.081 Cl
HETATM    8  C8  UNL     1       2.022  -9.497 -17.258  1.00  0.00     0.124 A
HETATM    9  C10 UNL     1       1.430 -12.649 -15.458  1.00  0.00     0.075 C
HETATM   10  C11 UNL     1       0.347 -13.173 -14.618  1.00  0.00     0.209 C
HETATM   11  N1  UNL     1       0.208 -14.577 -14.825  1.00  0.00    -0.033 N
ATOM     12  H11 UNL     1       0.882 -14.960 -15.487  1.00  0.00     0.281 HD
ATOM     13  H12 UNL     1      -0.632 -14.831 -15.345  1.00  0.00     0.281 HD
HETATM   14  C12 UNL     1       0.280 -15.188 -13.501  1.00  0.00     0.257 C
HETATM   15  C20 UNL     1       1.235 -14.291 -12.775  1.00  0.00     0.092 C
HETATM   16  C21 UNL     1       0.539 -12.953 -13.082  1.00  0.00     0.088 C
HETATM   17  C22 UNL     1       1.153 -11.736 -12.841  1.00  0.00    -0.172 C
HETATM   18  C23 UNL     1       1.786 -10.448 -13.046  1.00  0.00     0.120 C
ENDROOT
BRANCH  14  19
HETATM   19  O3  UNL     1      -0.945 -15.097 -12.854  1.00  0.00    -0.361 OA
ATOM     20  H3  UNL     1      -1.152 -14.191 -12.656  1.00  0.00     0.213 HD
ENDBRANCH  14  19
BRANCH  14  21
HETATM   21  C13 UNL     1       0.692 -16.602 -13.619  1.00  0.00     0.040 A
HETATM   22  C14 UNL     1       0.920 -17.134 -14.858  1.00  0.00     0.040 A
HETATM   23  C15 UNL     1       1.286 -18.443 -14.984  1.00  0.00     0.057 A
HETATM   24 CL2  UNL     1       1.426 -19.191 -16.584  1.00  0.00    -0.083 Cl
HETATM   25  C16 UNL     1       1.448 -19.273 -13.912  1.00  0.00     0.066 A
HETATM   26 CL3  UNL     1       1.892 -20.964 -14.064  1.00  0.00    -0.082 Cl
HETATM   27  C17 UNL     1       1.213 -18.724 -12.657  1.00  0.00     0.024 A
HETATM   28  C19 UNL     1       0.831 -17.400 -12.505  1.00  0.00     0.086 A
BRANCH  27  29
HETATM   29  C18 UNL     1       1.554 -19.619 -11.507  1.00  0.00     0.272 C
BRANCH  29  30
HETATM   30  N2  UNL     1       0.327 -19.855 -10.703  1.00  0.00    -0.075 N
ATOM     31  H23 UNL     1       0.158 -19.115 -10.022  1.00  0.00     0.274 HD
ATOM     32  H22 UNL     1      -0.526 -19.740 -11.251  1.00  0.00     0.274 HD
ATOM     33  H21 UNL     1       0.390 -20.776 -10.269  1.00  0.00     0.274 HD
ENDBRANCH  29  30
ENDBRANCH  27  29
BRANCH  28  34
HETATM   34  O4  UNL     1       0.623 -16.965 -11.178  1.00  0.00    -0.359 OA
ATOM     35  H4  UNL     1       1.222 -17.126 -10.459  1.00  0.00     0.217 HD
ENDBRANCH  28  34
ENDBRANCH  14  21
BRANCH   8  36
HETATM   36  O2  UNL     1       2.077  -9.300 -18.575  1.00  0.00    -0.351 OA
HETATM   37  C9  UNL     1       2.885  -8.989 -19.593  1.00  0.00     0.210 C
ENDBRANCH   8  36
BRANCH   1  38
HETATM   38  O1  UNL     1       2.425  -7.254 -16.636  1.00  0.00    -0.352 OA
HETATM   39  C1  UNL     1       1.318  -6.372 -16.815  1.00  0.00     0.210 C
ENDBRANCH   1  38
TORSDOF 7
ENDMDL