MODEL 1
REMARK VINA RESULT: -8.673161782      0.000      0.000
REMARK  7 active torsions:
REMARK  status: ('A' for Active; 'I' for Inactive)
REMARK    1  A    between atoms: N1_1  and  C1_5
REMARK    2  A    between atoms: C1_5  and  C2_6
REMARK    3  A    between atoms: C2_6  and  O1_7
REMARK    4  A    between atoms: N2_9  and  O2_11
REMARK    5  A    between atoms: N3_16  and  C6_18
REMARK    6  A    between atoms: C6_18  and  C7_19
REMARK       I    between atoms: C7_19  and  N4_21
REMARK    7  A    between atoms: N4_21  and  C8_23
ROOT
HETATM    1  C1  UNL     1       0.869 -18.420 -12.217  1.00  0.00     0.197 C
HETATM    2  C3  UNL     1       1.920 -17.400 -12.728  1.00  0.00     0.054 C
HETATM    3  C4  UNL     1       1.360 -16.061 -12.950  1.00  0.00     0.055 C
HETATM    4  C5  UNL     1       1.233 -15.524 -14.282  1.00  0.00    -0.018 C
HETATM    5  N3  UNL     1       0.812 -14.335 -14.431  1.00  0.00    -0.388 N
ATOM      6  H3  UNL     1       0.720 -13.951 -15.372  1.00  0.00     0.159 HD
HETATM    7  C14 UNL     1       1.543 -16.200 -15.578  1.00  0.00     0.052 C
HETATM    8  C15 UNL     1       0.277 -16.204 -16.456  1.00  0.00     0.006 C
HETATM    9  C16 UNL     1      -0.054 -17.565 -16.982  1.00  0.00     0.000 C
HETATM   10  C17 UNL     1      -1.468 -17.966 -16.959  1.00  0.00     0.001 C
HETATM   11  C18 UNL     1      -2.123 -18.307 -15.686  1.00  0.00     0.010 C
HETATM   12  C19 UNL     1      -1.920 -19.702 -15.164  1.00  0.00     0.074 C
HETATM   13  S1  UNL     1      -1.367 -19.699 -13.400  1.00  0.00    -0.166 SA
HETATM   14  C20 UNL     1      -0.019 -18.575 -13.395  1.00  0.00     0.121 C
ENDROOT
BRANCH   5  15
HETATM   15  C6  UNL     1       0.467 -13.534 -13.314  1.00  0.00     0.222 C
BRANCH  15  16
HETATM   16  C7  UNL     1       0.808 -12.079 -13.528  1.00  0.00     0.239 C
HETATM   17  O3  UNL     1       1.108 -11.451 -12.507  1.00  0.00    -0.271 OA
HETATM   18  N4  UNL     1       0.770 -11.534 -14.809  1.00  0.00    -0.324 N
ATOM     19  H4  UNL     1       0.503 -12.172 -15.560  1.00  0.00     0.169 HD
BRANCH  18  20
HETATM   20  C8  UNL     1       1.056 -10.209 -15.194  1.00  0.00     0.058 A
HETATM   21  C9  UNL     1       0.878  -9.098 -14.418  1.00  0.00     0.057 A
HETATM   22  C10 UNL     1       1.189  -7.827 -14.879  1.00  0.00     0.058 A
HETATM   23 CL1  UNL     1       0.946  -6.420 -13.846  1.00  0.00    -0.082 Cl
HETATM   24  C11 UNL     1       1.689  -7.635 -16.144  1.00  0.00     0.057 A
HETATM   25 CL2  UNL     1       2.079  -6.005 -16.714  1.00  0.00    -0.082 Cl
HETATM   26  C12 UNL     1       1.871  -8.728 -16.926  1.00  0.00     0.051 A
HETATM   27  C13 UNL     1       1.565  -9.985 -16.476  1.00  0.00     0.062 A
HETATM   28 CL3  UNL     1       1.817 -11.369 -17.523  1.00  0.00    -0.082 Cl
ENDBRANCH  18  20
ENDBRANCH  15  16
ENDBRANCH   5  15
BRANCH   1  29
HETATM   29  N1  UNL     1       0.112 -17.817 -11.146  1.00  0.00    -0.062 N
ATOM     30  H13 UNL     1       0.268 -18.313 -10.269  1.00  0.00     0.275 HD
ATOM     31  H12 UNL     1       0.499 -16.907 -10.897  1.00  0.00     0.275 HD
ATOM     32  H11 UNL     1      -0.885 -17.743 -11.349  1.00  0.00     0.275 HD
ENDBRANCH   1  29
BRANCH   1  33
HETATM   33  C2  UNL     1       1.564 -19.651 -11.817  1.00  0.00     0.173 C
HETATM   34  N2  UNL     1       1.224 -20.294 -10.775  1.00  0.00    -0.249 N
ATOM     35  H2  UNL     1       1.765 -21.137 -10.577  1.00  0.00     0.196 HD
BRANCH  33  36
HETATM   36  O1  UNL     1       2.629 -20.180 -12.552  1.00  0.00    -0.346 OA
ATOM     37  H1  UNL     1       3.311 -20.705 -12.150  1.00  0.00     0.219 HD
ENDBRANCH  33  36
BRANCH  34  38
HETATM   38  O2  UNL     1       0.237 -20.006  -9.893  1.00  0.00    -0.288 OA
ATOM     39  H2  UNL     1      -0.105 -20.549  -9.193  1.00  0.00     0.244 HD
ENDBRANCH  34  38
ENDBRANCH   1  33
TORSDOF 7
ENDMDL