MODEL 4
REMARK VINA RESULT: -7.538856590      3.338      4.692
REMARK  7 active torsions:
REMARK  status: ('A' for Active; 'I' for Inactive)
REMARK    1  A    between atoms: S1_2  and  C1_4
REMARK    2  A    between atoms: S1_2  and  N1_12
REMARK    3  A    between atoms: N1_12  and  C7_13
REMARK    4  A    between atoms: N1_12  and  C13_26
REMARK    5  A    between atoms: C9_15  and  O3_16
REMARK    6  A    between atoms: C10_18  and  O4_19
REMARK    7  A    between atoms: C11_21  and  O5_22
ROOT
HETATM    1  N1  UNL     1       0.779 -14.369 -13.331  1.00  0.00    -0.265 N
ENDROOT
BRANCH   1   2
HETATM    2  S1  UNL     1       0.430 -13.048 -12.273  1.00  0.00     0.265 S
HETATM    3  O1  UNL     1      -1.074 -13.025 -12.038  1.00  0.00    -0.200 OA
HETATM    4  O2  UNL     1       1.057 -13.282 -10.907  1.00  0.00    -0.200 OA
BRANCH   2   5
HETATM    5  C1  UNL     1       0.971 -11.508 -12.846  1.00  0.00     0.081 A
HETATM    6  C2  UNL     1       0.829 -10.397 -12.045  1.00  0.00     0.027 A
HETATM    7  C3  UNL     1       1.265  -9.137 -12.463  1.00  0.00     0.022 A
HETATM    8  C4  UNL     1       1.848  -8.991 -13.692  1.00  0.00     0.032 A
HETATM    9 BR1  UNL     1       2.447  -7.250 -14.260  1.00  0.00    -0.049 Br
HETATM   10  C5  UNL     1       1.994 -10.091 -14.495  1.00  0.00     0.052 A
HETATM   11 CL1  UNL     1       2.738  -9.917 -16.069  1.00  0.00    -0.083 Cl
HETATM   12  C6  UNL     1       1.557 -11.354 -14.079  1.00  0.00     0.050 A
ENDBRANCH   2   5
ENDBRANCH   1   2
BRANCH   1  13
HETATM   13  C7  UNL     1       0.918 -15.697 -12.848  1.00  0.00     0.073 A
HETATM   14  C8  UNL     1      -0.159 -16.588 -12.896  1.00  0.00     0.071 A
HETATM   15  C9  UNL     1      -0.096 -17.892 -12.444  1.00  0.00     0.103 A
HETATM   16  C10 UNL     1       1.073 -18.364 -11.915  1.00  0.00     0.134 A
HETATM   17  C11 UNL     1       2.169 -17.495 -11.851  1.00  0.00     0.126 A
HETATM   18  C12 UNL     1       2.072 -16.208 -12.309  1.00  0.00     0.097 A
HETATM   19 CL2  UNL     1       3.524 -15.224 -12.138  1.00  0.00    -0.079 Cl
BRANCH  15  20
HETATM   20  O3  UNL     1      -1.235 -18.697 -12.542  1.00  0.00    -0.358 OA
ATOM     21  H3  UNL     1      -1.765 -18.838 -11.766  1.00  0.00     0.217 HD
ENDBRANCH  15  20
BRANCH  16  22
HETATM   22  O4  UNL     1       1.202 -19.662 -11.444  1.00  0.00    -0.356 OA
ATOM     23  H4  UNL     1       0.667 -20.376 -11.770  1.00  0.00     0.218 HD
ENDBRANCH  16  22
BRANCH  17  24
HETATM   24  O5  UNL     1       3.336 -18.008 -11.309  1.00  0.00    -0.356 OA
ATOM     25  H5  UNL     1       4.057 -18.153 -11.911  1.00  0.00     0.218 HD
ENDBRANCH  17  24
ENDBRANCH   1  13
BRANCH   1  26
HETATM   26  C13 UNL     1       0.897 -14.096 -14.738  1.00  0.00     0.102 C
HETATM   27  C14 UNL     1       1.817 -14.968 -15.514  1.00  0.00     0.026 C
HETATM   28  C15 UNL     1       1.675 -14.552 -16.998  1.00  0.00     0.002 C
HETATM   29  C16 UNL     1       0.387 -15.172 -17.466  1.00  0.00     0.000 C
HETATM   30  C17 UNL     1      -0.589 -15.276 -16.302  1.00  0.00     0.002 C
HETATM   31  C18 UNL     1      -0.424 -14.026 -15.471  1.00  0.00     0.026 C
ENDBRANCH   1  26
TORSDOF 7
ENDMDL