MODEL 5
REMARK VINA RESULT: -8.878094067      2.675      6.159
REMARK  8 active torsions:
REMARK  status: ('A' for Active; 'I' for Inactive)
REMARK    1  A    between atoms: C5_7  and  N2_8
REMARK    2  A    between atoms: N2_8  and  C6_9
REMARK    3  A    between atoms: C12_20  and  N4_21
REMARK    4  A    between atoms: N4_21  and  C13_23
REMARK    5  A    between atoms: C13_23  and  C14_24
REMARK    6  A    between atoms: C16_26  and  O1_27
REMARK    7  A    between atoms: C17_29  and  O2_30
REMARK    8  A    between atoms: C18_32  and  C19_33
ROOT
HETATM    1  C1  UNL     1       1.825 -16.720 -12.296  1.00  0.00     0.091 C
HETATM    2  C2  UNL     1       1.840 -15.287 -12.683  1.00  0.00     0.100 A
HETATM    3  N1  UNL     1       2.512 -14.281 -12.095  1.00  0.00    -0.352 N
ATOM      4  H1  UNL     1       3.118 -14.381 -11.282  1.00  0.00     0.166 HD
HETATM    5  C3  UNL     1       2.268 -13.118 -12.738  1.00  0.00     0.126 A
HETATM    6  C4  UNL     1       1.408 -13.419 -13.769  1.00  0.00     0.132 A
HETATM    7  C5  UNL     1       0.849 -12.556 -14.729  1.00  0.00     0.224 A
HETATM    8  N3  UNL     1       0.016 -13.175 -15.626  1.00  0.00    -0.160 N
ATOM      9  H3  UNL     1      -0.424 -12.609 -16.350  1.00  0.00     0.187 HD
HETATM   10  C12 UNL     1      -0.247 -14.501 -15.593  1.00  0.00     0.699 A
HETATM   11  N5  UNL     1       0.343 -15.232 -14.631  1.00  0.00    -0.123 N
ATOM     12  H5  UNL     1       0.150 -16.233 -14.601  1.00  0.00     0.206 HD
HETATM   13  N6  UNL     1       1.167 -14.722 -13.713  1.00  0.00    -0.224 N
ENDROOT
BRANCH  10  14
HETATM   14  N4  UNL     1      -1.018 -14.967 -16.464  1.00  0.00    -0.200 N
ATOM     15  H4  UNL     1      -1.866 -14.406 -16.546  1.00  0.00     0.183 HD
BRANCH  14  16
HETATM   16  C13 UNL     1      -1.035 -16.041 -17.348  1.00  0.00     0.117 C
BRANCH  16  17
HETATM   17  C14 UNL     1       0.033 -16.006 -18.388  1.00  0.00    -0.017 A
HETATM   18  C15 UNL     1       0.887 -17.052 -18.622  1.00  0.00     0.052 A
HETATM   19  C16 UNL     1       1.890 -17.012 -19.577  1.00  0.00     0.100 A
HETATM   20  C17 UNL     1       2.045 -15.878 -20.332  1.00  0.00     0.105 A
HETATM   21  C18 UNL     1       1.217 -14.808 -20.138  1.00  0.00    -0.018 A
HETATM   22  C22 UNL     1       0.212 -14.860 -19.172  1.00  0.00     0.023 A
BRANCH  19  23
HETATM   23  O1  UNL     1       2.750 -18.107 -19.790  1.00  0.00    -0.358 OA
ATOM     24  H1  UNL     1       3.546 -18.022 -20.302  1.00  0.00     0.217 HD
ENDBRANCH  19  23
BRANCH  20  25
HETATM   25  O2  UNL     1       3.063 -15.853 -21.295  1.00  0.00    -0.357 OA
ATOM     26  H2  UNL     1       2.869 -15.480 -22.147  1.00  0.00     0.217 HD
ENDBRANCH  20  25
BRANCH  21  27
HETATM   27  C19 UNL     1       1.388 -13.591 -20.951  1.00  0.00     0.013 C
HETATM   28  C20 UNL     1       0.135 -13.214 -21.726  1.00  0.00     0.015 C
HETATM   29  C21 UNL     1       1.956 -12.420 -20.191  1.00  0.00     0.015 C
ENDBRANCH  21  27
ENDBRANCH  16  17
ENDBRANCH  14  16
ENDBRANCH  10  14
BRANCH   7  30
HETATM   30  N2  UNL     1       1.095 -11.394 -14.736  1.00  0.00    -0.381 NA
BRANCH  30  31
HETATM   31  C6  UNL     1       1.356 -10.117 -14.758  1.00  0.00     0.153 A
HETATM   32  C7  UNL     1       1.327  -9.346 -13.602  1.00  0.00     0.078 A
HETATM   33 CL1  UNL     1       0.936 -10.132 -12.054  1.00  0.00    -0.081 Cl
HETATM   34  C8  UNL     1       1.581  -8.016 -13.578  1.00  0.00     0.051 A
HETATM   35  C9  UNL     1       1.886  -7.376 -14.746  1.00  0.00     0.037 A
HETATM   36 CL2  UNL     1       2.230  -5.646 -14.765  1.00  0.00    -0.084 Cl
HETATM   37  C10 UNL     1       1.933  -8.069 -15.917  1.00  0.00     0.051 A
HETATM   38  C11 UNL     1       1.675  -9.423 -15.942  1.00  0.00     0.078 A
HETATM   39 CL3  UNL     1       1.747 -10.245 -17.472  1.00  0.00    -0.081 Cl
ENDBRANCH  30  31
ENDBRANCH   7  30
TORSDOF 8
ENDMDL