MODEL 4
REMARK VINA RESULT: -8.199467856      3.306      4.848
REMARK  7 active torsions:
REMARK  status: ('A' for Active; 'I' for Inactive)
REMARK    1  A    between atoms: C2_2  and  C3_3
REMARK    2  A    between atoms: C4_4  and  O1_5
REMARK    3  A    between atoms: C5_7  and  O2_8
REMARK    4  A    between atoms: N1_10  and  C6_11
REMARK    5  A    between atoms: C12_19  and  O3_20
REMARK    6  A    between atoms: N2_24  and  C15_25
REMARK    7  A    between atoms: C15_25  and  C16_26
ROOT
HETATM    1  C3  UNL     1       0.614 -12.486 -13.842  1.00  0.00     0.039 A
HETATM    2  C4  UNL     1       1.039 -11.633 -12.845  1.00  0.00     0.128 A
HETATM    3  C5  UNL     1       1.394 -10.449 -13.433  1.00  0.00     0.184 A
HETATM    4  N1  UNL     1       1.204 -10.538 -14.761  1.00  0.00    -0.270 N
HETATM    5  C12 UNL     1       0.730 -11.774 -15.012  1.00  0.00     0.159 A
ENDROOT
BRANCH   1   6
HETATM    6  C2  UNL     1       0.140 -13.892 -13.605  1.00  0.00    -0.005 C
HETATM    7  C1  UNL     1      -1.024 -13.846 -12.595  1.00  0.00     0.021 C
HETATM    8  C13 UNL     1      -0.427 -14.506 -14.844  1.00  0.00     0.044 C
HETATM    9  C14 UNL     1       0.354 -15.596 -15.475  1.00  0.00     0.275 C
HETATM   10  N2  UNL     1       1.179 -16.379 -14.614  1.00  0.00     0.108 N
HETATM   11  C19 UNL     1       0.913 -16.168 -13.199  1.00  0.00     0.295 C
HETATM   12 BR1  UNL     1       2.141 -17.255 -12.177  1.00  0.00    -0.058 Br
HETATM   13  C20 UNL     1       1.201 -14.711 -12.923  1.00  0.00     0.062 C
BRANCH  10  14
HETATM   14  C15 UNL     1       1.059 -17.796 -14.849  1.00  0.00     0.332 C
BRANCH  14  15
HETATM   15  C16 UNL     1       0.593 -18.093 -16.231  1.00  0.00     0.054 A
HETATM   16  C17 UNL     1      -0.688 -18.541 -16.502  1.00  0.00     0.115 A
HETATM   17  N3  UNL     1      -0.749 -18.706 -17.832  1.00  0.00    -0.360 N
HETATM   18  C18 UNL     1       0.426 -18.385 -18.396  1.00  0.00     0.180 A
ATOM     19  H3  UNL     1      -1.571 -19.029 -18.343  1.00  0.00     0.166 HD
HETATM   20  N4  UNL     1       1.243 -18.008 -17.396  1.00  0.00    -0.353 N
ATOM     21  H4  UNL     1       2.210 -17.704 -17.510  1.00  0.00     0.166 HD
ENDBRANCH  14  15
ENDBRANCH  10  14
ENDBRANCH   1   6
BRANCH   2  22
HETATM   22  O1  UNL     1       1.115 -11.873 -11.481  1.00  0.00    -0.356 OA
ATOM     23  H1  UNL     1       0.443 -12.218 -10.904  1.00  0.00     0.218 HD
ENDBRANCH   2  22
BRANCH   5  24
HETATM   24  O3  UNL     1       0.387 -12.316 -16.258  1.00  0.00    -0.345 OA
ATOM     25  H3  UNL     1      -0.447 -12.141 -16.678  1.00  0.00     0.219 HD
ENDBRANCH   5  24
BRANCH   3  26
HETATM   26  O2  UNL     1       1.880  -9.334 -12.718  1.00  0.00    -0.344 OA
ATOM     27  H2  UNL     1       2.656  -8.846 -12.965  1.00  0.00     0.219 HD
ENDBRANCH   3  26
BRANCH   4  28
HETATM   28  C6  UNL     1       1.464  -9.506 -15.687  1.00  0.00     0.047 A
HETATM   29  C7  UNL     1       1.144  -8.194 -15.335  1.00  0.00     0.054 A
HETATM   30  C8  UNL     1       1.396  -7.180 -16.235  1.00  0.00     0.037 A
HETATM   31 CL1  UNL     1       1.014  -5.531 -15.837  1.00  0.00    -0.084 Cl
HETATM   32  C9  UNL     1       1.954  -7.462 -17.462  1.00  0.00     0.048 A
HETATM   33  C10 UNL     1       2.267  -8.776 -17.797  1.00  0.00     0.037 A
HETATM   34 CL2  UNL     1       2.977  -9.170 -19.347  1.00  0.00    -0.084 Cl
HETATM   35  C11 UNL     1       2.020  -9.787 -16.911  1.00  0.00     0.054 A
ENDBRANCH   4  28
TORSDOF 7
ENDMDL