MODEL 2
REMARK VINA RESULT: -8.044962254      1.729      2.572
REMARK  6 active torsions:
REMARK  status: ('A' for Active; 'I' for Inactive)
REMARK    1  A    between atoms: O1_2  and  C2_3
REMARK    2  A    between atoms: C6_8  and  C7_9
REMARK    3  A    between atoms: N1_10  and  N2_12
REMARK    4  A    between atoms: N2_12  and  C8_14
REMARK    5  A    between atoms: C13_20  and  O2_21
REMARK    6  A    between atoms: C16_27  and  O3_28
ROOT
HETATM    1  C7  UNL     1       0.260 -13.097 -13.639  1.00  0.00     0.122 C
HETATM    2  N1  UNL     1       1.435 -12.574 -13.613  1.00  0.00    -0.310 N
ATOM      3  H1  UNL     1       2.218 -13.173 -13.873  1.00  0.00     0.186 HD
ENDROOT
BRANCH   2   4
HETATM    4  N2  UNL     1       1.724 -11.272 -13.264  1.00  0.00    -0.298 N
ATOM      5  H2  UNL     1       1.950 -11.065 -12.291  1.00  0.00     0.187 HD
BRANCH   4   6
HETATM    6  C8  UNL     1       1.719 -10.211 -14.204  1.00  0.00     0.083 A
HETATM    7  C9  UNL     1       1.913 -10.551 -15.548  1.00  0.00     0.060 A
HETATM    8  C10 UNL     1       1.931  -9.628 -16.553  1.00  0.00     0.063 A
HETATM    9 CL1  UNL     1       2.178 -10.098 -18.239  1.00  0.00    -0.082 Cl
HETATM   10  C11 UNL     1       1.747  -8.308 -16.209  1.00  0.00     0.059 A
HETATM   11  C12 UNL     1       1.555  -7.931 -14.909  1.00  0.00     0.007 A
HETATM   12  N3  UNL     1       1.714  -7.126 -17.018  1.00  0.00    -0.388 N
HETATM   13  C13 UNL     1       1.543  -8.892 -13.912  1.00  0.00     0.102 A
HETATM   14  C14 UNL     1       1.383  -6.456 -14.801  1.00  0.00     0.063 C
HETATM   15  C15 UNL     1       1.206  -6.013 -16.239  1.00  0.00     0.124 C
ATOM     16  H3  UNL     1       2.005  -7.076 -17.994  1.00  0.00     0.159 HD
BRANCH  13  17
HETATM   17  O2  UNL     1       1.347  -8.510 -12.597  1.00  0.00    -0.358 OA
ATOM     18  H2  UNL     1       0.484  -8.229 -12.318  1.00  0.00     0.217 HD
ENDBRANCH  13  17
ENDBRANCH   4   6
ENDBRANCH   2   4
BRANCH   1  19
HETATM   19  C6  UNL     1       0.138 -14.491 -14.034  1.00  0.00     0.023 A
HETATM   20  C4  UNL     1      -0.257 -14.876 -15.300  1.00  0.00    -0.027 A
HETATM   21  C3  UNL     1      -0.375 -16.189 -15.683  1.00  0.00     0.052 A
HETATM   22  C5  UNL     1      -0.566 -13.820 -16.285  1.00  0.00     0.050 C
HETATM   23  C2  UNL     1      -0.090 -17.192 -14.778  1.00  0.00     0.106 A
HETATM   24 BR1  UNL     1      -0.928 -16.638 -17.453  1.00  0.00    -0.048 Br
HETATM   25  C17 UNL     1       0.308 -16.832 -13.502  1.00  0.00     0.079 A
HETATM   26  C16 UNL     1       0.420 -15.495 -13.136  1.00  0.00     0.098 A
HETATM   27 BR2  UNL     1       0.717 -18.162 -12.200  1.00  0.00    -0.045 Br
BRANCH  23  28
HETATM   28  O1  UNL     1      -0.184 -18.523 -15.081  1.00  0.00    -0.353 OA
HETATM   29  C1  UNL     1      -1.364 -19.292 -14.973  1.00  0.00     0.210 C
ENDBRANCH  23  28
BRANCH  26  30
HETATM   30  O3  UNL     1       0.824 -15.171 -11.846  1.00  0.00    -0.358 OA
ATOM     31  H3  UNL     1       0.186 -15.154 -11.144  1.00  0.00     0.217 HD
ENDBRANCH  26  30
ENDBRANCH   1  19
TORSDOF 6
ENDMDL