MODEL 3
REMARK VINA RESULT: -8.397646823      3.040      7.591
REMARK  6 active torsions:
REMARK  status: ('A' for Active; 'I' for Inactive)
REMARK    1  A    between atoms: C6_7  and  O2_8
REMARK    2  A    between atoms: C6_7  and  C7_10
REMARK    3  A    between atoms: C7_10  and  C8_11
REMARK    4  A    between atoms: C8_11  and  N1_12
REMARK       I    between atoms: N1_12  and  C9_14
REMARK    5  A    between atoms: C9_14  and  C10_16
REMARK    6  A    between atoms: C20_34  and  O4_35
ROOT
HETATM    1  C10 UNL     1       0.821 -11.054 -15.202  1.00  0.00     0.157 A
HETATM    2  C11 UNL     1       1.166 -11.622 -16.492  1.00  0.00    -0.011 A
HETATM    3  C12 UNL     1       0.858 -12.952 -16.724  1.00  0.00     0.036 A
HETATM    4  C13 UNL     1       1.170 -13.575 -17.928  1.00  0.00     0.056 A
HETATM    5 CL1  UNL     1       0.782 -15.243 -18.216  1.00  0.00    -0.083 Cl
HETATM    6  C14 UNL     1       1.799 -12.820 -18.889  1.00  0.00     0.058 A
HETATM    7 CL2  UNL     1       2.199 -13.604 -20.419  1.00  0.00    -0.082 Cl
HETATM    8  C15 UNL     1       2.112 -11.509 -18.685  1.00  0.00     0.055 A
HETATM    9  C16 UNL     1       1.797 -10.885 -17.474  1.00  0.00     0.043 A
HETATM   10  N2  UNL     1       2.098  -9.538 -17.294  1.00  0.00    -0.341 N
ATOM     11  H2  UNL     1       2.564  -9.025 -18.041  1.00  0.00     0.167 HD
HETATM   12  C17 UNL     1       1.757  -8.854 -16.062  1.00  0.00     0.121 A
HETATM   13  N3  UNL     1       1.971  -7.592 -15.800  1.00  0.00    -0.326 N
ATOM     14  H3  UNL     1       2.433  -6.999 -16.489  1.00  0.00     0.169 HD
HETATM   15  C18 UNL     1       1.590  -7.090 -14.648  1.00  0.00     0.147 A
HETATM   16 CL3  UNL     1       1.798  -5.407 -14.123  1.00  0.00    -0.056 Cl
HETATM   17  S1  UNL     1       0.891  -8.429 -13.865  1.00  0.00    -0.059 SA
HETATM   18  C19 UNL     1       1.136  -9.601 -15.104  1.00  0.00     0.047 A
ENDROOT
BRANCH   1  19
HETATM   19  C9  UNL     1       1.497 -11.775 -14.102  1.00  0.00     0.231 C
HETATM   20  N1  UNL     1       0.941 -12.762 -13.289  1.00  0.00    -0.360 N
ATOM     21  H1  UNL     1      -0.030 -13.024 -13.458  1.00  0.00     0.162 HD
HETATM   22  O3  UNL     1       2.710 -11.431 -13.904  1.00  0.00    -0.272 OA
BRANCH  20  23
HETATM   23  C8  UNL     1       1.642 -13.438 -12.227  1.00  0.00     0.125 C
BRANCH  23  24
HETATM   24  C7  UNL     1       1.982 -14.822 -12.636  1.00  0.00     0.060 C
BRANCH  24  25
HETATM   25  C6  UNL     1       0.818 -15.770 -12.759  1.00  0.00     0.090 C
HETATM   26  C5  UNL     1       0.948 -16.945 -11.803  1.00  0.00     0.067 C
HETATM   27  C4  UNL     1      -0.265 -17.797 -12.112  1.00  0.00     0.172 C
HETATM   28  O1  UNL     1      -0.066 -18.430 -13.307  1.00  0.00    -0.378 OA
HETATM   29  C2  UNL     1       0.314 -17.656 -14.357  1.00  0.00     0.082 C
HETATM   30  C1  UNL     1       1.614 -18.218 -14.891  1.00  0.00     0.048 C
HETATM   31  C3  UNL     1      -0.731 -17.852 -15.466  1.00  0.00     0.048 C
HETATM   32  C20 UNL     1       0.455 -16.197 -14.117  1.00  0.00     0.186 C
BRANCH  32  33
HETATM   33  O4  UNL     1       1.349 -15.618 -15.033  1.00  0.00    -0.390 OA
ATOM     34  H4  UNL     1       2.028 -15.129 -14.584  1.00  0.00     0.210 HD
ENDBRANCH  32  33
BRANCH  25  35
HETATM   35  O2  UNL     1      -0.286 -15.040 -12.222  1.00  0.00    -0.387 OA
ATOM     36  H2  UNL     1      -0.770 -14.784 -12.997  1.00  0.00     0.210 HD
ENDBRANCH  25  35
ENDBRANCH  24  25
ENDBRANCH  23  24
ENDBRANCH  20  23
ENDBRANCH   1  19
TORSDOF 6
ENDMDL