MODEL 2
REMARK VINA RESULT: -9.541592500      1.482      6.353
REMARK  7 active torsions:
REMARK  status: ('A' for Active; 'I' for Inactive)
REMARK    1  A    between atoms: C8_11  and  O1_12
REMARK    2  A    between atoms: N2_14  and  C9_15
REMARK    3  A    between atoms: C9_15  and  N3_16
REMARK    4  A    between atoms: N4_19  and  C12_20
REMARK    5  A    between atoms: C12_20  and  C13_21
REMARK    6  A    between atoms: C14_22  and  O2_23
REMARK    7  A    between atoms: C21_33  and  O3_34
ROOT
HETATM    1  C1  UNL     1       2.779 -12.943 -19.246  1.00  0.00     0.051 C
HETATM    2  C2  UNL     1       1.426 -13.400 -19.668  1.00  0.00    -0.027 A
HETATM    3  C3  UNL     1       0.974 -13.029 -20.911  1.00  0.00     0.041 A
HETATM    4 CL1  UNL     1       1.909 -12.028 -21.969  1.00  0.00    -0.084 Cl
HETATM    5  C4  UNL     1      -0.253 -13.504 -21.375  1.00  0.00     0.026 A
HETATM    6  C5  UNL     1      -0.991 -14.310 -20.646  1.00  0.00     0.032 A
HETATM    7  C6  UNL     1      -0.568 -14.747 -19.349  1.00  0.00     0.044 A
HETATM    8  N1  UNL     1      -1.093 -15.574 -18.492  1.00  0.00    -0.351 N
ATOM      9  H1  UNL     1      -1.973 -16.078 -18.608  1.00  0.00     0.166 HD
HETATM   10  C7  UNL     1      -0.249 -15.653 -17.391  1.00  0.00     0.100 A
HETATM   11  C8  UNL     1      -0.039 -16.232 -16.152  1.00  0.00     0.174 A
HETATM   12  N2  UNL     1       1.098 -15.749 -15.694  1.00  0.00    -0.278 N
HETATM   13  C21 UNL     1       1.639 -14.891 -16.585  1.00  0.00     0.159 A
HETATM   14  C22 UNL     1       0.824 -14.802 -17.682  1.00  0.00     0.059 A
HETATM   15  C23 UNL     1       0.648 -14.214 -18.952  1.00  0.00     0.015 A
ENDROOT
BRANCH  12  16
HETATM   16  C9  UNL     1       1.684 -16.081 -14.390  1.00  0.00     0.406 C
BRANCH  16  17
HETATM   17  N3  UNL     1       1.118 -15.303 -13.253  1.00  0.00     0.108 N
HETATM   18  C10 UNL     1      -0.090 -14.680 -13.719  1.00  0.00     0.289 C
HETATM   19  C11 UNL     1      -0.341 -13.260 -13.486  1.00  0.00     0.125 C
HETATM   20  N4  UNL     1       0.661 -12.385 -12.994  1.00  0.00    -0.288 NA
HETATM   21  C19 UNL     1       1.442 -13.270 -12.026  1.00  0.00     0.125 C
HETATM   22  C20 UNL     1       2.135 -14.288 -12.862  1.00  0.00     0.289 C
BRANCH  20  23
HETATM   23  C12 UNL     1       1.590 -11.780 -13.849  1.00  0.00     0.075 C
BRANCH  23  24
HETATM   24  C13 UNL     1       1.416 -10.361 -14.350  1.00  0.00     0.031 A
HETATM   25  C14 UNL     1       1.424  -9.404 -13.303  1.00  0.00     0.078 A
HETATM   26  C15 UNL     1       1.612  -8.065 -13.693  1.00  0.00     0.039 A
HETATM   27  C16 UNL     1       1.767  -7.696 -15.005  1.00  0.00     0.028 A
HETATM   28  C17 UNL     1       1.747  -8.639 -15.960  1.00  0.00     0.056 A
HETATM   29 CL2  UNL     1       2.019  -8.097 -17.620  1.00  0.00    -0.083 Cl
HETATM   30  C18 UNL     1       1.571 -10.022 -15.644  1.00  0.00     0.069 A
HETATM   31 CL3  UNL     1       1.606 -11.120 -16.989  1.00  0.00    -0.082 Cl
BRANCH  25  32
HETATM   32  O2  UNL     1       1.265  -9.616 -11.999  1.00  0.00    -0.360 OA
ATOM     33  H2  UNL     1       0.833  -9.056 -11.364  1.00  0.00     0.217 HD
ENDBRANCH  25  32
ENDBRANCH  23  24
ENDBRANCH  20  23
ENDBRANCH  16  17
ENDBRANCH  12  16
BRANCH  11  34
HETATM   34  O1  UNL     1      -0.935 -17.159 -15.604  1.00  0.00    -0.344 OA
ATOM     35  H1  UNL     1      -0.709 -18.075 -15.496  1.00  0.00     0.219 HD
ENDBRANCH  11  34
BRANCH  13  36
HETATM   36  O3  UNL     1       2.822 -14.213 -16.376  1.00  0.00    -0.345 OA
ATOM     37  H3  UNL     1       3.268 -13.710 -17.047  1.00  0.00     0.219 HD
ENDBRANCH  13  36
TORSDOF 7
ENDMDL