MODEL 5
REMARK VINA RESULT: -5.310287348      3.576      5.393
REMARK  10 active torsions:
REMARK  status: ('A' for Active; 'I' for Inactive)
REMARK    1  A    between atoms: N1_1  and  C1_5
REMARK    2  A    between atoms: C1_5  and  C2_6
REMARK    3  A    between atoms: C2_6  and  C3_7
REMARK    4  A    between atoms: C3_7  and  C4_8
REMARK    5  A    between atoms: C4_8  and  C5_9
REMARK    6  A    between atoms: C5_9  and  N2_10
REMARK    7  A    between atoms: N2_10  and  C6_12
REMARK    8  A    between atoms: C7_17  and  N5_18
REMARK    9  A    between atoms: N7_23  and  O1_24
REMARK   10  A    between atoms: O1_24  and  N8_25
ROOT
HETATM    1  C6  UNL     1     -11.853   3.047 -31.657  1.00  0.00     0.733 C
HETATM    2  N3  UNL     1     -11.089   2.595 -32.584  1.00  0.00    -0.131 N
ATOM      3  H3  UNL     1     -11.432   1.907 -33.254  1.00  0.00     0.205 HD
HETATM    4  N4  UNL     1      -9.770   3.073 -32.655  1.00  0.00    -0.277 N
ATOM      5  H4  UNL     1      -9.217   2.942 -33.502  1.00  0.00     0.184 HD
HETATM    6  C7  UNL     1      -9.202   3.758 -31.500  1.00  0.00     0.414 C
HETATM    7  N6  UNL     1     -10.156   4.726 -30.974  1.00  0.00    -0.038 NA
HETATM    8  N7  UNL     1     -11.332   4.013 -30.738  1.00  0.00     0.041 N
ENDROOT
BRANCH   1   9
HETATM    9  N2  UNL     1     -13.194   2.654 -31.474  1.00  0.00    -0.222 N
ATOM     10  H2  UNL     1     -13.476   2.251 -30.581  1.00  0.00     0.177 HD
BRANCH   9  11
HETATM   11  C5  UNL     1     -14.171   2.805 -32.509  1.00  0.00     0.138 C
BRANCH  11  12
HETATM   12  C4  UNL     1     -14.397   1.504 -33.213  1.00  0.00     0.020 C
BRANCH  12  13
HETATM   13  C3  UNL     1     -15.868   1.149 -33.327  1.00  0.00     0.003 C
BRANCH  13  14
HETATM   14  C2  UNL     1     -16.232   0.342 -32.113  1.00  0.00     0.027 C
BRANCH  14  15
HETATM   15  C1  UNL     1     -17.639  -0.211 -32.168  1.00  0.00     0.229 C
BRANCH  15  16
HETATM   16  N1  UNL     1     -18.501   0.824 -32.658  1.00  0.00    -0.079 N
ATOM     17  H13 UNL     1     -18.572   1.615 -32.018  1.00  0.00     0.274 HD
ATOM     18  H12 UNL     1     -18.104   1.327 -33.452  1.00  0.00     0.274 HD
ATOM     19  H11 UNL     1     -19.406   0.404 -32.869  1.00  0.00     0.274 HD
ENDBRANCH  15  16
ENDBRANCH  14  15
ENDBRANCH  13  14
ENDBRANCH  12  13
ENDBRANCH  11  12
ENDBRANCH   9  11
ENDBRANCH   1   9
BRANCH   8  20
HETATM   20  O1  UNL     1     -11.991   4.252 -29.583  1.00  0.00    -0.129 OA
BRANCH  20  21
HETATM   21  N8  UNL     1     -11.253   4.992 -28.732  1.00  0.00    -0.284 N
ATOM     22  H82 UNL     1     -10.789   5.859 -29.001  1.00  0.00     0.186 HD
ATOM     23  H81 UNL     1     -11.222   4.577 -27.801  1.00  0.00     0.186 HD
ENDBRANCH  20  21
ENDBRANCH   8  20
BRANCH   6  24
HETATM   24  N5  UNL     1      -7.982   4.411 -31.837  1.00  0.00    -0.041 N
ATOM     25  H53 UNL     1      -7.206   4.073 -31.267  1.00  0.00     0.278 HD
ATOM     26  H52 UNL     1      -7.640   4.118 -32.753  1.00  0.00     0.278 HD
ATOM     27  H51 UNL     1      -8.077   5.424 -31.780  1.00  0.00     0.278 HD
ENDBRANCH   6  24
TORSDOF 10
ENDMDL