MODEL 4
REMARK VINA RESULT: -5.734638403      1.087      1.348
REMARK  10 active torsions:
REMARK  status: ('A' for Active; 'I' for Inactive)
REMARK    1  A    between atoms: N1_2  and  N2_4
REMARK    2  A    between atoms: C2_6  and  N3_7
REMARK    3  A    between atoms: C2_6  and  C3_12
REMARK    4  A    between atoms: N3_7  and  N4_9
REMARK    5  A    between atoms: C4_15  and  N6_16
REMARK    6  A    between atoms: N8_21  and  C5_22
REMARK    7  A    between atoms: C5_22  and  C6_23
REMARK    8  A    between atoms: C6_23  and  C7_24
REMARK    9  A    between atoms: C7_24  and  N9_25
REMARK   10  A    between atoms: N9_25  and  N10_26
ROOT
HETATM    1  C3  UNL     1      -9.817   4.937 -32.075  1.00  0.00     0.185 A
HETATM    2  N5  UNL     1      -9.360   4.274 -33.177  1.00  0.00    -0.170 N
ATOM      3  H5  UNL     1      -9.763   4.349 -34.111  1.00  0.00     0.186 HD
HETATM    4  C4  UNL     1      -8.308   3.511 -32.857  1.00  0.00     0.692 A
HETATM    5  N7  UNL     1      -8.121   3.710 -31.551  1.00  0.00    -0.129 N
ATOM      6  H7  UNL     1      -7.389   3.266 -30.997  1.00  0.00     0.206 HD
HETATM    7  N8  UNL     1      -9.031   4.576 -31.064  1.00  0.00    -0.259 N
ENDROOT
BRANCH   1   8
HETATM    8  C2  UNL     1     -10.974   5.837 -32.048  1.00  0.00     0.181 C
HETATM    9  N2  UNL     1     -12.140   5.397 -31.839  1.00  0.00    -0.282 N
ATOM     10  H2  UNL     1     -12.227   4.393 -31.691  1.00  0.00     0.188 HD
BRANCH   9  11
HETATM   11  N1  UNL     1     -13.303   6.124 -31.789  1.00  0.00    -0.320 N
HETATM   12  C1  UNL     1     -14.485   5.651 -31.722  1.00  0.00     0.139 C
ATOM     13  H1  UNL     1     -13.213   7.140 -31.807  1.00  0.00     0.185 HD
ENDBRANCH   9  11
BRANCH   8  14
HETATM   14  N3  UNL     1     -10.751   7.206 -32.262  1.00  0.00    -0.288 N
ATOM     15  H3  UNL     1     -10.276   7.761 -31.549  1.00  0.00     0.188 HD
BRANCH  14  16
HETATM   16  N4  UNL     1     -11.171   7.808 -33.436  1.00  0.00    -0.343 N
ATOM     17  H42 UNL     1     -10.563   8.494 -33.884  1.00  0.00     0.176 HD
ATOM     18  H41 UNL     1     -12.075   7.565 -33.843  1.00  0.00     0.176 HD
ENDBRANCH  14  16
ENDBRANCH   8  14
ENDBRANCH   1   8
BRANCH   7  19
HETATM   19  C5  UNL     1      -8.987   4.978 -29.680  1.00  0.00     0.153 C
BRANCH  19  20
HETATM   20  C6  UNL     1      -9.811   4.096 -28.808  1.00  0.00     0.039 C
BRANCH  20  21
HETATM   21  C7  UNL     1     -11.174   4.514 -28.438  1.00  0.00     0.136 C
BRANCH  21  22
HETATM   22  N9  UNL     1     -12.238   4.110 -29.297  1.00  0.00    -0.148 NA
BRANCH  22  23
HETATM   23  N10 UNL     1     -11.901   2.915 -29.943  1.00  0.00    -0.348 N
ATOM     24 2H10 UNL     1     -12.065   1.987 -29.554  1.00  0.00     0.172 HD
ATOM     25 1H10 UNL     1     -11.473   3.117 -30.846  1.00  0.00     0.172 HD
ENDBRANCH  22  23
ENDBRANCH  21  22
ENDBRANCH  20  21
ENDBRANCH  19  20
ENDBRANCH   7  19
BRANCH   4  26
HETATM   26  N6  UNL     1      -7.635   2.754 -33.653  1.00  0.00    -0.233 N
ATOM     27  H62 UNL     1      -7.710   2.680 -34.668  1.00  0.00     0.174 HD
ATOM     28  H61 UNL     1      -6.903   2.094 -33.393  1.00  0.00     0.174 HD
ENDBRANCH   4  26
TORSDOF 10
ENDMDL