MODEL 2
REMARK VINA RESULT: -7.179458900      1.003      1.095
REMARK  4 active torsions:
REMARK  status: ('A' for Active; 'I' for Inactive)
REMARK    1  A    between atoms: C2_3  and  C3_4
REMARK    2  A    between atoms: C3_4  and  C4_5
REMARK    3  A    between atoms: C4_5  and  N2_6
REMARK    4  A    between atoms: N2_6  and  C5_9
ROOT
HETATM    1  C4  UNL     1     -13.230   3.198 -31.949  1.00  0.00     0.240 C
ENDROOT
BRANCH   1   2
HETATM    2  C3  UNL     1     -11.997   3.047 -31.147  1.00  0.00     0.087 C
BRANCH   2   3
HETATM    3  C2  UNL     1     -10.724   3.410 -31.762  1.00  0.00     0.041 A
HETATM    4  C1  UNL     1     -10.093   2.725 -32.761  1.00  0.00     0.136 A
HETATM    5  N1  UNL     1     -10.667   1.560 -33.324  1.00  0.00    -0.094 NA
HETATM    6  C8  UNL     1      -8.852   3.118 -33.276  1.00  0.00     0.272 A
HETATM    7  N8  UNL     1      -8.241   4.211 -32.786  1.00  0.00    -0.318 N
HETATM    8  O1  UNL     1      -8.256   2.498 -34.192  1.00  0.00    -0.266 OA
HETATM    9  C7  UNL     1      -8.858   4.892 -31.803  1.00  0.00     0.183 A
ATOM     10  H8  UNL     1      -7.337   4.515 -33.148  1.00  0.00     0.169 HD
HETATM   11  N7  UNL     1     -10.050   4.516 -31.303  1.00  0.00    -0.354 N
ATOM     12  H7  UNL     1     -10.468   5.073 -30.558  1.00  0.00     0.166 HD
ENDBRANCH   2   3
ENDBRANCH   1   2
BRANCH   1  13
HETATM   13  N2  UNL     1     -13.640   2.061 -32.701  1.00  0.00    -0.054 N
ATOM     14  H22 UNL     1     -13.639   2.261 -33.701  1.00  0.00     0.279 HD
ATOM     15  H21 UNL     1     -12.931   1.329 -32.680  1.00  0.00     0.279 HD
BRANCH  13  16
HETATM   16  C5  UNL     1     -14.893   1.569 -32.280  1.00  0.00     0.314 C
HETATM   17  C6  UNL     1     -15.948   1.315 -33.295  1.00  0.00     0.192 C
HETATM   18  N3  UNL     1     -17.154   0.898 -32.595  1.00  0.00    -0.321 N
HETATM   19  N4  UNL     1     -16.995  -0.038 -31.626  1.00  0.00    -0.234 N
ATOM     20  H3  UNL     1     -18.069   1.289 -32.820  1.00  0.00     0.181 HD
HETATM   21  N5  UNL     1     -15.868  -0.010 -30.852  1.00  0.00    -0.014 NA
ATOM     22  H4  UNL     1     -17.707  -0.754 -31.477  1.00  0.00     0.204 HD
HETATM   23  N6  UNL     1     -14.701   0.308 -31.545  1.00  0.00    -0.090 NA
ENDBRANCH  13  16
ENDBRANCH   1  13
TORSDOF 4
ENDMDL