MODEL 4
REMARK VINA RESULT: -4.540374865      2.236      6.488
REMARK  7 active torsions:
REMARK  status: ('A' for Active; 'I' for Inactive)
REMARK    1  A    between atoms: N1_1  and  C1_5
REMARK    2  A    between atoms: C1_5  and  C2_6
REMARK    3  A    between atoms: C2_6  and  C3_7
REMARK    4  A    between atoms: C3_7  and  N2_8
REMARK    5  A    between atoms: N2_8  and  C4_11
REMARK    6  A    between atoms: C4_11  and  C5_12
REMARK    7  A    between atoms: C8_23  and  O1_24
ROOT
HETATM    1  C5  UNL     1     -13.076   3.246 -32.232  1.00  0.00     0.208 C
HETATM    2  N3  UNL     1     -11.873   2.535 -32.527  1.00  0.00    -0.342 N
ATOM      3  H3  UNL     1     -12.106   1.554 -32.678  1.00  0.00     0.164 HD
HETATM    4  C6  UNL     1     -10.600   2.681 -32.671  1.00  0.00     0.192 C
HETATM    5  N4  UNL     1      -9.852   1.516 -32.990  1.00  0.00    -0.063 NA
HETATM    6  N5  UNL     1      -9.811   3.884 -32.549  1.00  0.00    -0.305 N
ATOM      7  H5  UNL     1      -9.013   3.934 -33.182  1.00  0.00     0.171 HD
HETATM    8  C7  UNL     1      -9.950   4.928 -31.758  1.00  0.00     0.193 C
HETATM    9  N6  UNL     1      -8.974   5.926 -31.925  1.00  0.00    -0.063 NA
HETATM   10  N7  UNL     1     -10.922   5.243 -30.742  1.00  0.00    -0.322 N
ATOM     11  H7  UNL     1     -10.749   6.103 -30.221  1.00  0.00     0.166 HD
HETATM   12  C8  UNL     1     -12.130   4.497 -30.351  1.00  0.00     0.326 C
HETATM   13  N8  UNL     1     -13.020   4.385 -31.426  1.00  0.00    -0.358 N
ATOM     14  H8  UNL     1     -13.649   5.162 -31.628  1.00  0.00     0.159 HD
ENDROOT
BRANCH   1  15
HETATM   15  C4  UNL     1     -14.100   2.270 -31.710  1.00  0.00     0.278 C
BRANCH  15  16
HETATM   16  N2  UNL     1     -15.238   2.142 -32.550  1.00  0.00    -0.071 N
ATOM     17  H22 UNL     1     -15.300   2.925 -33.200  1.00  0.00     0.277 HD
ATOM     18  H21 UNL     1     -16.098   2.293 -32.022  1.00  0.00     0.277 HD
BRANCH  16  19
HETATM   19  C3  UNL     1     -15.283   0.893 -33.250  1.00  0.00     0.234 C
BRANCH  19  20
HETATM   20  C2  UNL     1     -15.304  -0.271 -32.254  1.00  0.00     0.055 C
BRANCH  20  21
HETATM   21  C1  UNL     1     -16.653  -0.277 -31.535  1.00  0.00     0.231 C
BRANCH  21  22
HETATM   22  N1  UNL     1     -16.409  -0.394 -30.133  1.00  0.00    -0.079 N
ATOM     23  H13 UNL     1     -15.415  -0.443 -29.908  1.00  0.00     0.274 HD
ATOM     24  H12 UNL     1     -16.624   0.463 -29.623  1.00  0.00     0.274 HD
ATOM     25  H11 UNL     1     -16.931  -1.200 -29.786  1.00  0.00     0.274 HD
ENDBRANCH  21  22
ENDBRANCH  20  21
ENDBRANCH  19  20
ENDBRANCH  16  19
ENDBRANCH  15  16
ENDBRANCH   1  15
BRANCH  12  26
HETATM   26  O1  UNL     1     -11.793   3.270 -29.827  1.00  0.00    -0.360 OA
ATOM     27  H1  UNL     1     -10.894   3.050 -30.042  1.00  0.00     0.214 HD
ENDBRANCH  12  26
TORSDOF 7
ENDMDL