MODEL 3
REMARK VINA RESULT: -5.962821469      2.264      3.028
REMARK  8 active torsions:
REMARK  status: ('A' for Active; 'I' for Inactive)
REMARK    1  A    between atoms: N1_1  and  C1_4
REMARK    2  A    between atoms: C3_10  and  C4_11
REMARK    3  A    between atoms: C4_11  and  N4_12
REMARK    4  A    between atoms: N4_12  and  C5_14
REMARK    5  A    between atoms: C5_14  and  C6_15
REMARK    6  A    between atoms: C6_15  and  O1_16
REMARK    7  A    between atoms: O1_16  and  N5_17
REMARK    8  A    between atoms: C7_22  and  N7_23
ROOT
HETATM    1  C1  UNL     1     -14.865   2.101 -33.047  1.00  0.00     0.706 A
HETATM    2  N2  UNL     1     -13.679   1.786 -32.498  1.00  0.00    -0.019 N
ATOM      3  H2  UNL     1     -13.262   0.854 -32.508  1.00  0.00     0.203 HD
HETATM    4  C2  UNL     1     -13.109   2.889 -31.925  1.00  0.00     0.735 A
HETATM    5  N3  UNL     1     -11.941   3.068 -31.263  1.00  0.00    -0.175 N
ATOM      6  H3  UNL     1     -11.295   2.293 -31.113  1.00  0.00     0.185 HD
HETATM    7  C3  UNL     1     -11.665   4.297 -30.813  1.00  0.00     0.130 A
HETATM    8  N6  UNL     1     -12.505   5.296 -31.009  1.00  0.00    -0.176 N
ATOM      9  H6  UNL     1     -12.269   6.224 -30.655  1.00  0.00     0.185 HD
HETATM   10  C7  UNL     1     -13.666   5.119 -31.667  1.00  0.00     0.714 A
HETATM   11  N8  UNL     1     -13.985   3.882 -32.143  1.00  0.00     0.105 N
HETATM   12  N9  UNL     1     -15.039   3.410 -32.815  1.00  0.00    -0.096 N
ATOM     13  H9  UNL     1     -15.848   3.959 -33.106  1.00  0.00     0.207 HD
ENDROOT
BRANCH   7  14
HETATM   14  C4  UNL     1     -10.367   4.512 -30.073  1.00  0.00     0.191 C
BRANCH  14  15
HETATM   15  N4  UNL     1      -9.663   5.508 -30.827  1.00  0.00    -0.412 N
ATOM     16  H4  UNL     1      -9.575   6.462 -30.477  1.00  0.00     0.153 HD
BRANCH  15  17
HETATM   17  C5  UNL     1      -9.094   5.138 -32.065  1.00  0.00     0.143 C
BRANCH  17  18
HETATM   18  C6  UNL     1      -8.018   4.097 -31.983  1.00  0.00     0.219 C
BRANCH  18  19
HETATM   19  O1  UNL     1      -7.678   3.597 -33.203  1.00  0.00    -0.286 OA
BRANCH  19  20
HETATM   20  N5  UNL     1      -8.766   3.556 -33.999  1.00  0.00    -0.311 N
ATOM     21  H52 UNL     1      -9.720   3.421 -33.663  1.00  0.00     0.184 HD
ATOM     22  H51 UNL     1      -8.487   3.680 -34.972  1.00  0.00     0.184 HD
ENDBRANCH  19  20
ENDBRANCH  18  19
ENDBRANCH  17  18
ENDBRANCH  15  17
ENDBRANCH  14  15
ENDBRANCH   7  14
BRANCH  10  23
HETATM   23  N7  UNL     1     -14.511   6.051 -31.885  1.00  0.00    -0.232 N
ATOM     24  H72 UNL     1     -15.297   6.115 -31.238  1.00  0.00     0.174 HD
ATOM     25  H71 UNL     1     -14.440   6.713 -32.657  1.00  0.00     0.174 HD
ENDBRANCH  10  23
BRANCH   1  26
HETATM   26  N1  UNL     1     -15.676   1.287 -33.668  1.00  0.00    -0.233 N
ATOM     27  H12 UNL     1     -15.501   0.320 -33.937  1.00  0.00     0.174 HD
ATOM     28  H11 UNL     1     -16.620   1.498 -33.989  1.00  0.00     0.174 HD
ENDBRANCH   1  26
TORSDOF 8
ENDMDL