MODEL 5
REMARK VINA RESULT: -5.234896376      3.076      5.629
REMARK  8 active torsions:
REMARK  status: ('A' for Active; 'I' for Inactive)
REMARK    1  A    between atoms: N1_1  and  C1_4
REMARK    2  A    between atoms: C2_7  and  N3_8
REMARK    3  A    between atoms: N6_16  and  C4_17
REMARK    4  A    between atoms: C4_17  and  C5_18
REMARK    5  A    between atoms: C5_18  and  N7_19
REMARK    6  A    between atoms: N7_19  and  C6_22
REMARK    7  A    between atoms: C6_22  and  C7_23
REMARK    8  A    between atoms: C7_23  and  O1_24
ROOT
HETATM    1  C1  UNL     1      -9.472   3.189 -32.192  1.00  0.00     0.679 A
HETATM    2  N2  UNL     1      -9.145   4.459 -31.859  1.00  0.00    -0.175 N
ATOM      3  H2  UNL     1      -8.172   4.766 -31.855  1.00  0.00     0.186 HD
HETATM    4  C2  UNL     1     -10.135   5.302 -31.534  1.00  0.00     0.147 A
HETATM    5  C3  UNL     1     -11.442   4.854 -31.549  1.00  0.00     0.140 A
HETATM    6  N4  UNL     1     -12.633   5.435 -31.285  1.00  0.00    -0.279 N
ATOM      7  H4  UNL     1     -12.767   6.405 -30.998  1.00  0.00     0.189 HD
HETATM    8  N5  UNL     1     -13.594   4.549 -31.456  1.00  0.00    -0.238 N
ATOM      9  H5  UNL     1     -14.587   4.737 -31.322  1.00  0.00     0.208 HD
HETATM   10  N6  UNL     1     -13.096   3.391 -31.822  1.00  0.00    -0.258 N
HETATM   11  C8  UNL     1     -11.751   3.555 -31.889  1.00  0.00     0.171 A
HETATM   12  N8  UNL     1     -10.738   2.729 -32.213  1.00  0.00    -0.173 N
ATOM     13  H8  UNL     1     -10.928   1.761 -32.473  1.00  0.00     0.186 HD
ENDROOT
BRANCH  10  14
HETATM   14  C4  UNL     1     -13.854   2.180 -32.106  1.00  0.00     0.180 C
BRANCH  14  15
HETATM   15  C5  UNL     1     -14.767   2.527 -33.255  1.00  0.00     0.254 C
BRANCH  15  16
HETATM   16  N7  UNL     1     -15.869   1.585 -33.318  1.00  0.00    -0.072 N
ATOM     17  H72 UNL     1     -16.762   2.055 -33.468  1.00  0.00     0.277 HD
ATOM     18  H71 UNL     1     -15.844   1.030 -34.174  1.00  0.00     0.277 HD
BRANCH  16  19
HETATM   19  C6  UNL     1     -15.892   0.745 -32.128  1.00  0.00     0.258 C
BRANCH  19  20
HETATM   20  C7  UNL     1     -17.229   0.034 -32.082  1.00  0.00     0.191 C
BRANCH  20  21
HETATM   21  O1  UNL     1     -18.253   0.822 -32.590  1.00  0.00    -0.399 OA
ATOM     22  H1  UNL     1     -18.585   0.483 -33.413  1.00  0.00     0.209 HD
ENDBRANCH  20  21
ENDBRANCH  19  20
ENDBRANCH  16  19
ENDBRANCH  15  16
ENDBRANCH  14  15
ENDBRANCH  10  14
BRANCH   4  23
HETATM   23  N3  UNL     1      -9.907   6.541 -31.216  1.00  0.00    -0.383 N
ATOM     24  H32 UNL     1     -10.478   7.269 -31.647  1.00  0.00     0.157 HD
ATOM     25  H31 UNL     1      -9.170   6.804 -30.560  1.00  0.00     0.157 HD
ENDBRANCH   4  23
BRANCH   1  26
HETATM   26  N1  UNL     1      -8.510   2.381 -32.503  1.00  0.00    -0.234 N
ATOM     27  H12 UNL     1      -7.590   2.769 -32.712  1.00  0.00     0.174 HD
ATOM     28  H11 UNL     1      -8.718   1.382 -32.528  1.00  0.00     0.174 HD
ENDBRANCH   1  26
TORSDOF 8
ENDMDL