MODEL 3
REMARK VINA RESULT: -4.426779874      4.394      5.837
REMARK  4 active torsions:
REMARK  status: ('A' for Active; 'I' for Inactive)
REMARK    1  A    between atoms: C1_4  and  N2_5
REMARK       I    between atoms: N2_5  and  C2_7
REMARK       I    between atoms: C2_7  and  N3_8
REMARK       I    between atoms: C2_7  and  N4_12
REMARK       I    between atoms: N4_12  and  C3_14
REMARK       I    between atoms: C3_14  and  N7_20
REMARK    2  A    between atoms: N5_15  and  N6_17
REMARK    3  A    between atoms: C5_22  and  N8_23
REMARK    4  A    between atoms: N8_23  and  N9_25
ROOT
HETATM    1  N2  UNL     1      -8.738   3.660 -33.959  1.00  0.00    -0.343 N
ATOM      2  H2  UNL     1      -8.685   3.863 -34.956  1.00  0.00     0.164 HD
HETATM    3  C2  UNL     1      -9.843   4.144 -33.179  1.00  0.00     0.401 C
HETATM    4  N3  UNL     1     -10.510   2.978 -32.616  1.00  0.00    -0.040 N
ATOM      5  H31 UNL     1     -11.295   3.322 -32.063  1.00  0.00     0.279 HD
ATOM      6  H32 UNL     1      -9.881   2.373 -32.088  1.00  0.00     0.279 HD
ATOM      7  H33 UNL     1     -10.786   2.295 -33.322  1.00  0.00     0.279 HD
HETATM    8  N4  UNL     1      -9.428   5.030 -32.117  1.00  0.00    -0.177 N
ATOM      9  H4  UNL     1      -8.445   5.258 -31.974  1.00  0.00     0.181 HD
HETATM   10  C3  UNL     1     -10.434   5.571 -31.280  1.00  0.00     0.717 C
HETATM   11  N5  UNL     1     -11.095   6.608 -31.698  1.00  0.00    -0.137 N
ATOM     12  H5  UNL     1     -11.823   7.009 -31.107  1.00  0.00     0.205 HD
HETATM   13  N7  UNL     1     -10.767   5.043 -30.002  1.00  0.00    -0.081 N
HETATM   14  C4  UNL     1     -11.855   4.217 -29.504  1.00  0.00     0.233 C
HETATM   15  C5  UNL     1     -11.323   4.520 -28.137  1.00  0.00     0.288 C
HETATM   16  O1  UNL     1     -10.205   5.104 -28.762  1.00  0.00    -0.235 OA
ENDROOT
BRANCH  11  17
HETATM   17  N6  UNL     1     -10.829   7.187 -32.943  1.00  0.00    -0.331 N
ATOM     18  H62 UNL     1     -11.275   8.076 -33.168  1.00  0.00     0.177 HD
ATOM     19  H61 UNL     1     -10.206   6.738 -33.615  1.00  0.00     0.177 HD
ENDBRANCH  11  17
BRANCH   1  20
HETATM   20  C1  UNL     1      -7.728   2.904 -33.335  1.00  0.00     0.171 C
HETATM   21  N1  UNL     1      -7.991   2.016 -32.415  1.00  0.00    -0.395 N
ATOM     22  H12 UNL     1      -8.966   1.878 -32.151  1.00  0.00     0.156 HD
ATOM     23  H11 UNL     1      -7.259   1.469 -31.963  1.00  0.00     0.156 HD
ENDBRANCH   1  20
BRANCH  15  24
HETATM   24  N8  UNL     1     -12.071   5.560 -27.446  1.00  0.00    -0.290 N
ATOM     25  H8  UNL     1     -13.090   5.530 -27.484  1.00  0.00     0.184 HD
BRANCH  24  26
HETATM   26  N9  UNL     1     -11.469   6.581 -26.743  1.00  0.00    -0.251 N
HETATM   27  N10 UNL     1     -10.767   7.453 -27.341  1.00  0.00    -0.331 N
ATOM     28 2H10 UNL     1     -10.657   7.383 -28.353  1.00  0.00     0.178 HD
ATOM     29 1H10 UNL     1     -10.323   8.210 -26.821  1.00  0.00     0.178 HD
ATOM     30  H9  UNL     1     -11.589   6.637 -25.731  1.00  0.00     0.207 HD
ENDBRANCH  24  26
ENDBRANCH  15  24
TORSDOF 4
ENDMDL