MODEL 4
REMARK VINA RESULT: -6.741952849      1.418      1.830
REMARK  8 active torsions:
REMARK  status: ('A' for Active; 'I' for Inactive)
REMARK    1  A    between atoms: N1_2  and  C2_3
REMARK    2  A    between atoms: N1_2  and  O2_8
REMARK    3  A    between atoms: C2_3  and  O1_4
REMARK    4  A    between atoms: O1_4  and  N2_5
REMARK    5  A    between atoms: O2_8  and  N3_9
REMARK    6  A    between atoms: N3_9  and  N4_11
REMARK    7  A    between atoms: N4_11  and  C3_13
REMARK    8  A    between atoms: C4_16  and  N6_17
ROOT
HETATM    1  C3  UNL     1     -10.758   2.508 -32.828  1.00  0.00     0.164 A
HETATM    2  N5  UNL     1     -11.496   3.107 -31.891  1.00  0.00    -0.173 N
ATOM      3  H5  UNL     1     -12.473   2.839 -31.771  1.00  0.00     0.186 HD
HETATM    4  C4  UNL     1     -10.969   4.060 -31.100  1.00  0.00     0.678 A
HETATM    5  N7  UNL     1      -9.677   4.416 -31.254  1.00  0.00    -0.177 N
ATOM      6  H7  UNL     1      -9.285   5.140 -30.651  1.00  0.00     0.185 HD
HETATM    7  C5  UNL     1      -8.895   3.843 -32.181  1.00  0.00     0.160 A
HETATM    8  N8  UNL     1      -7.531   4.185 -32.380  1.00  0.00    -0.080 NA
HETATM    9  C6  UNL     1      -9.440   2.867 -32.989  1.00  0.00     0.133 A
HETATM   10  N9  UNL     1      -8.657   2.214 -34.002  1.00  0.00    -0.095 NA
ENDROOT
BRANCH   1  11
HETATM   11  N4  UNL     1     -11.238   1.581 -33.610  1.00  0.00    -0.262 N
ATOM     12  H4  UNL     1     -10.600   0.898 -34.018  1.00  0.00     0.190 HD
BRANCH  11  13
HETATM   13  N3  UNL     1     -12.600   1.499 -33.904  1.00  0.00    -0.186 N
ATOM     14  H3  UNL     1     -13.065   2.255 -34.405  1.00  0.00     0.218 HD
BRANCH  13  15
HETATM   15  O2  UNL     1     -13.300   0.404 -33.517  1.00  0.00    -0.165 OA
BRANCH  15  16
HETATM   16  N1  UNL     1     -14.597   0.684 -33.602  1.00  0.00    -0.148 NA
HETATM   17  C1  UNL     1     -15.407   0.035 -32.606  1.00  0.00     0.149 C
BRANCH  16  18
HETATM   18  C2  UNL     1     -14.895   2.099 -33.557  1.00  0.00     0.323 C
BRANCH  18  19
HETATM   19  O1  UNL     1     -14.605   2.673 -32.340  1.00  0.00    -0.271 OA
BRANCH  19  20
HETATM   20  N2  UNL     1     -14.690   4.017 -32.451  1.00  0.00    -0.310 N
ATOM     21  H22 UNL     1     -14.021   4.675 -32.048  1.00  0.00     0.184 HD
ATOM     22  H21 UNL     1     -15.519   4.258 -32.994  1.00  0.00     0.184 HD
ENDBRANCH  19  20
ENDBRANCH  18  19
ENDBRANCH  16  18
ENDBRANCH  15  16
ENDBRANCH  13  15
ENDBRANCH  11  13
ENDBRANCH   1  11
BRANCH   4  23
HETATM   23  N6  UNL     1     -11.663   4.664 -30.177  1.00  0.00    -0.234 N
ATOM     24  H62 UNL     1     -12.199   5.489 -30.445  1.00  0.00     0.174 HD
ATOM     25  H61 UNL     1     -11.684   4.340 -29.210  1.00  0.00     0.174 HD
ENDBRANCH   4  23
TORSDOF 8
ENDMDL