MODEL 2
REMARK VINA RESULT: -6.307786047      0.682      1.646
REMARK  8 active torsions:
REMARK  status: ('A' for Active; 'I' for Inactive)
REMARK    1  A    between atoms: N1_1  and  C1_4
REMARK    2  A    between atoms: C2_9  and  S1_10
REMARK    3  A    between atoms: S1_10  and  C3_13
REMARK    4  A    between atoms: C3_13  and  C4_14
REMARK    5  A    between atoms: C4_14  and  N4_15
REMARK    6  A    between atoms: N4_15  and  N5_16
REMARK    7  A    between atoms: N5_16  and  N6_17
REMARK    8  A    between atoms: C5_20  and  N7_21
ROOT
HETATM    1  C1  UNL     1     -13.356   5.758 -31.769  1.00  0.00     0.692 A
HETATM    2  N2  UNL     1     -12.320   6.462 -32.287  1.00  0.00    -0.131 N
ATOM      3  H2  UNL     1     -12.498   7.308 -32.829  1.00  0.00     0.205 HD
HETATM    4  N3  UNL     1     -11.082   6.054 -32.092  1.00  0.00    -0.273 N
ATOM      5  H3  UNL     1     -10.310   6.590 -32.488  1.00  0.00     0.188 HD
HETATM    6  C2  UNL     1     -10.818   4.951 -31.387  1.00  0.00     0.188 A
HETATM    7  C5  UNL     1     -11.862   4.229 -30.856  1.00  0.00     0.154 A
HETATM    8  N8  UNL     1     -13.124   4.642 -31.053  1.00  0.00    -0.173 N
ATOM      9  H8  UNL     1     -13.903   4.112 -30.663  1.00  0.00     0.186 HD
ENDROOT
BRANCH   6  10
HETATM   10  S1  UNL     1      -9.155   4.462 -31.164  1.00  0.00     0.197 S
HETATM   11  O1  UNL     1      -8.213   5.512 -31.635  1.00  0.00    -0.221 OA
HETATM   12  O2  UNL     1      -8.948   4.189 -29.701  1.00  0.00    -0.221 OA
BRANCH  10  13
HETATM   13  C3  UNL     1      -8.929   2.943 -32.064  1.00  0.00     0.165 C
BRANCH  13  14
HETATM   14  C4  UNL     1      -8.937   3.258 -33.555  1.00  0.00     0.147 C
BRANCH  14  15
HETATM   15  N4  UNL     1      -9.702   2.244 -34.257  1.00  0.00    -0.126 NA
BRANCH  15  16
HETATM   16  N5  UNL     1     -10.404   1.416 -33.410  1.00  0.00    -0.039 NA
BRANCH  16  17
HETATM   17  N6  UNL     1     -11.769   1.603 -33.648  1.00  0.00    -0.332 N
ATOM     18  H62 UNL     1     -12.518   1.055 -33.226  1.00  0.00     0.173 HD
ATOM     19  H61 UNL     1     -11.875   2.373 -34.309  1.00  0.00     0.173 HD
ENDBRANCH  16  17
ENDBRANCH  15  16
ENDBRANCH  14  15
ENDBRANCH  13  14
ENDBRANCH  10  13
ENDBRANCH   6  10
BRANCH   7  20
HETATM   20  N7  UNL     1     -11.607   3.153 -30.168  1.00  0.00    -0.383 N
ATOM     21  H72 UNL     1     -11.062   3.196 -29.307  1.00  0.00     0.157 HD
ATOM     22  H71 UNL     1     -11.959   2.254 -30.498  1.00  0.00     0.157 HD
ENDBRANCH   7  20
BRANCH   1  23
HETATM   23  N1  UNL     1     -14.574   6.143 -31.950  1.00  0.00    -0.233 N
ATOM     24  H12 UNL     1     -14.989   6.053 -32.877  1.00  0.00     0.174 HD
ATOM     25  H11 UNL     1     -15.119   6.533 -31.182  1.00  0.00     0.174 HD
ENDBRANCH   1  23
TORSDOF 8
ENDMDL