MODEL 2
REMARK VINA RESULT: 4.169627949      0.615      1.214
REMARK  7 active torsions:
REMARK  status: ('A' for Active; 'I' for Inactive)
REMARK    1  A    between atoms: C6_11  and  C7_12
REMARK    2  A    between atoms: C7_12  and  C8_13
REMARK    3  A    between atoms: C8_13  and  C9_14
REMARK    4  A    between atoms: C13_20  and  N4_21
REMARK    5  A    between atoms: C16_28  and  N7_29
REMARK    6  A    between atoms: C23_36  and  C24_37
REMARK    7  A    between atoms: C24_37  and  C25_38
ROOT
HETATM    1  C9  UNL     1      23.676 -53.295 -33.505  1.00  0.00     0.041 A
HETATM    2  C10 UNL     1      23.699 -54.544 -34.084  1.00  0.00     0.109 A
HETATM    3  N3  UNL     1      24.147 -54.765 -35.322  1.00  0.00    -0.364 N
ATOM      4  H3  UNL     1      24.144 -55.710 -35.707  1.00  0.00     0.165 HD
HETATM    5  C11 UNL     1      24.596 -53.748 -36.049  1.00  0.00     0.045 A
HETATM    6  C12 UNL     1      25.071 -53.976 -37.333  1.00  0.00     0.064 A
HETATM    7  C13 UNL     1      25.556 -52.880 -38.084  1.00  0.00     0.086 A
HETATM    8  C16 UNL     1      25.556 -51.631 -37.558  1.00  0.00     0.060 A
HETATM    9  C21 UNL     1      25.073 -51.404 -36.259  1.00  0.00     0.046 A
HETATM   10  C22 UNL     1      24.595 -52.478 -35.516  1.00  0.00     0.001 A
HETATM   11  C23 UNL     1      24.133 -52.214 -34.220  1.00  0.00    -0.021 A
ENDROOT
BRANCH   1  12
HETATM   12  C8  UNL     1      23.126 -53.102 -32.178  1.00  0.00    -0.059 C
BRANCH  12  13
HETATM   13  C7  UNL     1      22.645 -52.957 -31.067  1.00  0.00    -0.059 C
BRANCH  13  14
HETATM   14  C6  UNL     1      22.051 -52.794 -29.772  1.00  0.00     0.040 A
HETATM   15  C2  UNL     1      21.923 -53.869 -28.927  1.00  0.00     0.025 A
HETATM   16  C1  UNL     1      22.415 -55.224 -29.373  1.00  0.00     0.070 C
HETATM   17  N1  UNL     1      21.373 -53.764 -27.708  1.00  0.00    -0.345 N
HETATM   18  C3  UNL     1      20.927 -52.576 -27.281  1.00  0.00     0.098 A
ATOM     19  H1  UNL     1      21.295 -54.586 -27.109  1.00  0.00     0.167 HD
HETATM   20  N2  UNL     1      20.390 -52.497 -26.081  1.00  0.00    -0.385 N
HETATM   21  C4  UNL     1      21.013 -51.450 -28.057  1.00  0.00     0.049 A
ATOM     22  H22 UNL     1      20.325 -53.335 -25.504  1.00  0.00     0.157 HD
ATOM     23  H21 UNL     1      20.050 -51.592 -25.756  1.00  0.00     0.157 HD
HETATM   24  C5  UNL     1      21.578 -51.561 -29.308  1.00  0.00     0.026 A
ENDBRANCH  13  14
ENDBRANCH  12  13
ENDBRANCH   1  12
BRANCH  11  25
HETATM   25  C24 UNL     1      24.192 -50.878 -33.626  1.00  0.00     0.079 C
BRANCH  25  26
HETATM   26  C25 UNL     1      25.552 -50.285 -33.542  1.00  0.00    -0.051 A
HETATM   27  C26 UNL     1      25.629 -48.882 -33.662  1.00  0.00     0.011 A
HETATM   28  C27 UNL     1      26.853 -48.272 -33.623  1.00  0.00     0.046 A
HETATM   29  C28 UNL     1      27.982 -49.035 -33.468  1.00  0.00     0.154 A
HETATM   30  F1  UNL     1      29.203 -48.440 -33.428  1.00  0.00    -0.203 F
HETATM   31  C29 UNL     1      27.930 -50.400 -33.348  1.00  0.00     0.155 A
HETATM   32  F2  UNL     1      29.069 -51.148 -33.192  1.00  0.00    -0.203 F
HETATM   33  C30 UNL     1      26.685 -51.008 -33.389  1.00  0.00     0.053 A
ENDBRANCH  25  26
ENDBRANCH  11  25
BRANCH   8  34
HETATM   34  N7  UNL     1      26.052 -50.516 -38.246  1.00  0.00    -0.379 N
HETATM   35  C17 UNL     1      27.375 -50.388 -38.813  1.00  0.00     0.123 C
HETATM   36  C18 UNL     1      27.124 -49.735 -40.144  1.00  0.00     0.021 C
HETATM   37  C19 UNL     1      25.882 -48.921 -39.910  1.00  0.00     0.021 C
HETATM   38  C20 UNL     1      25.394 -49.244 -38.538  1.00  0.00     0.123 C
ENDBRANCH   8  34
BRANCH   7  39
HETATM   39  N4  UNL     1      26.016 -53.118 -39.391  1.00  0.00    -0.249 N
HETATM   40  C14 UNL     1      27.207 -53.610 -39.715  1.00  0.00     0.208 A
HETATM   41  N5  UNL     1      27.296 -53.675 -41.055  1.00  0.00    -0.346 N
HETATM   42  C15 UNL     1      26.140 -53.214 -41.575  1.00  0.00     0.199 A
ATOM     43  H5  UNL     1      28.098 -54.013 -41.586  1.00  0.00     0.167 HD
HETATM   44  N6  UNL     1      25.375 -52.880 -40.507  1.00  0.00    -0.288 N
ATOM     45  H6  UNL     1      24.432 -52.497 -40.566  1.00  0.00     0.188 HD
ENDBRANCH   7  39
TORSDOF 7
ENDMDL