MODEL 5
REMARK VINA RESULT: -2.819674136      0.635      1.378
REMARK  6 active torsions:
REMARK  status: ('A' for Active; 'I' for Inactive)
REMARK    1  A    between atoms: N2_5  and  C4_6
REMARK    2  A    between atoms: C7_9  and  N3_10
REMARK    3  A    between atoms: N3_10  and  C8_12
REMARK    4  A    between atoms: C10_18  and  N6_19
REMARK    5  A    between atoms: N6_19  and  C11_21
REMARK    6  A    between atoms: C14_24  and  C15_25
ROOT
HETATM    1  C8  UNL     1      25.332 -51.164 -41.233  1.00  0.00     0.698 A
HETATM    2  N4  UNL     1      25.520 -51.232 -42.564  1.00  0.00    -0.187 N
ATOM      3  H4  UNL     1      25.441 -50.381 -43.121  1.00  0.00     0.185 HD
HETATM    4  C9  UNL     1      25.810 -52.391 -43.180  1.00  0.00     0.215 A
HETATM    5  N5  UNL     1      25.914 -53.505 -42.441  1.00  0.00    -0.187 N
ATOM      6  H5  UNL     1      26.134 -54.389 -42.901  1.00  0.00     0.185 HD
HETATM    7  C10 UNL     1      25.732 -53.483 -41.092  1.00  0.00     0.698 A
HETATM    8  N8  UNL     1      25.441 -52.294 -40.517  1.00  0.00    -0.022 N
ATOM      9  H8  UNL     1      25.301 -52.255 -39.508  1.00  0.00     0.203 HD
ENDROOT
BRANCH   7  10
HETATM   10  N6  UNL     1      25.834 -54.560 -40.401  1.00  0.00    -0.191 N
ATOM     11  H6  UNL     1      25.472 -55.443 -40.760  1.00  0.00     0.184 HD
BRANCH  10  12
HETATM   12  C11 UNL     1      26.455 -54.503 -39.137  1.00  0.00     0.049 A
HETATM   13  C12 UNL     1      25.782 -54.795 -37.971  1.00  0.00     0.031 A
HETATM   14  C13 UNL     1      26.403 -54.736 -36.735  1.00  0.00     0.016 A
HETATM   15  C14 UNL     1      27.727 -54.381 -36.625  1.00  0.00    -0.009 A
HETATM   16  C24 UNL     1      28.413 -54.086 -37.780  1.00  0.00     0.016 A
HETATM   17  C25 UNL     1      27.775 -54.152 -39.002  1.00  0.00     0.031 A
BRANCH  15  18
HETATM   18  C15 UNL     1      28.363 -54.325 -35.311  1.00  0.00     0.043 A
HETATM   19  C16 UNL     1      29.587 -54.890 -35.031  1.00  0.00     0.031 A
HETATM   20  C17 UNL     1      30.057 -54.747 -33.720  1.00  0.00     0.016 A
HETATM   21  C18 UNL     1      29.342 -54.081 -32.759  1.00  0.00    -0.003 A
HETATM   22  C19 UNL     1      29.777 -53.923 -31.456  1.00  0.00     0.056 A
HETATM   23  C23 UNL     1      28.121 -53.533 -33.089  1.00  0.00     0.082 A
HETATM   24  C20 UNL     1      28.982 -53.228 -30.540  1.00  0.00     0.120 A
HETATM   25  F1  UNL     1      29.390 -53.064 -29.272  1.00  0.00    -0.206 F
HETATM   26  C21 UNL     1      27.767 -52.694 -30.907  1.00  0.00     0.086 A
HETATM   27  C22 UNL     1      27.333 -52.847 -32.189  1.00  0.00     0.146 A
HETATM   28  F2  UNL     1      26.132 -52.337 -32.612  1.00  0.00    -0.204 F
HETATM   29  N7  UNL     1      27.681 -53.671 -34.331  1.00  0.00    -0.352 N
ATOM     30  H7  UNL     1      26.777 -53.264 -34.567  1.00  0.00     0.166 HD
ENDBRANCH  15  18
ENDBRANCH  10  12
ENDBRANCH   7  10
BRANCH   1  31
HETATM   31  N3  UNL     1      25.055 -50.057 -40.648  1.00  0.00    -0.191 N
ATOM     32  H3  UNL     1      24.612 -49.321 -41.197  1.00  0.00     0.184 HD
BRANCH  31  33
HETATM   33  C7  UNL     1      25.329 -49.800 -39.285  1.00  0.00     0.049 A
HETATM   34  C6  UNL     1      25.590 -50.825 -38.409  1.00  0.00     0.032 A
HETATM   35  C5  UNL     1      25.860 -50.585 -37.080  1.00  0.00     0.031 A
HETATM   36  C4  UNL     1      25.872 -49.273 -36.592  1.00  0.00     0.030 A
HETATM   37  C27 UNL     1      25.612 -48.253 -37.468  1.00  0.00     0.031 A
HETATM   38  C26 UNL     1      25.338 -48.517 -38.822  1.00  0.00     0.032 A
BRANCH  36  39
HETATM   39  N2  UNL     1      26.152 -48.995 -35.238  1.00  0.00    -0.378 N
HETATM   40  C3  UNL     1      26.624 -47.734 -34.712  1.00  0.00     0.153 C
HETATM   41  C2  UNL     1      28.107 -47.925 -34.432  1.00  0.00     0.291 C
HETATM   42  N1  UNL     1      28.251 -49.186 -33.731  1.00  0.00     0.087 N
HETATM   43  C1  UNL     1      28.944 -50.146 -34.534  1.00  0.00     0.310 C
HETATM   44  C29 UNL     1      27.029 -49.672 -33.147  1.00  0.00     0.291 C
HETATM   45  C28 UNL     1      25.984 -50.040 -34.201  1.00  0.00     0.153 C
ENDBRANCH  36  39
ENDBRANCH  31  33
ENDBRANCH   1  31
TORSDOF 6
ENDMDL