MODEL 1
REMARK VINA RESULT: -8.527970917      0.000      0.000
REMARK  5 active torsions:
REMARK  status: ('A' for Active; 'I' for Inactive)
REMARK    1  A    between atoms: C6_7  and  S1_8
REMARK    2  A    between atoms: C9_13  and  C10_14
REMARK    3  A    between atoms: C11_17  and  N2_18
REMARK    4  A    between atoms: N2_18  and  C12_20
REMARK    5  A    between atoms: C19_35  and  C20_36
ROOT
HETATM    1  C1  UNL     1      24.183 -51.343 -33.910  1.00  0.00     0.018 C
HETATM    2  C2  UNL     1      25.237 -51.933 -33.835  1.00  0.00    -0.077 C
HETATM    3  C3  UNL     1      26.484 -52.626 -33.719  1.00  0.00     0.032 A
HETATM    4  C4  UNL     1      26.926 -52.991 -32.438  1.00  0.00     0.065 A
HETATM    5  C5  UNL     1      28.129 -53.646 -32.305  1.00  0.00     0.139 A
HETATM    6  F1  UNL     1      28.612 -54.026 -31.083  1.00  0.00    -0.204 F
HETATM    7  C6  UNL     1      28.884 -53.937 -33.407  1.00  0.00     0.098 A
HETATM    8  C8  UNL     1      28.418 -53.564 -34.644  1.00  0.00     0.041 A
HETATM    9  C9  UNL     1      27.226 -52.910 -34.831  1.00  0.00     0.012 A
ENDROOT
BRANCH   9  10
HETATM   10  C10 UNL     1      26.748 -52.516 -36.144  1.00  0.00     0.056 A
HETATM   11  N1  UNL     1      26.246 -53.531 -36.898  1.00  0.00    -0.341 N
HETATM   12  C11 UNL     1      25.775 -53.344 -38.128  1.00  0.00     0.107 A
ATOM     13  H1  UNL     1      26.231 -54.473 -36.506  1.00  0.00     0.167 HD
HETATM   14  C17 UNL     1      25.806 -52.043 -38.647  1.00  0.00     0.049 A
HETATM   15  C18 UNL     1      26.304 -51.006 -37.912  1.00  0.00     0.018 A
HETATM   16  C19 UNL     1      26.786 -51.243 -36.632  1.00  0.00     0.002 A
BRANCH  12  17
HETATM   17  N2  UNL     1      25.292 -54.247 -38.834  1.00  0.00    -0.327 N
ATOM     18  H2  UNL     1      24.319 -54.440 -38.593  1.00  0.00     0.169 HD
BRANCH  17  19
HETATM   19  C12 UNL     1      25.740 -55.052 -39.858  1.00  0.00     0.138 A
HETATM   20  N3  UNL     1      25.127 -56.110 -40.403  1.00  0.00    -0.337 N
HETATM   21  C13 UNL     1      25.633 -56.828 -41.411  1.00  0.00     0.183 A
ATOM     22  H3  UNL     1      24.219 -56.384 -40.027  1.00  0.00     0.168 HD
HETATM   23  N4  UNL     1      26.823 -56.533 -41.962  1.00  0.00    -0.337 N
HETATM   24  C14 UNL     1      27.514 -55.478 -41.472  1.00  0.00     0.138 A
ATOM     25  H4  UNL     1      27.197 -57.091 -42.730  1.00  0.00     0.168 HD
HETATM   26  N5  UNL     1      28.702 -54.951 -41.815  1.00  0.00    -0.337 N
HETATM   27  C16 UNL     1      26.990 -54.754 -40.447  1.00  0.00     0.122 A
HETATM   28  C15 UNL     1      28.902 -53.901 -40.996  1.00  0.00     0.182 A
ATOM     29  H5  UNL     1      29.328 -55.280 -42.549  1.00  0.00     0.168 HD
HETATM   30  N6  UNL     1      27.856 -53.769 -40.148  1.00  0.00    -0.346 N
ATOM     31  H6  UNL     1      27.745 -53.060 -39.423  1.00  0.00     0.167 HD
ENDBRANCH  17  19
ENDBRANCH  12  17
BRANCH  16  32
HETATM   32  C20 UNL     1      27.277 -50.129 -35.869  1.00  0.00    -0.024 A
HETATM   33  C21 UNL     1      28.627 -50.100 -35.490  1.00  0.00     0.014 A
HETATM   34  C22 UNL     1      29.141 -49.061 -34.786  1.00  0.00     0.024 A
HETATM   35  C23 UNL     1      28.311 -48.010 -34.440  1.00  0.00     0.034 A
HETATM   36 CL1  UNL     1      28.989 -46.684 -33.538  1.00  0.00    -0.084 Cl
HETATM   37  C24 UNL     1      26.983 -48.022 -34.804  1.00  0.00     0.024 A
HETATM   38  C25 UNL     1      26.454 -49.072 -35.517  1.00  0.00     0.014 A
ENDBRANCH  16  32
ENDBRANCH   9  10
BRANCH   7  39
HETATM   39  S1  UNL     1      30.431 -54.775 -33.227  1.00  0.00     0.174 S
HETATM   40  C7  UNL     1      31.722 -53.604 -32.878  1.00  0.00     0.167 C
HETATM   41  O1  UNL     1      30.266 -55.745 -32.099  1.00  0.00    -0.223 OA
HETATM   42  O2  UNL     1      30.718 -55.481 -34.540  1.00  0.00    -0.223 OA
ENDBRANCH   7  39
TORSDOF 5
ENDMDL