MODEL 2
REMARK VINA RESULT: -3.954723367      0.903      1.006
REMARK  5 active torsions:
REMARK  status: ('A' for Active; 'I' for Inactive)
REMARK    1  A    between atoms: C3_3  and  C4_4
REMARK    2  A    between atoms: C6_8  and  S1_9
REMARK    3  A    between atoms: S1_9  and  N2_10
REMARK    4  A    between atoms: C7_16  and  C8_17
REMARK    5  A    between atoms: N3_25  and  C15_26
ROOT
HETATM    1  C15 UNL     1      26.403 -54.998 -39.265  1.00  0.00     0.040 A
HETATM    2  C16 UNL     1      25.140 -55.361 -39.642  1.00  0.00     0.031 A
HETATM    3  C17 UNL     1      24.906 -56.046 -40.829  1.00  0.00     0.026 A
HETATM    4  C18 UNL     1      25.967 -56.383 -41.668  1.00  0.00     0.062 A
HETATM    5  C19 UNL     1      25.782 -57.087 -42.898  1.00  0.00     0.101 C
HETATM    6  N4  UNL     1      25.618 -57.666 -43.884  1.00  0.00    -0.191 NA
HETATM    7  C20 UNL     1      27.236 -56.023 -41.296  1.00  0.00     0.033 A
HETATM    8 BR1  UNL     1      28.719 -56.467 -42.417  1.00  0.00    -0.049 Br
HETATM    9  C21 UNL     1      27.441 -55.344 -40.118  1.00  0.00     0.050 A
ENDROOT
BRANCH   1  10
HETATM   10  N3  UNL     1      26.718 -54.299 -38.055  1.00  0.00    -0.325 N
HETATM   11  C2  UNL     1      26.504 -53.013 -37.752  1.00  0.00     0.026 A
HETATM   12  C1  UNL     1      25.851 -52.032 -38.657  1.00  0.00     0.070 C
HETATM   13  C3  UNL     1      26.956 -52.702 -36.500  1.00  0.00     0.033 A
HETATM   14  C7  UNL     1      27.488 -53.860 -35.981  1.00  0.00     0.005 A
HETATM   15  C14 UNL     1      27.325 -54.834 -36.967  1.00  0.00     0.110 A
BRANCH  13  16
HETATM   16  C4  UNL     1      26.915 -51.412 -35.781  1.00  0.00     0.088 A
HETATM   17  N1  UNL     1      25.879 -50.740 -35.344  1.00  0.00    -0.357 N
HETATM   18  C5  UNL     1      26.036 -49.616 -34.726  1.00  0.00     0.121 A
ATOM     19  H1  UNL     1      24.940 -51.107 -35.492  1.00  0.00     0.166 HD
HETATM   20  C6  UNL     1      27.313 -49.155 -34.545  1.00  0.00     0.137 A
HETATM   21  S2  UNL     1      28.215 -50.401 -35.292  1.00  0.00    -0.057 SA
BRANCH  20  22
HETATM   22  S1  UNL     1      27.794 -47.670 -33.752  1.00  0.00     0.264 S
HETATM   23  O1  UNL     1      28.866 -47.020 -34.559  1.00  0.00    -0.200 OA
HETATM   24  O2  UNL     1      28.274 -48.018 -32.357  1.00  0.00    -0.200 OA
BRANCH  22  25
HETATM   25  N2  UNL     1      26.463 -46.579 -33.695  1.00  0.00    -0.324 N
ATOM     26  H22 UNL     1      25.679 -46.662 -33.047  1.00  0.00     0.169 HD
ATOM     27  H21 UNL     1      26.581 -45.851 -34.400  1.00  0.00     0.169 HD
ENDBRANCH  22  25
ENDBRANCH  20  22
ENDBRANCH  13  16
BRANCH  14  28
HETATM   28  C8  UNL     1      28.115 -54.099 -34.689  1.00  0.00    -0.023 A
HETATM   29  C9  UNL     1      27.656 -53.464 -33.537  1.00  0.00     0.015 A
HETATM   30  C10 UNL     1      28.197 -53.655 -32.303  1.00  0.00     0.043 A
HETATM   31  C11 UNL     1      29.255 -54.515 -32.142  1.00  0.00     0.116 A
HETATM   32  F1  UNL     1      29.807 -54.720 -30.927  1.00  0.00    -0.206 F
HETATM   33  C12 UNL     1      29.735 -55.163 -33.274  1.00  0.00     0.043 A
HETATM   34  C13 UNL     1      29.188 -54.969 -34.525  1.00  0.00     0.015 A
ENDBRANCH  14  28
ENDBRANCH   1  10
TORSDOF 5
ENDMDL