MODEL 1
REMARK VINA RESULT: 0.328897593      0.000      0.000
REMARK  6 active torsions:
REMARK  status: ('A' for Active; 'I' for Inactive)
REMARK    1  A    between atoms: O1_2  and  C2_3
REMARK    2  A    between atoms: C5_6  and  C6_7
REMARK    3  A    between atoms: C7_8  and  N1_9
REMARK    4  A    between atoms: N2_11  and  O2_12
REMARK    5  A    between atoms: C10_15  and  C11_16
REMARK    6  A    between atoms: C17_25  and  N4_26
ROOT
HETATM    1  N1  UNL     1      27.195 -51.733 -37.382  1.00  0.00    -0.268 N
HETATM    2  C8  UNL     1      27.947 -51.812 -38.486  1.00  0.00     0.225 A
HETATM    3  N2  UNL     1      27.470 -52.797 -39.302  1.00  0.00    -0.214 N
HETATM    4  C9  UNL     1      26.414 -53.359 -38.739  1.00  0.00     0.136 A
HETATM    5  C10 UNL     1      25.583 -54.384 -39.116  1.00  0.00     0.092 A
HETATM    6  N3  UNL     1      24.585 -54.711 -38.236  1.00  0.00    -0.189 N
ATOM      7  H3  UNL     1      23.947 -55.470 -38.478  1.00  0.00     0.184 HD
HETATM    8  C17 UNL     1      24.412 -54.073 -37.067  1.00  0.00     0.678 A
HETATM    9  N5  UNL     1      25.255 -53.057 -36.727  1.00  0.00    -0.174 N
ATOM     10  H5  UNL     1      25.121 -52.573 -35.839  1.00  0.00     0.186 HD
HETATM   11  C18 UNL     1      26.250 -52.682 -37.529  1.00  0.00     0.162 A
ENDROOT
BRANCH   1  12
HETATM   12  C7  UNL     1      27.409 -50.814 -36.321  1.00  0.00     0.169 A
HETATM   13  C6  UNL     1      28.045 -51.112 -35.147  1.00  0.00     0.041 A
HETATM   14  C24 UNL     1      28.059 -49.962 -34.365  1.00  0.00     0.016 A
HETATM   15  C19 UNL     1      27.420 -49.007 -35.120  1.00  0.00     0.089 A
HETATM   16  C23 UNL     1      28.544 -49.650 -33.115  1.00  0.00     0.057 A
HETATM   17  O3  UNL     1      27.056 -49.534 -36.250  1.00  0.00    -0.291 OA
HETATM   18  C20 UNL     1      27.279 -47.746 -34.597  1.00  0.00     0.041 A
HETATM   19  C21 UNL     1      27.770 -47.461 -33.357  1.00  0.00     0.045 A
HETATM   20  C22 UNL     1      28.419 -48.374 -32.552  1.00  0.00     0.117 A
HETATM   21  F1  UNL     1      28.887 -48.075 -31.338  1.00  0.00    -0.206 F
BRANCH  13  22
HETATM   22  C5  UNL     1      28.629 -52.369 -34.714  1.00  0.00    -0.005 A
HETATM   23  C4  UNL     1      29.928 -52.428 -34.193  1.00  0.00     0.018 A
HETATM   24  C3  UNL     1      30.520 -53.582 -33.773  1.00  0.00     0.057 A
HETATM   25  C2  UNL     1      29.806 -54.768 -33.861  1.00  0.00     0.141 A
HETATM   26  N6  UNL     1      28.561 -54.712 -34.360  1.00  0.00    -0.346 N
HETATM   27  C25 UNL     1      27.965 -53.574 -34.780  1.00  0.00     0.102 A
ATOM     28  H6  UNL     1      28.032 -55.581 -34.425  1.00  0.00     0.167 HD
BRANCH  25  29
HETATM   29  O1  UNL     1      30.288 -55.955 -33.475  1.00  0.00    -0.341 OA
HETATM   30  C1  UNL     1      29.820 -57.222 -33.317  1.00  0.00     0.211 C
ENDBRANCH  25  29
ENDBRANCH  13  22
ENDBRANCH   1  12
BRANCH   3  31
HETATM   31  O2  UNL     1      28.052 -53.140 -40.500  1.00  0.00    -0.281 OA
ATOM     32  H2  UNL     1      27.762 -52.805 -41.339  1.00  0.00     0.245 HD
ENDBRANCH   3  31
BRANCH   5  33
HETATM   33  C11 UNL     1      25.692 -55.143 -40.343  1.00  0.00    -0.006 A
HETATM   34  C12 UNL     1      26.133 -56.421 -40.405  1.00  0.00     0.015 A
HETATM   35  C13 UNL     1      26.190 -57.107 -41.616  1.00  0.00     0.020 A
HETATM   36  C14 UNL     1      25.802 -56.504 -42.780  1.00  0.00     0.011 A
HETATM   37 BR1  UNL     1      25.891 -57.480 -44.418  1.00  0.00    -0.051 Br
HETATM   38  C15 UNL     1      25.351 -55.208 -42.752  1.00  0.00     0.020 A
HETATM   39  C16 UNL     1      25.298 -54.544 -41.551  1.00  0.00     0.015 A
ENDBRANCH   5  33
BRANCH   8  40
HETATM   40  N4  UNL     1      23.479 -54.373 -36.235  1.00  0.00    -0.234 N
ATOM     41  H42 UNL     1      23.734 -54.937 -35.425  1.00  0.00     0.174 HD
ATOM     42  H41 UNL     1      22.511 -54.074 -36.355  1.00  0.00     0.174 HD
ENDBRANCH   8  40
TORSDOF 6
ENDMDL