MODEL 5
REMARK VINA RESULT: -7.630639305      1.621      2.383
REMARK  6 active torsions:
REMARK  status: ('A' for Active; 'I' for Inactive)
REMARK    1  A    between atoms: C4_4  and  C5_5
REMARK    2  A    between atoms: C11_14  and  C12_15
REMARK    3  A    between atoms: C12_15  and  O1_16
REMARK    4  A    between atoms: C13_18  and  C14_19
REMARK    5  A    between atoms: C19_26  and  N3_27
REMARK    6  A    between atoms: N3_27  and  C20_29
ROOT
HETATM    1  C14 UNL     1      26.177 -49.551 -35.341  1.00  0.00     0.085 A
HETATM    2  C15 UNL     1      26.020 -48.215 -35.058  1.00  0.00     0.122 A
HETATM    3  N2  UNL     1      25.895 -47.550 -36.196  1.00  0.00    -0.349 N
ATOM      4  H2  UNL     1      25.765 -46.544 -36.297  1.00  0.00     0.167 HD
HETATM    5  C16 UNL     1      25.974 -48.459 -37.201  1.00  0.00     0.127 A
HETATM    6  C17 UNL     1      25.898 -48.236 -38.571  1.00  0.00     0.054 A
HETATM    7  C18 UNL     1      26.011 -49.337 -39.408  1.00  0.00     0.053 A
HETATM    8  C19 UNL     1      26.186 -50.577 -38.867  1.00  0.00     0.120 A
HETATM    9  N6  UNL     1      26.245 -50.716 -37.526  1.00  0.00    -0.277 N
ATOM     10  H6  UNL     1      26.372 -51.647 -37.131  1.00  0.00     0.189 HD
HETATM   11  N7  UNL     1      26.143 -49.671 -36.699  1.00  0.00    -0.236 N
ENDROOT
BRANCH   1  12
HETATM   12  C13 UNL     1      26.277 -50.632 -34.374  1.00  0.00     0.008 A
HETATM   13  C11 UNL     1      27.313 -51.493 -34.281  1.00  0.00     0.011 A
HETATM   14  C4  UNL     1      27.195 -52.714 -33.535  1.00  0.00     0.005 A
HETATM   15  C3  UNL     1      25.994 -52.958 -32.911  1.00  0.00     0.021 A
HETATM   16  C2  UNL     1      24.946 -52.080 -32.998  1.00  0.00    -0.060 A
HETATM   17  C1  UNL     1      23.669 -52.399 -32.295  1.00  0.00     0.048 C
HETATM   18  C29 UNL     1      25.044 -50.910 -33.716  1.00  0.00     0.021 A
BRANCH  13  19
HETATM   19  C12 UNL     1      28.672 -51.235 -34.744  1.00  0.00     0.144 C
BRANCH  19  20
HETATM   20  O1  UNL     1      29.070 -51.480 -36.003  1.00  0.00    -0.372 OA
ATOM     21  H1  UNL     1      29.202 -50.791 -36.643  1.00  0.00     0.216 HD
ENDBRANCH  19  20
ENDBRANCH  13  19
BRANCH  14  22
HETATM   22  C5  UNL     1      28.288 -53.668 -33.497  1.00  0.00     0.049 A
HETATM   23  N1  UNL     1      28.695 -54.439 -34.502  1.00  0.00    -0.362 N
HETATM   24  C6  UNL     1      29.681 -55.336 -34.412  1.00  0.00     0.130 A
ATOM     25  H1  UNL     1      28.224 -54.338 -35.401  1.00  0.00     0.165 HD
HETATM   26  C7  UNL     1      30.353 -55.518 -33.224  1.00  0.00     0.132 A
HETATM   27  F1  UNL     1      31.370 -56.438 -33.090  1.00  0.00    -0.205 F
HETATM   28  C8  UNL     1      29.982 -54.749 -32.129  1.00  0.00     0.052 A
HETATM   29  C9  UNL     1      28.949 -53.829 -32.281  1.00  0.00    -0.031 A
HETATM   30  C10 UNL     1      28.615 -53.050 -31.055  1.00  0.00     0.050 C
ENDBRANCH  14  22
ENDBRANCH   1  12
BRANCH   8  31
HETATM   31  N3  UNL     1      26.333 -51.623 -39.622  1.00  0.00    -0.340 N
ATOM     32  H3  UNL     1      26.903 -51.554 -40.465  1.00  0.00     0.167 HD
BRANCH  31  33
HETATM   33  C20 UNL     1      25.726 -52.841 -39.300  1.00  0.00     0.063 A
HETATM   34  C21 UNL     1      24.674 -52.906 -38.412  1.00  0.00     0.137 A
HETATM   35  N4  UNL     1      24.064 -54.045 -38.068  1.00  0.00    -0.307 N
HETATM   36  N5  UNL     1      24.495 -55.169 -38.611  1.00  0.00    -0.296 N
ATOM     37  H4  UNL     1      23.288 -54.045 -37.405  1.00  0.00     0.186 HD
HETATM   38  C22 UNL     1      23.882 -56.436 -38.260  1.00  0.00     0.178 C
HETATM   39  C23 UNL     1      25.526 -55.188 -39.495  1.00  0.00     0.063 A
HETATM   40  C24 UNL     1      25.920 -56.387 -40.031  1.00  0.00     0.035 A
HETATM   41  C28 UNL     1      26.171 -54.016 -39.864  1.00  0.00     0.023 A
HETATM   42  C25 UNL     1      26.977 -56.405 -40.948  1.00  0.00     0.044 A
HETATM   43  C26 UNL     1      27.613 -55.239 -41.310  1.00  0.00     0.117 A
HETATM   44  F2  UNL     1      28.646 -55.258 -42.212  1.00  0.00    -0.206 F
HETATM   45  C27 UNL     1      27.216 -54.034 -40.772  1.00  0.00     0.058 A
ENDBRANCH  31  33
ENDBRANCH   8  31
TORSDOF 6
ENDMDL