MODEL 2
REMARK VINA RESULT: 1.238394922      1.644      1.954
REMARK  6 active torsions:
REMARK  status: ('A' for Active; 'I' for Inactive)
REMARK    1  A    between atoms: C3_3  and  C4_4
REMARK    2  A    between atoms: C8_9  and  C9_10
REMARK    3  A    between atoms: C12_13  and  C13_14
REMARK    4  A    between atoms: N1_15  and  N2_17
REMARK    5  A    between atoms: N2_17  and  C14_19
REMARK    6  A    between atoms: N5_31  and  C22_32
ROOT
HETATM    1  C1  UNL     1      19.481 -46.748 -25.961  1.00  0.00     0.112 C
HETATM    2  C2  UNL     1      19.547 -48.170 -26.288  1.00  0.00    -0.105 C
HETATM    3  C3  UNL     1      19.619 -49.340 -26.566  1.00  0.00    -0.067 C
ENDROOT
BRANCH   3   4
HETATM    4  C4  UNL     1      19.722 -50.746 -26.920  1.00  0.00     0.021 A
HETATM    5  C5  UNL     1      19.007 -51.681 -26.202  1.00  0.00     0.062 A
HETATM    6  C6  UNL     1      19.137 -53.004 -26.577  1.00  0.00     0.118 A
HETATM    7  F1  UNL     1      18.441 -53.967 -25.888  1.00  0.00    -0.206 F
HETATM    8  C7  UNL     1      19.925 -53.437 -27.607  1.00  0.00     0.054 A
HETATM    9  C8  UNL     1      20.639 -52.499 -28.321  1.00  0.00    -0.020 A
HETATM   10  C29 UNL     1      20.526 -51.154 -27.964  1.00  0.00     0.033 A
BRANCH   9  11
HETATM   11  C9  UNL     1      21.500 -52.871 -29.427  1.00  0.00    -0.010 A
HETATM   12  C10 UNL     1      21.716 -54.190 -29.730  1.00  0.00     0.016 A
HETATM   13  C11 UNL     1      22.537 -54.549 -30.784  1.00  0.00     0.032 A
HETATM   14  C12 UNL     1      23.157 -53.588 -31.558  1.00  0.00     0.049 A
HETATM   15  N6  UNL     1      22.932 -52.300 -31.245  1.00  0.00    -0.364 N
HETATM   16  C28 UNL     1      22.131 -51.925 -30.213  1.00  0.00     0.100 A
ATOM     17  H6  UNL     1      23.382 -51.575 -31.803  1.00  0.00     0.165 HD
BRANCH  14  18
HETATM   18  C13 UNL     1      24.019 -53.980 -32.666  1.00  0.00     0.137 C
HETATM   19  N1  UNL     1      24.797 -53.132 -33.248  1.00  0.00    -0.295 N
ATOM     20  H1  UNL     1      24.795 -52.168 -32.913  1.00  0.00     0.186 HD
BRANCH  19  21
HETATM   21  N2  UNL     1      25.631 -53.456 -34.301  1.00  0.00    -0.132 N
ATOM     22  H2  UNL     1      26.406 -54.085 -34.090  1.00  0.00     0.205 HD
BRANCH  21  23
HETATM   23  C14 UNL     1      25.540 -53.055 -35.503  1.00  0.00     0.707 A
HETATM   24  N3  UNL     1      24.967 -53.822 -36.449  1.00  0.00    -0.189 N
HETATM   25  C15 UNL     1      24.859 -53.411 -37.746  1.00  0.00     0.065 A
ATOM     26  H3  UNL     1      24.602 -54.739 -36.189  1.00  0.00     0.184 HD
HETATM   27  C16 UNL     1      24.270 -54.204 -38.706  1.00  0.00     0.033 A
HETATM   28  C20 UNL     1      25.366 -52.162 -38.056  1.00  0.00     0.062 A
HETATM   29  C17 UNL     1      24.175 -53.763 -40.008  1.00  0.00     0.029 A
HETATM   30  C18 UNL     1      24.678 -52.504 -40.357  1.00  0.00     0.047 A
HETATM   31  N4  UNL     1      24.573 -52.061 -41.703  1.00  0.00    -0.102 NA
HETATM   32  C19 UNL     1      25.259 -51.749 -39.359  1.00  0.00     0.046 A
HETATM   33  C21 UNL     1      25.946 -51.411 -37.053  1.00  0.00     0.279 A
HETATM   34  O1  UNL     1      26.405 -50.278 -37.335  1.00  0.00    -0.266 OA
HETATM   35  N5  UNL     1      26.048 -51.825 -35.777  1.00  0.00    -0.109 N
BRANCH  35  36
HETATM   36  C22 UNL     1      26.650 -51.030 -34.762  1.00  0.00     0.060 A
HETATM   37  C23 UNL     1      25.975 -49.941 -34.256  1.00  0.00     0.032 A
HETATM   38  C24 UNL     1      26.521 -49.138 -33.268  1.00  0.00     0.026 A
HETATM   39  C25 UNL     1      27.766 -49.407 -32.756  1.00  0.00     0.034 A
HETATM   40 CL1  UNL     1      28.482 -48.395 -31.493  1.00  0.00    -0.084 Cl
HETATM   41  C26 UNL     1      28.449 -50.492 -33.254  1.00  0.00     0.026 A
HETATM   42  C27 UNL     1      27.899 -51.287 -34.237  1.00  0.00     0.032 A
ENDBRANCH  35  36
ENDBRANCH  21  23
ENDBRANCH  19  21
ENDBRANCH  14  18
ENDBRANCH   9  11
ENDBRANCH   3   4
TORSDOF 6
ENDMDL