MODEL 3
REMARK VINA RESULT: -6.805722292      1.006      1.059
REMARK  7 active torsions:
REMARK  status: ('A' for Active; 'I' for Inactive)
REMARK    1  A    between atoms: O1_2  and  C2_3
REMARK    2  A    between atoms: C3_4  and  O2_5
REMARK    3  A    between atoms: C7_10  and  N1_11
REMARK    4  A    between atoms: N1_11  and  C8_13
REMARK    5  A    between atoms: C15_24  and  N4_25
REMARK    6  A    between atoms: N4_25  and  C16_27
REMARK    7  A    between atoms: C21_34  and  O3_35
ROOT
HETATM    1  C8  UNL     1      26.951 -54.149 -39.462  1.00  0.00     0.056 A
HETATM    2  C9  UNL     1      27.873 -54.642 -40.361  1.00  0.00     0.054 A
HETATM    3  C10 UNL     1      27.690 -55.856 -41.012  1.00  0.00     0.036 A
HETATM    4 CL1  UNL     1      28.886 -56.430 -42.136  1.00  0.00    -0.084 Cl
HETATM    5  C11 UNL     1      26.572 -56.613 -40.776  1.00  0.00     0.025 A
HETATM    6  C12 UNL     1      25.636 -56.136 -39.878  1.00  0.00     0.027 A
HETATM    7  C13 UNL     1      25.829 -54.928 -39.238  1.00  0.00     0.071 A
HETATM    8  C14 UNL     1      24.865 -54.406 -38.293  1.00  0.00     0.102 C
HETATM    9  N2  UNL     1      24.094 -54.000 -37.520  1.00  0.00    -0.191 NA
ENDROOT
BRANCH   1  10
HETATM   10  N1  UNL     1      27.120 -52.908 -38.785  1.00  0.00    -0.340 N
ATOM     11  H1  UNL     1      27.058 -52.041 -39.318  1.00  0.00     0.167 HD
BRANCH  10  12
HETATM   12  C7  UNL     1      27.351 -52.851 -37.505  1.00  0.00     0.135 A
HETATM   13  C6  UNL     1      26.886 -51.748 -36.820  1.00  0.00     0.059 A
HETATM   14  C5  UNL     1      26.197 -50.724 -37.432  1.00  0.00     0.063 A
HETATM   15  C20 UNL     1      27.126 -51.668 -35.439  1.00  0.00     0.101 A
HETATM   16  C3  UNL     1      25.748 -49.642 -36.723  1.00  0.00     0.122 A
HETATM   17 BR1  UNL     1      25.866 -50.820 -39.295  1.00  0.00    -0.047 Br
HETATM   18  C2  UNL     1      25.996 -49.577 -35.346  1.00  0.00     0.139 A
HETATM   19  C21 UNL     1      26.683 -50.588 -34.709  1.00  0.00     0.132 A
HETATM   20  N5  UNL     1      27.800 -52.678 -34.860  1.00  0.00    -0.188 N
HETATM   21  C15 UNL     1      28.260 -53.758 -35.516  1.00  0.00     0.680 A
ATOM     22  H5  UNL     1      27.975 -52.620 -33.857  1.00  0.00     0.184 HD
HETATM   23  N3  UNL     1      28.019 -53.820 -36.852  1.00  0.00    -0.176 N
ATOM     24  H3  UNL     1      28.355 -54.628 -37.377  1.00  0.00     0.186 HD
BRANCH  16  25
HETATM   25  O2  UNL     1      25.064 -48.640 -37.369  1.00  0.00    -0.352 OA
HETATM   26  C4  UNL     1      25.754 -47.789 -38.240  1.00  0.00     0.210 C
ENDBRANCH  16  25
BRANCH  18  27
HETATM   27  O1  UNL     1      25.539 -48.478 -34.629  1.00  0.00    -0.351 OA
HETATM   28  C1  UNL     1      26.365 -47.382 -34.322  1.00  0.00     0.210 C
ENDBRANCH  18  27
BRANCH  19  29
HETATM   29  O3  UNL     1      26.912 -50.497 -33.352  1.00  0.00    -0.351 OA
HETATM   30  C22 UNL     1      28.070 -49.995 -32.761  1.00  0.00     0.210 C
ENDBRANCH  19  29
BRANCH  21  31
HETATM   31  N4  UNL     1      28.897 -54.726 -35.002  1.00  0.00    -0.218 N
ATOM     32  H4  UNL     1      28.890 -55.595 -35.536  1.00  0.00     0.178 HD
BRANCH  31  33
HETATM   33  C16 UNL     1      29.623 -54.758 -33.774  1.00  0.00     0.036 C
HETATM   34  C17 UNL     1      28.698 -54.609 -32.580  1.00  0.00     0.038 C
HETATM   35  C18 UNL     1      30.764 -53.747 -33.724  1.00  0.00     0.038 C
HETATM   36  C19 UNL     1      30.245 -56.154 -33.664  1.00  0.00     0.038 C
ENDBRANCH  31  33
ENDBRANCH  21  31
ENDBRANCH  10  12
ENDBRANCH   1  10
TORSDOF 7
ENDMDL