MODEL 1
REMARK VINA RESULT: -6.487309133      0.000      0.000
REMARK  4 active torsions:
REMARK  status: ('A' for Active; 'I' for Inactive)
REMARK       I    between atoms: N1_2  and  C2_4
REMARK       I    between atoms: C2_4  and  N4_9
REMARK    1  A    between atoms: N4_9  and  C4_11
REMARK    2  A    between atoms: C7_14  and  N5_15
REMARK    3  A    between atoms: C9_17  and  C10_18
REMARK    4  A    between atoms: C10_18  and  N6_19
ROOT
HETATM    1  C1  UNL     1      25.868 -56.570 -43.742  1.00  0.00     0.165 C
HETATM    2  N1  UNL     1      25.573 -55.821 -42.524  1.00  0.00    -0.230 N
ATOM      3  H1  UNL     1      25.222 -54.867 -42.612  1.00  0.00     0.177 HD
HETATM    4  C2  UNL     1      25.752 -56.360 -41.224  1.00  0.00     0.687 C
HETATM    5  N2  UNL     1      26.955 -56.672 -40.872  1.00  0.00    -0.126 N
ATOM      6  H2  UNL     1      27.109 -57.061 -39.942  1.00  0.00     0.197 HD
HETATM    7  C3  UNL     1      28.056 -56.497 -41.716  1.00  0.00     0.196 C
HETATM    8  N3  UNL     1      28.980 -56.349 -42.400  1.00  0.00    -0.171 NA
HETATM    9  N4  UNL     1      24.671 -56.561 -40.326  1.00  0.00    -0.191 N
ATOM     10  H4  UNL     1      23.996 -57.299 -40.520  1.00  0.00     0.184 HD
ENDROOT
BRANCH   9  11
HETATM   11  C4  UNL     1      24.504 -55.759 -39.160  1.00  0.00     0.052 A
HETATM   12  C5  UNL     1      23.668 -56.127 -38.133  1.00  0.00     0.032 A
HETATM   13  C6  UNL     1      23.508 -55.338 -36.995  1.00  0.00     0.037 A
HETATM   14  C7  UNL     1      24.186 -54.162 -36.870  1.00  0.00     0.096 A
HETATM   15  C23 UNL     1      25.031 -53.792 -37.912  1.00  0.00     0.147 A
HETATM   16  F1  UNL     1      25.728 -52.614 -37.813  1.00  0.00    -0.204 F
HETATM   17  C24 UNL     1      25.188 -54.578 -39.040  1.00  0.00     0.074 A
BRANCH  14  18
HETATM   18  N5  UNL     1      24.087 -53.294 -35.749  1.00  0.00    -0.248 N
HETATM   19  C8  UNL     1      25.141 -52.991 -34.940  1.00  0.00     0.146 A
HETATM   20  C9  UNL     1      24.723 -52.130 -33.952  1.00  0.00     0.063 A
HETATM   21  N7  UNL     1      23.416 -51.927 -34.183  1.00  0.00    -0.287 N
HETATM   22  N8  UNL     1      23.077 -52.631 -35.253  1.00  0.00    -0.236 N
ATOM     23  H7  UNL     1      22.794 -51.336 -33.632  1.00  0.00     0.188 HD
ATOM     24  H8  UNL     1      22.136 -52.654 -35.644  1.00  0.00     0.209 HD
BRANCH  20  25
HETATM   25  C10 UNL     1      25.516 -51.535 -32.854  1.00  0.00     0.189 C
BRANCH  25  26
HETATM   26  N6  UNL     1      26.851 -51.189 -33.249  1.00  0.00    -0.340 N
HETATM   27  C11 UNL     1      27.250 -49.961 -33.629  1.00  0.00     0.046 A
HETATM   28  C12 UNL     1      26.585 -48.740 -33.755  1.00  0.00     0.030 A
HETATM   29  C16 UNL     1      28.602 -49.970 -33.946  1.00  0.00     0.003 A
HETATM   30  C13 UNL     1      27.252 -47.609 -34.175  1.00  0.00     0.002 A
HETATM   31  C14 UNL     1      28.591 -47.651 -34.481  1.00  0.00     0.001 A
HETATM   32  C15 UNL     1      29.265 -48.840 -34.365  1.00  0.00     0.014 A
HETATM   33  C17 UNL     1      28.996 -51.293 -33.731  1.00  0.00     0.003 A
HETATM   34  C18 UNL     1      30.244 -51.859 -33.896  1.00  0.00     0.016 A
HETATM   35  C22 UNL     1      27.922 -52.037 -33.306  1.00  0.00     0.047 A
HETATM   36  C19 UNL     1      30.406 -53.208 -33.620  1.00  0.00     0.020 A
HETATM   37  C20 UNL     1      29.323 -53.941 -33.195  1.00  0.00     0.013 A
HETATM   38 BR1  UNL     1      29.591 -55.809 -32.825  1.00  0.00    -0.051 Br
HETATM   39  C21 UNL     1      28.084 -53.371 -33.035  1.00  0.00     0.049 A
ENDBRANCH  25  26
ENDBRANCH  20  25
ENDBRANCH  14  18
ENDBRANCH   9  11
TORSDOF 4
ENDMDL