MODEL 2
REMARK VINA RESULT: -4.751727622      2.790      6.603
REMARK  5 active torsions:
REMARK  status: ('A' for Active; 'I' for Inactive)
REMARK    1  A    between atoms: C5_6  and  C6_7
REMARK    2  A    between atoms: C6_7  and  O1_8
REMARK    3  A    between atoms: C6_7  and  C7_10
REMARK    4  A    between atoms: C6_7  and  C13_17
REMARK    5  A    between atoms: C18_24  and  N3_25
ROOT
HETATM    1  C6  UNL     1      26.427 -54.161 -38.228  1.00  0.00     0.140 C
ENDROOT
BRANCH   1   2
HETATM    2  C5  UNL     1      27.238 -54.262 -36.992  1.00  0.00    -0.014 A
HETATM    3  C4  UNL     1      28.367 -55.049 -36.927  1.00  0.00     0.013 A
HETATM    4  C3  UNL     1      29.122 -55.122 -35.758  1.00  0.00     0.031 A
HETATM    5  C2  UNL     1      28.766 -54.412 -34.631  1.00  0.00     0.045 A
HETATM    6  N1  UNL     1      29.344 -54.332 -33.415  1.00  0.00    -0.349 N
HETATM    7  C26 UNL     1      27.635 -53.621 -34.694  1.00  0.00     0.004 A
HETATM    8  C1  UNL     1      30.540 -55.009 -32.956  1.00  0.00     0.156 C
HETATM    9  C31 UNL     1      28.586 -53.490 -32.692  1.00  0.00     0.061 A
HETATM   10  C27 UNL     1      27.530 -53.038 -33.450  1.00  0.00     0.006 A
HETATM   11  C30 UNL     1      28.728 -53.051 -31.378  1.00  0.00     0.118 A
HETATM   12  C28 UNL     1      26.642 -52.159 -32.880  1.00  0.00     0.031 A
HETATM   13  C29 UNL     1      26.812 -51.739 -31.561  1.00  0.00     0.088 A
HETATM   14  N5  UNL     1      27.853 -52.194 -30.835  1.00  0.00    -0.373 N
ATOM     15  H5  UNL     1      27.975 -51.885 -29.871  1.00  0.00     0.164 HD
HETATM   16  C25 UNL     1      26.886 -53.552 -35.860  1.00  0.00     0.025 A
ENDBRANCH   1   2
BRANCH   1  17
HETATM   17  O1  UNL     1      25.202 -54.852 -38.005  1.00  0.00    -0.376 OA
ATOM     18  H1  UNL     1      25.384 -55.594 -37.440  1.00  0.00     0.211 HD
ENDBRANCH   1  17
BRANCH   1  19
HETATM   19  C7  UNL     1      27.051 -54.760 -39.419  1.00  0.00    -0.015 A
HETATM   20  C8  UNL     1      26.474 -55.893 -40.021  1.00  0.00     0.014 A
HETATM   21  C9  UNL     1      27.035 -56.488 -41.127  1.00  0.00     0.043 A
HETATM   22  C10 UNL     1      28.186 -55.998 -41.694  1.00  0.00     0.116 A
HETATM   23  F1  UNL     1      28.764 -56.557 -42.780  1.00  0.00    -0.206 F
HETATM   24  C11 UNL     1      28.777 -54.893 -41.134  1.00  0.00     0.043 A
HETATM   25  C12 UNL     1      28.199 -54.315 -40.028  1.00  0.00     0.014 A
ENDBRANCH   1  19
BRANCH   1  26
HETATM   26  C13 UNL     1      26.020 -52.762 -38.503  1.00  0.00    -0.011 A
HETATM   27  C14 UNL     1      25.390 -52.414 -39.649  1.00  0.00     0.028 A
HETATM   28  C15 UNL     1      25.026 -51.113 -39.892  1.00  0.00     0.097 A
HETATM   29  N2  UNL     1      25.306 -50.165 -38.956  1.00  0.00    -0.328 N
HETATM   30  C16 UNL     1      25.079 -48.837 -38.911  1.00  0.00     0.141 A
HETATM   31  C23 UNL     1      25.928 -50.476 -37.809  1.00  0.00     0.069 A
HETATM   32  C17 UNL     1      25.562 -48.328 -37.733  1.00  0.00     0.161 A
HETATM   33  F2  UNL     1      25.496 -47.005 -37.360  1.00  0.00    -0.202 F
HETATM   34  C18 UNL     1      26.110 -49.357 -37.010  1.00  0.00     0.098 A
HETATM   35  C24 UNL     1      26.295 -51.788 -37.564  1.00  0.00     0.043 A
BRANCH  34  36
HETATM   36  N3  UNL     1      26.729 -49.315 -35.734  1.00  0.00    -0.373 N
HETATM   37  C19 UNL     1      26.014 -48.628 -34.650  1.00  0.00     0.150 C
HETATM   38  C20 UNL     1      26.901 -47.654 -33.922  1.00  0.00     0.252 C
HETATM   39  N4  UNL     1      28.296 -47.850 -34.202  1.00  0.00    -0.072 N
HETATM   40  C21 UNL     1      28.690 -49.227 -34.282  1.00  0.00     0.252 C
ATOM     41  H42 UNL     1      28.564 -47.351 -35.050  1.00  0.00     0.277 HD
ATOM     42  H41 UNL     1      28.869 -47.352 -33.521  1.00  0.00     0.277 HD
HETATM   43  C22 UNL     1      28.012 -49.908 -35.444  1.00  0.00     0.150 C
ENDBRANCH  34  36
ENDBRANCH   1  26
TORSDOF 5
ENDMDL