MODEL 1
REMARK VINA RESULT: -8.080818450      0.000      0.000
REMARK  5 active torsions:
REMARK  status: ('A' for Active; 'I' for Inactive)
REMARK    1  A    between atoms: N1_2  and  C2_4
REMARK    2  A    between atoms: C3_7  and  N3_8
REMARK    3  A    between atoms: N3_8  and  C4_10
REMARK    4  A    between atoms: C8_19  and  N7_20
REMARK    5  A    between atoms: N7_20  and  C9_22
ROOT
HETATM    1  C2  UNL     1       3.584  30.550 -10.387  1.00  0.00     0.706 A
HETATM    2  N2  UNL     1       4.925  30.541 -10.642  1.00  0.00    -0.021 N
ATOM      3  H2  UNL     1       5.314  29.861 -11.295  1.00  0.00     0.203 HD
HETATM    4  C3  UNL     1       5.732  31.426 -10.032  1.00  0.00     0.713 A
HETATM    5  N6  UNL     1       5.179  32.303  -9.180  1.00  0.00    -0.021 N
ATOM      6  H6  UNL     1       5.787  32.977  -8.714  1.00  0.00     0.203 HD
HETATM    7  C8  UNL     1       3.862  32.336  -8.910  1.00  0.00     0.711 A
HETATM    8  N8  UNL     1       3.074  31.444  -9.528  1.00  0.00    -0.021 N
ATOM      9  H8  UNL     1       2.071  31.445  -9.342  1.00  0.00     0.203 HD
ENDROOT
BRANCH   7  10
HETATM   10  N7  UNL     1       3.399  33.209  -8.077  1.00  0.00    -0.190 N
ATOM     11  H7  UNL     1       2.808  33.957  -8.438  1.00  0.00     0.184 HD
BRANCH  10  12
HETATM   12  C9  UNL     1       3.670  33.180  -6.694  1.00  0.00     0.056 A
HETATM   13  C10 UNL     1       3.033  32.255  -5.894  1.00  0.00     0.031 A
HETATM   14  C11 UNL     1       3.268  32.192  -4.537  1.00  0.00     0.014 A
HETATM   15  C12 UNL     1       4.167  33.079  -3.951  1.00  0.00    -0.025 A
HETATM   16  C13 UNL     1       4.432  33.053  -2.605  1.00  0.00     0.012 A
HETATM   17  C17 UNL     1       4.821  34.017  -4.727  1.00  0.00    -0.018 A
HETATM   18  C14 UNL     1       5.326  33.925  -1.991  1.00  0.00     0.001 A
HETATM   19  C15 UNL     1       5.978  34.865  -2.777  1.00  0.00     0.001 A
HETATM   20  C16 UNL     1       5.708  34.886  -4.129  1.00  0.00     0.013 A
HETATM   21  C18 UNL     1       4.556  34.045  -6.086  1.00  0.00    -0.024 A
HETATM   22  C19 UNL     1       5.248  35.040  -6.914  1.00  0.00     0.051 C
ENDBRANCH  10  12
ENDBRANCH   7  10
BRANCH   4  23
HETATM   23  N3  UNL     1       6.996  31.423 -10.266  1.00  0.00    -0.174 N
ATOM     24  H3  UNL     1       7.405  32.134 -10.872  1.00  0.00     0.186 HD
BRANCH  23  25
HETATM   25  C4  UNL     1       7.821  30.428  -9.675  1.00  0.00     0.137 A
HETATM   26  C5  UNL     1       7.338  29.419  -8.854  1.00  0.00     0.140 A
HETATM   27  N4  UNL     1       8.384  28.688  -8.496  1.00  0.00    -0.354 N
HETATM   28  C6  UNL     1       8.393  27.517  -7.639  1.00  0.00     0.156 C
HETATM   29  C7  UNL     1       9.484  29.198  -9.053  1.00  0.00     0.183 A
HETATM   30  N5  UNL     1       9.142  30.260  -9.773  1.00  0.00    -0.337 N
ATOM     31  H5  UNL     1       9.779  30.847 -10.311  1.00  0.00     0.168 HD
ENDBRANCH  23  25
ENDBRANCH   4  23
BRANCH   1  32
HETATM   32  N1  UNL     1       2.858  29.669 -11.007  1.00  0.00    -0.229 N
HETATM   33  C1  UNL     1       3.471  28.381 -11.266  1.00  0.00     0.165 C
ATOM     34  H1  UNL     1       1.902  29.875 -11.298  1.00  0.00     0.177 HD
ENDBRANCH   1  32
TORSDOF 5
ENDMDL