MODEL 1
REMARK VINA RESULT: -8.254594125      0.000      0.000
REMARK  2 active torsions:
REMARK  status: ('A' for Active; 'I' for Inactive)
REMARK    1  A    between atoms: C4_8  and  C5_9
REMARK    2  A    between atoms: C12_23  and  C13_24
ROOT
HETATM    1  C5  UNL     1       5.380  32.818  -9.782  1.00  0.00     0.139 A
HETATM    2  C6  UNL     1       4.116  33.146 -10.442  1.00  0.00     0.090 A
HETATM    3  N3  UNL     1       3.768  34.411 -10.616  1.00  0.00    -0.388 N
ATOM      4  H31 UNL     1       2.886  34.640 -11.076  1.00  0.00     0.157 HD
ATOM      5  H32 UNL     1       4.388  35.151 -10.287  1.00  0.00     0.157 HD
HETATM    6  N4  UNL     1       3.258  32.122 -10.898  1.00  0.00    -0.344 N
ATOM      7  H4  UNL     1       2.380  32.365 -11.356  1.00  0.00     0.167 HD
HETATM    8  C7  UNL     1       3.577  30.883 -10.739  1.00  0.00     0.061 A
HETATM    9  C8  UNL     1       2.744  29.864 -11.181  1.00  0.00     0.033 A
HETATM   10  C9  UNL     1       3.069  28.537 -11.020  1.00  0.00     0.019 A
HETATM   11  C10 UNL     1       4.252  28.194 -10.403  1.00  0.00     0.088 A
HETATM   12  N5  UNL     1       5.039  29.187  -9.985  1.00  0.00    -0.364 N
ATOM     13  H5  UNL     1       5.916  28.938  -9.528  1.00  0.00     0.165 HD
HETATM   14  C11 UNL     1       4.751  30.514 -10.127  1.00  0.00     0.067 A
HETATM   15  C12 UNL     1       5.619  31.396  -9.667  1.00  0.00    -0.002 A
ENDROOT
BRANCH   1  16
HETATM   16  C4  UNL     1       5.574  33.562  -8.511  1.00  0.00     0.026 A
HETATM   17  N2  UNL     1       5.136  33.080  -7.342  1.00  0.00    -0.343 N
HETATM   18  C3  UNL     1       5.295  33.728  -6.165  1.00  0.00     0.134 A
ATOM     19  H2  UNL     1       4.660  32.178  -7.337  1.00  0.00     0.167 HD
HETATM   20  N1  UNL     1       4.951  33.457  -4.884  1.00  0.00    -0.331 N
HETATM   21  C21 UNL     1       5.935  34.950  -6.141  1.00  0.00     0.078 A
HETATM   22  C2  UNL     1       5.340  34.435  -4.073  1.00  0.00     0.079 A
ATOM     23  H1  UNL     1       4.459  32.616  -4.582  1.00  0.00     0.168 HD
HETATM   24  C1  UNL     1       5.190  34.587  -2.603  1.00  0.00     0.089 C
HETATM   25  N7  UNL     1       5.950  35.364  -4.844  1.00  0.00    -0.343 N
ATOM     26  H7  UNL     1       6.357  36.237  -4.508  1.00  0.00     0.167 HD
HETATM   27  C20 UNL     1       6.400  35.480  -7.326  1.00  0.00     0.035 A
HETATM   28  C19 UNL     1       6.214  34.780  -8.494  1.00  0.00     0.028 A
ENDBRANCH   1  16
BRANCH  15  29
HETATM   29  C13 UNL     1       6.828  30.844  -9.039  1.00  0.00    -0.025 A
HETATM   30  C14 UNL     1       6.950  30.912  -7.682  1.00  0.00     0.012 A
HETATM   31  C15 UNL     1       8.097  30.392  -7.045  1.00  0.00     0.003 A
HETATM   32  C16 UNL     1       9.086  29.816  -7.828  1.00  0.00     0.026 A
HETATM   33  C17 UNL     1       8.966  29.745  -9.193  1.00  0.00     0.047 A
HETATM   34  N6  UNL     1      10.018  29.143  -9.919  1.00  0.00    -0.102 NA
HETATM   35  C18 UNL     1       7.818  30.271  -9.778  1.00  0.00     0.038 A
ENDBRANCH  15  29
TORSDOF 2
ENDMDL