MODEL 2
REMARK VINA RESULT: -6.806102475      1.731      5.887
REMARK  4 active torsions:
REMARK  status: ('A' for Active; 'I' for Inactive)
REMARK    1  A    between atoms: N1_2  and  C2_4
REMARK    2  A    between atoms: C5_7  and  O1_8
REMARK    3  A    between atoms: C7_10  and  C8_11
REMARK    4  A    between atoms: C12_18  and  N4_19
ROOT
HETATM    1  C8  UNL     1       4.351  33.748  -6.598  1.00  0.00     0.046 A
HETATM    2  C9  UNL     1       5.020  33.709  -7.800  1.00  0.00     0.037 A
HETATM    3  N2  UNL     1       4.199  33.187  -8.738  1.00  0.00    -0.310 N
HETATM    4  C10 UNL     1       3.023  32.889  -8.148  1.00  0.00     0.084 A
HETATM    5  C11 UNL     1       1.869  32.314  -8.696  1.00  0.00     0.138 A
HETATM    6  N3  UNL     1       0.825  32.094  -7.913  1.00  0.00    -0.200 N
ATOM      7  H3  UNL     1      -0.025  31.677  -8.295  1.00  0.00     0.183 HD
HETATM    8  C12 UNL     1       0.892  32.429  -6.598  1.00  0.00     0.676 A
HETATM    9  N5  UNL     1       1.997  32.979  -6.078  1.00  0.00    -0.189 N
ATOM     10  H5  UNL     1       2.014  33.218  -5.087  1.00  0.00     0.184 HD
HETATM   11  C13 UNL     1       3.081  33.222  -6.830  1.00  0.00     0.092 A
HETATM   12  C14 UNL     1       4.806  33.175 -10.028  1.00  0.00     0.046 A
HETATM   13  C15 UNL     1       4.385  32.782 -11.295  1.00  0.00     0.030 A
HETATM   14  C16 UNL     1       5.207  32.932 -12.388  1.00  0.00     0.002 A
HETATM   15  C17 UNL     1       6.462  33.473 -12.251  1.00  0.00     0.001 A
HETATM   16  C18 UNL     1       6.880  33.865 -10.979  1.00  0.00     0.010 A
HETATM   17  C19 UNL     1       6.056  33.710  -9.907  1.00  0.00    -0.025 A
HETATM   18  C20 UNL     1       6.294  34.010  -8.471  1.00  0.00     0.099 A
ENDROOT
BRANCH   1  19
HETATM   19  C7  UNL     1       4.793  34.185  -5.267  1.00  0.00     0.082 A
HETATM   20  C5  UNL     1       5.496  35.331  -5.002  1.00  0.00     0.096 A
HETATM   21  C4  UNL     1       5.905  35.569  -3.679  1.00  0.00     0.043 A
HETATM   22  C3  UNL     1       5.602  34.668  -2.691  1.00  0.00     0.051 A
HETATM   23  C2  UNL     1       4.896  33.517  -2.958  1.00  0.00     0.101 A
HETATM   24  N6  UNL     1       4.519  33.318  -4.229  1.00  0.00    -0.340 N
ATOM     25  H6  UNL     1       3.994  32.470  -4.443  1.00  0.00     0.167 HD
BRANCH  20  26
HETATM   26  O1  UNL     1       5.803  36.225  -5.976  1.00  0.00    -0.354 OA
HETATM   27  C6  UNL     1       7.093  36.553  -6.405  1.00  0.00     0.210 C
ENDBRANCH  20  26
BRANCH  23  28
HETATM   28  N1  UNL     1       4.608  32.665  -2.035  1.00  0.00    -0.381 N
HETATM   29  C1  UNL     1       4.130  31.345  -2.253  1.00  0.00     0.147 C
ATOM     30  H1  UNL     1       4.734  32.963  -1.067  1.00  0.00     0.160 HD
ENDBRANCH  23  28
ENDBRANCH   1  19
BRANCH   8  31
HETATM   31  N4  UNL     1      -0.153  32.192  -5.885  1.00  0.00    -0.234 N
ATOM     32  H42 UNL     1      -0.989  31.759  -6.278  1.00  0.00     0.174 HD
ATOM     33  H41 UNL     1      -0.109  32.458  -4.901  1.00  0.00     0.174 HD
ENDBRANCH   8  31
TORSDOF 4
ENDMDL