MODEL 1
REMARK VINA RESULT: -2.202390205      0.000      0.000
REMARK  3 active torsions:
REMARK  status: ('A' for Active; 'I' for Inactive)
REMARK    1  A    between atoms: N1_1  and  C1_4
REMARK    2  A    between atoms: C3_8  and  C4_9
REMARK    3  A    between atoms: C10_17  and  N4_18
ROOT
HETATM    1  C1  UNL     1       1.605  32.966  -6.113  1.00  0.00     0.128 A
HETATM    2  N2  UNL     1       1.187  33.441  -4.922  1.00  0.00    -0.350 N
ATOM      3  H2  UNL     1       0.197  33.657  -4.806  1.00  0.00     0.166 HD
HETATM    4  C2  UNL     1       2.012  33.644  -3.884  1.00  0.00     0.102 A
HETATM    5  C3  UNL     1       3.359  33.338  -4.083  1.00  0.00    -0.008 A
HETATM    6  C9  UNL     1       3.815  32.845  -5.304  1.00  0.00     0.049 A
HETATM    7  C10 UNL     1       2.936  32.658  -6.325  1.00  0.00     0.104 A
ENDROOT
BRANCH   7   8
HETATM    8  N4  UNL     1       3.363  32.149  -7.609  1.00  0.00    -0.215 N
HETATM    9  N5  UNL     1       3.234  30.910  -8.043  1.00  0.00    -0.289 N
HETATM   10  C11 UNL     1       3.733  30.773  -9.278  1.00  0.00     0.079 A
ATOM     11  H5  UNL     1       2.808  30.154  -7.508  1.00  0.00     0.188 HD
HETATM   12  C12 UNL     1       4.211  32.007  -9.650  1.00  0.00     0.114 A
HETATM   13  C20 UNL     1       3.947  29.802 -10.349  1.00  0.00     0.007 A
HETATM   14  C13 UNL     1       3.964  32.852  -8.580  1.00  0.00     0.283 A
HETATM   15  C14 UNL     1       4.749  31.870 -10.977  1.00  0.00     0.201 A
HETATM   16  O1  UNL     1       4.261  34.073  -8.546  1.00  0.00    -0.265 OA
HETATM   17  O2  UNL     1       5.277  32.773 -11.663  1.00  0.00    -0.286 OA
HETATM   18  C15 UNL     1       4.564  30.488 -11.370  1.00  0.00     0.028 A
HETATM   19  C16 UNL     1       4.896  29.813 -12.535  1.00  0.00     0.016 A
HETATM   20  C17 UNL     1       4.635  28.481 -12.725  1.00  0.00     0.001 A
HETATM   21  C18 UNL     1       4.013  27.804 -11.687  1.00  0.00     0.001 A
HETATM   22  C19 UNL     1       3.680  28.465 -10.525  1.00  0.00     0.015 A
ENDBRANCH   7   8
BRANCH   1  23
HETATM   23  N1  UNL     1       0.765  32.786  -7.094  1.00  0.00    -0.384 N
ATOM     24  H12 UNL     1      -0.191  32.512  -6.868  1.00  0.00     0.157 HD
ATOM     25  H11 UNL     1       1.057  32.915  -8.063  1.00  0.00     0.157 HD
ENDBRANCH   1  23
BRANCH   5  26
HETATM   26  C4  UNL     1       4.295  33.533  -3.003  1.00  0.00    -0.022 A
HETATM   27  C5  UNL     1       4.945  34.730  -2.855  1.00  0.00     0.029 A
HETATM   28  C6  UNL     1       5.858  34.935  -1.816  1.00  0.00     0.088 A
HETATM   29  N3  UNL     1       6.084  33.932  -0.961  1.00  0.00    -0.375 N
HETATM   30  C7  UNL     1       5.475  32.750  -1.065  1.00  0.00     0.088 A
ATOM     31  H3  UNL     1       6.748  34.076  -0.200  1.00  0.00     0.164 HD
HETATM   32  C8  UNL     1       4.563  32.538  -2.101  1.00  0.00     0.029 A
ENDBRANCH   5  26
TORSDOF 3
ENDMDL