MODEL 2
REMARK VINA RESULT: -6.716319274      2.268      4.750
REMARK  5 active torsions:
REMARK  status: ('A' for Active; 'I' for Inactive)
REMARK       I    between atoms: C1_2  and  N1_3
REMARK    1  A    between atoms: C1_2  and  C13_29
REMARK    2  A    between atoms: N1_3  and  C2_5
REMARK    3  A    between atoms: C2_5  and  N2_7
REMARK    4  A    between atoms: N2_7  and  C3_9
REMARK    5  A    between atoms: C4_12  and  C5_13
ROOT
HETATM    1  C3  UNL     1       5.045  30.493  -9.028  1.00  0.00     0.140 A
HETATM    2  N3  UNL     1       4.375  31.171  -8.042  1.00  0.00    -0.326 N
ATOM      3  H3  UNL     1       4.787  31.217  -7.110  1.00  0.00     0.169 HD
HETATM    4  C4  UNL     1       3.205  31.772  -8.255  1.00  0.00     0.118 A
HETATM    5  N5  UNL     1       2.686  31.693  -9.492  1.00  0.00    -0.326 N
ATOM      6  H5  UNL     1       1.791  32.150  -9.661  1.00  0.00     0.169 HD
HETATM    7  C10 UNL     1       3.265  31.055 -10.519  1.00  0.00     0.139 A
HETATM    8  N6  UNL     1       2.972  30.833 -11.807  1.00  0.00    -0.337 N
ATOM      9  H6  UNL     1       2.129  31.174 -12.269  1.00  0.00     0.168 HD
HETATM   10  C11 UNL     1       3.924  30.110 -12.412  1.00  0.00     0.182 A
HETATM   11  N7  UNL     1       4.842  29.874 -11.465  1.00  0.00    -0.346 N
ATOM     12  H7  UNL     1       5.699  29.342 -11.617  1.00  0.00     0.167 HD
HETATM   13  C12 UNL     1       4.494  30.426 -10.289  1.00  0.00     0.122 A
ENDROOT
BRANCH   1  14
HETATM   14  N2  UNL     1       6.157  29.934  -8.789  1.00  0.00    -0.317 N
ATOM     15  H2  UNL     1       6.390  29.069  -9.277  1.00  0.00     0.170 HD
BRANCH  14  16
HETATM   16  C2  UNL     1       7.083  30.467  -7.869  1.00  0.00     0.180 C
HETATM   17  S1  UNL     1       8.677  30.227  -8.231  1.00  0.00    -0.040 SA
BRANCH  16  18
HETATM   18  N1  UNL     1       6.691  31.185  -6.705  1.00  0.00    -0.299 N
HETATM   19  C1  UNL     1       6.330  32.552  -6.759  1.00  0.00     0.257 C
HETATM   20  O1  UNL     1       6.367  33.135  -7.898  1.00  0.00    -0.267 OA
ATOM     21  H1  UNL     1       6.670  30.702  -5.807  1.00  0.00     0.171 HD
BRANCH  19  22
HETATM   22  C13 UNL     1       5.927  33.308  -5.596  1.00  0.00     0.032 A
HETATM   23  C14 UNL     1       6.338  34.596  -5.380  1.00  0.00     0.017 A
HETATM   24  C15 UNL     1       5.917  35.290  -4.233  1.00  0.00     0.001 A
HETATM   25  C16 UNL     1       5.091  34.696  -3.307  1.00  0.00     0.000 A
HETATM   26  C17 UNL     1       4.679  33.390  -3.533  1.00  0.00     0.001 A
HETATM   27  C18 UNL     1       5.104  32.733  -4.661  1.00  0.00     0.017 A
ENDBRANCH  19  22
ENDBRANCH  16  18
ENDBRANCH  14  16
ENDBRANCH   1  14
BRANCH   4  28
HETATM   28  C5  UNL     1       2.488  32.503  -7.185  1.00  0.00     0.011 A
HETATM   29  C6  UNL     1       1.562  31.904  -6.373  1.00  0.00     0.032 A
HETATM   30  C7  UNL     1       0.940  32.676  -5.393  1.00  0.00     0.088 A
HETATM   31  N4  UNL     1       1.221  33.977  -5.225  1.00  0.00    -0.375 N
HETATM   32  C8  UNL     1       2.124  34.598  -6.003  1.00  0.00     0.088 A
ATOM     33  H4  UNL     1       0.741  34.504  -4.495  1.00  0.00     0.164 HD
HETATM   34  C9  UNL     1       2.741  33.841  -6.973  1.00  0.00     0.032 A
ENDBRANCH   4  28
TORSDOF 5
ENDMDL