MODEL 1
REMARK VINA RESULT: -4.664327827      0.000      0.000
REMARK  3 active torsions:
REMARK  status: ('A' for Active; 'I' for Inactive)
REMARK    1  A    between atoms: N1_1  and  C1_4
REMARK    2  A    between atoms: C4_9  and  C5_10
REMARK    3  A    between atoms: C12_20  and  C13_21
ROOT
HETATM    1  C5  UNL     1       4.085  31.877  -8.408  1.00  0.00    -0.016 A
HETATM    2  C6  UNL     1       4.760  32.847  -8.978  1.00  0.00     0.001 A
HETATM    3  C7  UNL     1       5.432  32.541 -10.170  1.00  0.00     0.041 A
HETATM    4  C8  UNL     1       6.149  33.552 -10.781  1.00  0.00     0.047 A
HETATM    5  N3  UNL     1       6.821  33.224 -11.984  1.00  0.00    -0.102 NA
HETATM    6  C9  UNL     1       6.205  34.817 -10.246  1.00  0.00     0.029 A
HETATM    7  C10 UNL     1       5.540  35.119  -9.066  1.00  0.00     0.032 A
HETATM    8  C11 UNL     1       4.828  34.122  -8.454  1.00  0.00     0.039 A
HETATM    9  N4  UNL     1       4.195  34.332  -7.374  1.00  0.00    -0.378 N
ATOM     10  H4  UNL     1       4.258  35.280  -7.002  1.00  0.00     0.160 HD
HETATM   11  C12 UNL     1       3.411  33.423  -6.613  1.00  0.00     0.143 A
HETATM   12  C21 UNL     1       3.342  32.068  -7.160  1.00  0.00     0.073 A
ENDROOT
BRANCH   1  13
HETATM   13  C4  UNL     1       4.092  30.544  -9.073  1.00  0.00     0.057 A
HETATM   14  C3  UNL     1       4.881  29.513  -8.613  1.00  0.00     0.048 A
HETATM   15  C2  UNL     1       4.891  28.277  -9.223  1.00  0.00     0.108 A
HETATM   16  N2  UNL     1       4.095  28.115 -10.294  1.00  0.00    -0.202 N
HETATM   17  C1  UNL     1       3.318  29.127 -10.750  1.00  0.00     0.676 A
ATOM     18  H2  UNL     1       4.075  27.214 -10.771  1.00  0.00     0.183 HD
HETATM   19  N5  UNL     1       3.320  30.324 -10.144  1.00  0.00    -0.192 N
ATOM     20  H5  UNL     1       2.727  31.074 -10.502  1.00  0.00     0.184 HD
BRANCH  17  21
HETATM   21  N1  UNL     1       2.587  28.909 -11.767  1.00  0.00    -0.234 N
ATOM     22  H12 UNL     1       2.429  27.960 -12.107  1.00  0.00     0.174 HD
ATOM     23  H11 UNL     1       2.163  29.710 -12.235  1.00  0.00     0.174 HD
ENDBRANCH  17  21
ENDBRANCH   1  13
BRANCH  11  24
HETATM   24  C13 UNL     1       3.957  33.384  -5.203  1.00  0.00     0.077 A
HETATM   25  C14 UNL     1       3.874  32.321  -4.309  1.00  0.00     0.049 A
HETATM   26  C15 UNL     1       4.501  32.718  -3.147  1.00  0.00     0.000 A
HETATM   27  C16 UNL     1       4.751  32.142  -1.919  1.00  0.00     0.014 A
HETATM   28  C20 UNL     1       4.939  34.006  -3.381  1.00  0.00     0.086 A
HETATM   29  C17 UNL     1       5.427  32.815  -0.920  1.00  0.00     0.001 A
HETATM   30  C18 UNL     1       5.867  34.107  -1.154  1.00  0.00     0.003 A
HETATM   31  C19 UNL     1       5.618  34.672  -2.365  1.00  0.00     0.038 A
HETATM   32  O1  UNL     1       4.591  34.344  -4.604  1.00  0.00    -0.312 OA
ENDBRANCH  11  24
TORSDOF 3
ENDMDL