MODEL 5
REMARK VINA RESULT: -4.204947768      1.952      2.371
REMARK  3 active torsions:
REMARK  status: ('A' for Active; 'I' for Inactive)
REMARK    1  A    between atoms: C7_9  and  C8_10
REMARK    2  A    between atoms: C10_12  and  C11_13
REMARK    3  A    between atoms: C18_21  and  N3_22
REMARK       I    between atoms: N3_22  and  C19_24
ROOT
HETATM    1  C1  UNL     1       5.208  35.665  -5.943  1.00  0.00     0.103 C
HETATM    2  C2  UNL     1       5.207  35.039  -4.885  1.00  0.00    -0.148 C
HETATM    3  C3  UNL     1       5.220  34.344  -3.630  1.00  0.00     0.019 A
HETATM    4  C4  UNL     1       5.659  34.998  -2.477  1.00  0.00     0.037 A
HETATM    5  C5  UNL     1       5.664  34.318  -1.292  1.00  0.00     0.089 A
HETATM    6  N1  UNL     1       5.247  33.017  -1.230  1.00  0.00    -0.374 N
ATOM      7  H1  UNL     1       5.262  32.536  -0.331  1.00  0.00     0.164 HD
HETATM    8  C6  UNL     1       4.823  32.361  -2.306  1.00  0.00     0.102 A
HETATM    9  C7  UNL     1       4.813  33.047  -3.525  1.00  0.00     0.026 A
ENDROOT
BRANCH   9  10
HETATM   10  C8  UNL     1       4.345  32.313  -4.693  1.00  0.00     0.070 A
HETATM   11  C9  UNL     1       4.997  32.194  -5.922  1.00  0.00     0.074 A
HETATM   12  C10 UNL     1       4.213  31.419  -6.742  1.00  0.00     0.127 A
HETATM   13  O1  UNL     1       3.154  31.090  -6.053  1.00  0.00    -0.235 OA
HETATM   14  N7  UNL     1       3.221  31.603  -4.865  1.00  0.00    -0.260 N
ATOM     15  H7  UNL     1       2.506  31.481  -4.147  1.00  0.00     0.195 HD
BRANCH  12  16
HETATM   16  C11 UNL     1       4.537  31.050  -8.126  1.00  0.00     0.072 A
HETATM   17  C12 UNL     1       3.981  29.922  -8.687  1.00  0.00     0.063 A
HETATM   18  C13 UNL     1       4.272  29.550  -9.996  1.00  0.00     0.050 A
HETATM   19  C14 UNL     1       5.149  30.375 -10.703  1.00  0.00     0.036 A
HETATM   20  N2  UNL     1       3.901  28.536 -10.801  1.00  0.00    -0.360 N
HETATM   21  C15 UNL     1       5.273  29.796 -11.962  1.00  0.00     0.034 A
HETATM   22  C18 UNL     1       5.698  31.500 -10.131  1.00  0.00     0.120 A
HETATM   23  C16 UNL     1       4.498  28.670 -11.994  1.00  0.00     0.092 A
HETATM   24  N6  UNL     1       5.376  31.796  -8.872  1.00  0.00    -0.339 N
ATOM     25  H6  UNL     1       5.785  32.631  -8.451  1.00  0.00     0.167 HD
HETATM   26  C17 UNL     1       2.994  27.479 -10.411  1.00  0.00     0.155 C
BRANCH  22  27
HETATM   27  N3  UNL     1       6.498  32.222 -10.828  1.00  0.00    -0.316 N
HETATM   28  C19 UNL     1       6.203  33.467 -11.386  1.00  0.00     0.187 C
HETATM   29  N4  UNL     1       5.946  34.535 -10.731  1.00  0.00    -0.373 N
HETATM   30  N5  UNL     1       6.185  33.573 -12.819  1.00  0.00    -0.064 NA
ATOM     31  H42 UNL     1       5.958  34.460  -9.714  1.00  0.00     0.158 HD
ATOM     32  H41 UNL     1       5.731  35.444 -11.140  1.00  0.00     0.158 HD
ATOM     33  H3  UNL     1       7.435  31.852 -10.988  1.00  0.00     0.170 HD
ENDBRANCH  22  27
ENDBRANCH  12  16
ENDBRANCH   9  10
TORSDOF 3
ENDMDL