MODEL 4
REMARK VINA RESULT: -7.447370995      1.059      1.059
REMARK  5 active torsions:
REMARK  status: ('A' for Active; 'I' for Inactive)
REMARK    1  A    between atoms: C6_7  and  N2_8
REMARK    2  A    between atoms: N2_8  and  C7_10
REMARK    3  A    between atoms: C10_19  and  N6_20
REMARK    4  A    between atoms: N6_20  and  C11_21
REMARK    5  A    between atoms: C11_21  and  O1_22
ROOT
HETATM    1  N1  UNL     1       7.173  36.482  -6.253  1.00  0.00    -0.191 NA
HETATM    2  C1  UNL     1       6.551  35.885  -5.491  1.00  0.00     0.099 C
HETATM    3  C2  UNL     1       5.779  35.111  -4.564  1.00  0.00     0.046 A
HETATM    4  C3  UNL     1       6.194  35.091  -3.252  1.00  0.00     0.023 A
HETATM    5  C4  UNL     1       5.463  34.365  -2.345  1.00  0.00     0.004 A
HETATM    6  C5  UNL     1       4.329  33.660  -2.724  1.00  0.00     0.030 A
HETATM    7  C6  UNL     1       3.902  33.665  -4.022  1.00  0.00     0.050 A
HETATM    8  C18 UNL     1       4.651  34.403  -4.920  1.00  0.00     0.052 A
ENDROOT
BRANCH   7   9
HETATM    9  N2  UNL     1       2.749  32.956  -4.421  1.00  0.00    -0.192 N
ATOM     10  H2  UNL     1       2.129  32.622  -3.683  1.00  0.00     0.184 HD
BRANCH   9  11
HETATM   11  C7  UNL     1       2.417  32.700  -5.611  1.00  0.00     0.685 A
HETATM   12  N3  UNL     1       1.197  32.571  -6.139  1.00  0.00    -0.174 N
HETATM   13  C8  UNL     1       1.309  32.277  -7.439  1.00  0.00     0.154 A
ATOM     14  H3  UNL     1       0.320  32.679  -5.632  1.00  0.00     0.186 HD
HETATM   15  N4  UNL     1       0.387  32.051  -8.414  1.00  0.00    -0.336 N
HETATM   16  C17 UNL     1       2.676  32.210  -7.754  1.00  0.00     0.152 A
HETATM   17  C9  UNL     1       0.794  31.772  -9.652  1.00  0.00     0.184 A
ATOM     18  H4  UNL     1      -0.609  32.096  -8.199  1.00  0.00     0.168 HD
HETATM   19  N5  UNL     1       2.096  31.706  -9.958  1.00  0.00    -0.325 N
HETATM   20  C10 UNL     1       3.104  31.913  -9.057  1.00  0.00     0.214 A
ATOM     21  H5  UNL     1       2.352  31.487 -10.921  1.00  0.00     0.169 HD
HETATM   22  N8  UNL     1       3.326  32.470  -6.616  1.00  0.00    -0.183 N
ATOM     23  H8  UNL     1       4.340  32.494  -6.510  1.00  0.00     0.184 HD
BRANCH  20  24
HETATM   24  N6  UNL     1       4.275  31.846  -9.319  1.00  0.00    -0.357 NA
BRANCH  24  25
HETATM   25  C11 UNL     1       5.480  31.846  -9.794  1.00  0.00     0.258 C
HETATM   26  C12 UNL     1       6.728  31.140  -9.800  1.00  0.00     0.171 A
HETATM   27  C13 UNL     1       6.116  30.023  -8.632  1.00  0.00     0.050 A
HETATM   28  N7  UNL     1       7.772  30.548  -9.806  1.00  0.00    -0.413 NA
HETATM   29  C14 UNL     1       6.897  29.082  -8.237  1.00  0.00     0.006 A
HETATM   30  C15 UNL     1       8.199  28.747  -8.566  1.00  0.00     0.032 A
HETATM   31  C16 UNL     1       8.669  29.694  -9.534  1.00  0.00     0.183 A
BRANCH  25  32
HETATM   32  O1  UNL     1       5.699  32.922 -10.623  1.00  0.00    -0.333 OA
ATOM     33  H1  UNL     1       6.473  32.799 -11.159  1.00  0.00     0.220 HD
ENDBRANCH  25  32
ENDBRANCH  24  25
ENDBRANCH  20  24
ENDBRANCH   9  11
ENDBRANCH   7   9
TORSDOF 5
ENDMDL