MODEL 3
REMARK VINA RESULT: -8.296843205      0.971      1.600
REMARK  4 active torsions:
REMARK  status: ('A' for Active; 'I' for Inactive)
REMARK    1  A    between atoms: C8_9  and  N2_10
REMARK    2  A    between atoms: N2_10  and  C9_12
REMARK    3  A    between atoms: C11_18  and  N5_19
REMARK    4  A    between atoms: N5_19  and  C12_21
ROOT
HETATM    1  C1  UNL     1       5.343  33.719 -10.179  1.00  0.00     0.050 C
HETATM    2  C2  UNL     1       5.438  32.250  -9.967  1.00  0.00    -0.033 A
HETATM    3  C3  UNL     1       6.678  31.712  -9.618  1.00  0.00     0.031 A
HETATM    4  C4  UNL     1       6.796  30.350  -9.416  1.00  0.00     0.045 A
HETATM    5  C5  UNL     1       8.057  29.751  -9.055  1.00  0.00     0.099 C
HETATM    6  N1  UNL     1       9.066  29.259  -8.767  1.00  0.00    -0.191 NA
HETATM    7  C6  UNL     1       5.679  29.529  -9.559  1.00  0.00     0.025 A
HETATM    8  C7  UNL     1       4.445  30.039  -9.902  1.00  0.00     0.032 A
HETATM    9  C8  UNL     1       4.355  31.417 -10.101  1.00  0.00     0.055 A
ENDROOT
BRANCH   9  10
HETATM   10  N2  UNL     1       3.089  31.954 -10.455  1.00  0.00    -0.191 N
ATOM     11  H2  UNL     1       2.896  32.305 -11.393  1.00  0.00     0.184 HD
BRANCH  10  12
HETATM   12  C9  UNL     1       2.179  31.974  -9.508  1.00  0.00     0.698 A
HETATM   13  N3  UNL     1       0.867  32.025  -9.789  1.00  0.00    -0.187 N
HETATM   14  C10 UNL     1      -0.102  32.048  -8.879  1.00  0.00     0.215 A
ATOM     15  H3  UNL     1       0.593  32.048 -10.771  1.00  0.00     0.185 HD
HETATM   16  N4  UNL     1       0.295  32.016  -7.583  1.00  0.00    -0.187 N
HETATM   17  C11 UNL     1       1.600  31.963  -7.258  1.00  0.00     0.698 A
ATOM     18  H4  UNL     1      -0.406  32.031  -6.842  1.00  0.00     0.185 HD
HETATM   19  N7  UNL     1       2.541  31.943  -8.214  1.00  0.00    -0.022 N
ATOM     20  H7  UNL     1       3.529  31.903  -7.959  1.00  0.00     0.203 HD
BRANCH  17  21
HETATM   21  N5  UNL     1       1.925  31.934  -5.990  1.00  0.00    -0.191 N
ATOM     22  H5  UNL     1       1.450  31.289  -5.358  1.00  0.00     0.184 HD
BRANCH  21  23
HETATM   23  C12 UNL     1       2.938  32.795  -5.488  1.00  0.00     0.050 A
HETATM   24  C13 UNL     1       3.561  33.710  -6.325  1.00  0.00     0.031 A
HETATM   25  C14 UNL     1       4.540  34.531  -5.806  1.00  0.00     0.020 A
HETATM   26  C15 UNL     1       4.947  34.505  -4.496  1.00  0.00     0.042 A
HETATM   27  C16 UNL     1       5.929  35.338  -4.006  1.00  0.00     0.256 A
HETATM   28  C19 UNL     1       4.313  33.581  -3.670  1.00  0.00    -0.017 A
HETATM   29  O1  UNL     1       6.495  36.169  -4.762  1.00  0.00    -0.267 OA
HETATM   30  N6  UNL     1       6.271  35.250  -2.709  1.00  0.00    -0.333 N
HETATM   31  C17 UNL     1       5.708  34.390  -1.857  1.00  0.00     0.092 A
ATOM     32  H6  UNL     1       6.998  35.873  -2.357  1.00  0.00     0.168 HD
HETATM   33  C18 UNL     1       4.719  33.548  -2.346  1.00  0.00     0.029 A
HETATM   34  C20 UNL     1       3.334  32.751  -4.160  1.00  0.00     0.042 A
ENDBRANCH  21  23
ENDBRANCH  17  21
ENDBRANCH  10  12
ENDBRANCH   9  10
TORSDOF 4
ENDMDL