MODEL 2
REMARK VINA RESULT: -8.835383322      1.581      2.329
REMARK  4 active torsions:
REMARK  status: ('A' for Active; 'I' for Inactive)
REMARK    1  A    between atoms: C4_7  and  N3_8
REMARK    2  A    between atoms: N3_8  and  C5_10
REMARK    3  A    between atoms: C13_25  and  N7_26
REMARK    4  A    between atoms: N7_26  and  C14_28
ROOT
HETATM    1  N1  UNL     1       3.948  27.930 -11.692  1.00  0.00    -0.191 NA
HETATM    2  C1  UNL     1       3.692  28.869 -11.050  1.00  0.00     0.104 C
HETATM    3  C2  UNL     1       3.394  30.027 -10.256  1.00  0.00     0.105 A
HETATM    4  C3  UNL     1       2.474  30.964 -10.740  1.00  0.00     0.132 A
HETATM    5  N2  UNL     1       2.153  32.070 -10.043  1.00  0.00    -0.200 N
ATOM      6  H2  UNL     1       1.480  32.739 -10.417  1.00  0.00     0.183 HD
HETATM    7  C4  UNL     1       2.732  32.281  -8.847  1.00  0.00     0.684 A
HETATM    8  N6  UNL     1       3.616  31.387  -8.377  1.00  0.00    -0.175 N
ATOM      9  H6  UNL     1       4.044  31.566  -7.469  1.00  0.00     0.186 HD
HETATM   10  C13 UNL     1       3.967  30.275  -9.030  1.00  0.00     0.143 A
ENDROOT
BRANCH  10  11
HETATM   11  N7  UNL     1       4.808  29.439  -8.564  1.00  0.00    -0.341 N
ATOM     12  H7  UNL     1       4.460  28.508  -8.337  1.00  0.00     0.167 HD
BRANCH  11  13
HETATM   13  C14 UNL     1       6.172  29.686  -8.334  1.00  0.00     0.033 A
HETATM   14  C15 UNL     1       6.637  30.684  -7.506  1.00  0.00     0.029 A
HETATM   15  C16 UNL     1       7.997  30.893  -7.307  1.00  0.00     0.002 A
HETATM   16  C17 UNL     1       8.923  30.092  -7.943  1.00  0.00     0.000 A
HETATM   17  C18 UNL     1       8.474  29.092  -8.772  1.00  0.00     0.002 A
HETATM   18  C19 UNL     1       7.108  28.896  -8.961  1.00  0.00     0.029 A
ENDBRANCH  11  13
ENDBRANCH  10  11
BRANCH   7  19
HETATM   19  N3  UNL     1       2.426  33.355  -8.159  1.00  0.00    -0.192 N
ATOM     20  H3  UNL     1       1.893  34.107  -8.596  1.00  0.00     0.184 HD
BRANCH  19  21
HETATM   21  C5  UNL     1       2.839  33.469  -6.804  1.00  0.00     0.051 A
HETATM   22  C6  UNL     1       2.140  32.936  -5.746  1.00  0.00     0.032 A
HETATM   23  C7  UNL     1       2.588  33.076  -4.447  1.00  0.00     0.034 A
HETATM   24  C8  UNL     1       3.752  33.755  -4.169  1.00  0.00     0.062 A
HETATM   25  N4  UNL     1       4.204  33.899  -2.893  1.00  0.00    -0.320 N
HETATM   26  C11 UNL     1       4.465  34.295  -5.218  1.00  0.00     0.061 A
HETATM   27  C9  UNL     1       5.340  34.561  -2.606  1.00  0.00     0.261 A
ATOM     28  H4  UNL     1       3.663  33.493  -2.130  1.00  0.00     0.169 HD
HETATM   29  O1  UNL     1       5.736  34.680  -1.409  1.00  0.00    -0.267 OA
HETATM   30  C10 UNL     1       6.044  35.096  -3.665  1.00  0.00     0.163 A
HETATM   31  N5  UNL     1       5.604  34.957  -4.929  1.00  0.00    -0.359 N
ATOM     32  H5  UNL     1       6.147  35.364  -5.690  1.00  0.00     0.165 HD
HETATM   33  C12 UNL     1       4.008  34.150  -6.517  1.00  0.00     0.061 A
ENDBRANCH  19  21
ENDBRANCH   7  19
TORSDOF 4
ENDMDL