MODEL 1
REMARK VINA RESULT: -6.932500570      0.000      0.000
REMARK  5 active torsions:
REMARK  status: ('A' for Active; 'I' for Inactive)
REMARK    1  A    between atoms: C2_2  and  C3_3
REMARK    2  A    between atoms: C3_3  and  O1_4
REMARK    3  A    between atoms: O1_4  and  C4_5
REMARK    4  A    between atoms: C4_5  and  C5_7
REMARK       I    between atoms: N2_12  and  C7_13
REMARK       I    between atoms: C7_13  and  N3_15
REMARK    5  A    between atoms: N3_15  and  C8_17
ROOT
HETATM    1  C5  UNL     1      27.184 -24.422 140.631  1.00  0.00     0.178 C
HETATM    2  C6  UNL     1      26.193 -24.159 141.681  1.00  0.00     0.111 C
HETATM    3 CL1  UNL     1      26.397 -22.877 142.886  1.00  0.00    -0.067 Cl
HETATM    4  N1  UNL     1      25.220 -24.978 141.564  1.00  0.00    -0.286 N
ATOM      5  H1  UNL     1      24.411 -24.987 142.183  1.00  0.00     0.188 HD
HETATM    6  N2  UNL     1      25.388 -25.857 140.498  1.00  0.00    -0.231 N
HETATM    7  C7  UNL     1      24.585 -27.018 140.247  1.00  0.00     0.338 C
HETATM    8  O3  UNL     1      24.827 -27.743 139.250  1.00  0.00    -0.245 OA
HETATM    9  N3  UNL     1      23.512 -27.370 141.109  1.00  0.00    -0.337 N
ATOM     10  H3  UNL     1      23.319 -26.778 141.917  1.00  0.00     0.164 HD
HETATM   11  C17 UNL     1      26.495 -25.390 139.714  1.00  0.00     0.070 C
HETATM   12  C18 UNL     1      26.056 -24.765 138.408  1.00  0.00     0.041 C
HETATM   13  C19 UNL     1      27.373 -26.581 139.379  1.00  0.00     0.041 C
ENDROOT
BRANCH   9  14
HETATM   14  C8  UNL     1      22.694 -28.515 140.890  1.00  0.00     0.091 C
HETATM   15  C9  UNL     1      21.336 -28.162 140.287  1.00  0.00     0.055 C
HETATM   16  C10 UNL     1      20.740 -29.473 139.832  1.00  0.00     0.021 C
HETATM   17  C11 UNL     1      19.320 -29.147 139.352  1.00  0.00     0.037 C
HETATM   18  C12 UNL     1      21.504 -29.869 138.564  1.00  0.00     0.037 C
HETATM   19  N4  UNL     1      20.680 -30.483 140.804  1.00  0.00    -0.405 N
HETATM   20  C13 UNL     1      21.686 -30.571 141.778  1.00  0.00     0.021 C
ATOM     21  H4  UNL     1      19.909 -31.150 140.803  1.00  0.00     0.154 HD
HETATM   22  C14 UNL     1      22.755 -31.621 141.448  1.00  0.00     0.037 C
HETATM   23  C15 UNL     1      21.036 -31.081 143.075  1.00  0.00     0.037 C
HETATM   24  C16 UNL     1      22.405 -29.312 142.125  1.00  0.00     0.055 C
ENDBRANCH   9  14
BRANCH   1  25
HETATM   25  C4  UNL     1      27.619 -23.174 139.939  1.00  0.00     0.272 C
HETATM   26  O2  UNL     1      26.781 -22.246 139.885  1.00  0.00    -0.264 OA
BRANCH  25  27
HETATM   27  O1  UNL     1      28.823 -22.982 139.383  1.00  0.00    -0.321 OA
BRANCH  27  28
HETATM   28  C3  UNL     1      30.031 -22.498 139.773  1.00  0.00     0.178 C
BRANCH  28  29
HETATM   29  C2  UNL     1      31.166 -22.383 138.840  1.00  0.00     0.022 C
HETATM   30  C1  UNL     1      31.200 -21.228 137.905  1.00  0.00     0.007 C
ENDBRANCH  28  29
ENDBRANCH  27  28
ENDBRANCH  25  27
ENDBRANCH   1  25
TORSDOF 5
ENDMDL