MODEL 3
REMARK VINA RESULT: -6.657798794      2.172      3.311
REMARK  7 active torsions:
REMARK  status: ('A' for Active; 'I' for Inactive)
REMARK    1  A    between atoms: C2_3  and  C3_4
REMARK    2  A    between atoms: C2_3  and  N2_13
REMARK    3  A    between atoms: C3_4  and  C4_5
REMARK    4  A    between atoms: C7_8  and  O1_9
REMARK    5  A    between atoms: N2_13  and  C10_15
REMARK    6  A    between atoms: C10_15  and  O2_16
REMARK    7  A    between atoms: C10_15  and  C11_18
ROOT
HETATM    1  N1  UNL     1      25.829 -18.514 126.115  1.00  0.00    -0.195 NA
HETATM    2  C1  UNL     1      25.169 -19.376 126.556  1.00  0.00     0.084 C
HETATM    3  C2  UNL     1      24.318 -20.449 127.057  1.00  0.00     0.191 C
ENDROOT
BRANCH   3   4
HETATM    4  C3  UNL     1      23.654 -20.191 128.344  1.00  0.00     0.044 C
BRANCH   4   5
HETATM    5  C4  UNL     1      24.166 -20.922 129.529  1.00  0.00    -0.012 C
HETATM    6  C5  UNL     1      23.210 -21.642 130.395  1.00  0.00     0.007 C
HETATM    7  C6  UNL     1      23.870 -22.403 131.493  1.00  0.00     0.032 C
HETATM    8  C7  UNL     1      25.086 -23.183 131.169  1.00  0.00     0.118 C
HETATM    9  C8  UNL     1      25.991 -22.417 130.205  1.00  0.00     0.032 C
HETATM   10  C9  UNL     1      25.210 -21.951 129.029  1.00  0.00     0.007 C
BRANCH   8  11
HETATM   11  O1  UNL     1      25.825 -23.377 132.333  1.00  0.00    -0.396 OA
ATOM     12  H1  UNL     1      25.929 -24.309 132.483  1.00  0.00     0.210 HD
ENDBRANCH   8  11
ENDBRANCH   4   5
ENDBRANCH   3   4
BRANCH   3  13
HETATM   13  N2  UNL     1      23.341 -20.820 126.013  1.00  0.00    -0.353 N
ATOM     14  H2  UNL     1      23.118 -20.149 125.278  1.00  0.00     0.163 HD
BRANCH  13  15
HETATM   15  C10 UNL     1      22.726 -22.049 126.010  1.00  0.00     0.148 C
BRANCH  15  16
HETATM   16  O2  UNL     1      22.989 -22.781 124.947  1.00  0.00    -0.346 OA
ATOM     17  H2  UNL     1      23.466 -23.581 125.134  1.00  0.00     0.219 HD
ENDBRANCH  15  16
BRANCH  15  18
HETATM   18  C11 UNL     1      21.843 -22.649 126.981  1.00  0.00     0.035 A
HETATM   19  C12 UNL     1      22.338 -23.746 127.691  1.00  0.00     0.057 A
HETATM   20  C13 UNL     1      21.576 -24.439 128.596  1.00  0.00     0.103 A
HETATM   21  C14 UNL     1      20.261 -24.059 128.837  1.00  0.00     0.103 A
HETATM   22  O4  UNL     1      22.068 -25.543 129.314  1.00  0.00    -0.346 OA
HETATM   23  C15 UNL     1      19.738 -22.981 128.156  1.00  0.00     0.059 A
HETATM   24  O3  UNL     1      19.473 -24.756 129.754  1.00  0.00    -0.346 OA
HETATM   25  C16 UNL     1      20.555 -22.310 127.246  1.00  0.00     0.028 A
HETATM   26 BR1  UNL     1      19.788 -20.793 126.384  1.00  0.00    -0.050 Br
HETATM   27  C17 UNL     1      19.989 -25.814 130.517  1.00  0.00     0.202 C
HETATM   28  C18 UNL     1      21.088 -26.483 129.741  1.00  0.00     0.202 C
ENDBRANCH  15  18
ENDBRANCH  13  15
ENDBRANCH   3  13
TORSDOF 7
ENDMDL