MODEL 5
REMARK VINA RESULT: -8.233633817      3.481      7.361
REMARK  5 active torsions:
REMARK  status: ('A' for Active; 'I' for Inactive)
REMARK    1  A    between atoms: C5_7  and  N3_8
REMARK    2  A    between atoms: N3_8  and  C6_10
REMARK    3  A    between atoms: C12_20  and  N6_21
REMARK    4  A    between atoms: N6_21  and  C13_23
REMARK    5  A    between atoms: C13_23  and  C14_24
ROOT
HETATM    1  N1  UNL     1      23.118 -28.538 135.809  1.00  0.00    -0.191 NA
HETATM    2  C1  UNL     1      23.537 -27.517 135.475  1.00  0.00     0.105 C
HETATM    3  C2  UNL     1      24.035 -26.253 135.032  1.00  0.00     0.114 A
HETATM    4  C3  UNL     1      23.470 -25.764 133.841  1.00  0.00     0.114 A
HETATM    5  C4  UNL     1      22.462 -26.490 133.126  1.00  0.00     0.105 C
HETATM    6  N2  UNL     1      21.633 -27.075 132.553  1.00  0.00    -0.191 NA
HETATM    7  C5  UNL     1      23.947 -24.546 133.407  1.00  0.00     0.143 A
HETATM    8  N4  UNL     1      24.896 -23.875 134.093  1.00  0.00    -0.283 N
ATOM      9  H4  UNL     1      25.226 -22.975 133.743  1.00  0.00     0.188 HD
HETATM   10  N5  UNL     1      25.400 -24.362 135.200  1.00  0.00    -0.283 N
ATOM     11  H5  UNL     1      26.117 -23.826 135.690  1.00  0.00     0.188 HD
HETATM   12  C12 UNL     1      25.000 -25.573 135.731  1.00  0.00     0.142 A
ENDROOT
BRANCH  12  13
HETATM   13  N6  UNL     1      25.550 -25.920 136.780  1.00  0.00    -0.349 N
ATOM     14  H6  UNL     1      26.454 -26.343 136.564  1.00  0.00     0.167 HD
BRANCH  13  15
HETATM   15  C13 UNL     1      25.355 -25.929 138.145  1.00  0.00     0.103 C
BRANCH  15  16
HETATM   16  C14 UNL     1      26.210 -24.871 138.813  1.00  0.00     0.005 A
HETATM   17  C15 UNL     1      27.129 -24.034 138.217  1.00  0.00     0.156 A
HETATM   18  O1  UNL     1      27.672 -23.251 139.134  1.00  0.00    -0.314 OA
HETATM   19  C16 UNL     1      27.156 -23.529 140.320  1.00  0.00     0.122 A
HETATM   20 BR1  UNL     1      27.622 -22.662 141.975  1.00  0.00    -0.023 Br
HETATM   21  C17 UNL     1      26.233 -24.544 140.153  1.00  0.00     0.059 A
ENDBRANCH  15  16
ENDBRANCH  13  15
ENDBRANCH  12  13
BRANCH   7  22
HETATM   22  N3  UNL     1      23.458 -24.067 132.328  1.00  0.00    -0.340 N
ATOM     23  H3  UNL     1      22.519 -24.361 132.058  1.00  0.00     0.167 HD
BRANCH  22  24
HETATM   24  C6  UNL     1      24.136 -23.152 131.479  1.00  0.00     0.033 A
HETATM   25  C7  UNL     1      23.439 -22.076 130.975  1.00  0.00     0.029 A
HETATM   26  C8  UNL     1      24.075 -21.173 130.149  1.00  0.00     0.002 A
HETATM   27  C9  UNL     1      25.393 -21.345 129.832  1.00  0.00     0.000 A
HETATM   28  C10 UNL     1      26.098 -22.424 130.335  1.00  0.00     0.002 A
HETATM   29  C11 UNL     1      25.465 -23.324 131.159  1.00  0.00     0.029 A
ENDBRANCH  22  24
ENDBRANCH   7  22
TORSDOF 5
ENDMDL