MODEL 1
REMARK VINA RESULT: -6.743343020      0.000      0.000
REMARK  6 active torsions:
REMARK  status: ('A' for Active; 'I' for Inactive)
REMARK    1  A    between atoms: N1_1  and  C1_5
REMARK    2  A    between atoms: C1_5  and  C2_6
REMARK    3  A    between atoms: C1_5  and  C12_23
REMARK    4  A    between atoms: C2_6  and  O2_8
REMARK    5  A    between atoms: O2_8  and  C3_9
REMARK    6  A    between atoms: C4_11  and  C5_12
ROOT
HETATM    1  C3  UNL     1      23.188 -20.720 128.086  1.00  0.00     0.138 A
HETATM    2  S1  UNL     1      23.265 -20.774 129.791  1.00  0.00    -0.064 SA
HETATM    3  C4  UNL     1      24.873 -21.317 129.979  1.00  0.00     0.009 A
HETATM    4  C10 UNL     1      25.306 -21.441 128.689  1.00  0.00     0.041 A
HETATM    5  C11 UNL     1      24.436 -21.133 127.712  1.00  0.00     0.053 A
HETATM    6 BR1  UNL     1      24.877 -21.250 125.822  1.00  0.00    -0.048 Br
ENDROOT
BRANCH   1   7
HETATM    7  O2  UNL     1      22.111 -20.344 127.247  1.00  0.00    -0.268 OA
BRANCH   7   8
HETATM    8  C2  UNL     1      20.837 -20.817 127.494  1.00  0.00     0.295 C
HETATM    9  O1  UNL     1      20.682 -22.081 127.311  1.00  0.00    -0.262 OA
BRANCH   8  10
HETATM   10  C1  UNL     1      19.689 -20.001 127.935  1.00  0.00     0.286 C
BRANCH  10  11
HETATM   11  N1  UNL     1      18.515 -20.850 128.190  1.00  0.00    -0.066 N
ATOM     12  H13 UNL     1      17.668 -20.455 127.783  1.00  0.00     0.275 HD
ATOM     13  H12 UNL     1      18.552 -21.718 127.655  1.00  0.00     0.275 HD
ATOM     14  H11 UNL     1      18.408 -21.026 129.190  1.00  0.00     0.275 HD
ENDBRANCH  10  11
BRANCH  10  15
HETATM   15  C12 UNL     1      19.954 -19.215 129.190  1.00  0.00     0.026 C
HETATM   16  C13 UNL     1      19.609 -20.069 130.380  1.00  0.00     0.007 C
HETATM   17  C14 UNL     1      19.258 -19.072 131.465  1.00  0.00     0.000 C
HETATM   18  C15 UNL     1      18.807 -17.822 130.750  1.00  0.00     0.000 C
HETATM   19  C16 UNL     1      18.934 -18.098 129.267  1.00  0.00     0.007 C
ENDBRANCH  10  15
ENDBRANCH   8  10
ENDBRANCH   7   8
ENDBRANCH   1   7
BRANCH   3  20
HETATM   20  C5  UNL     1      25.589 -21.557 131.236  1.00  0.00     0.031 C
HETATM   21  C6  UNL     1      25.235 -22.486 132.063  1.00  0.00     0.012 C
HETATM   22  C7  UNL     1      24.112 -23.427 131.914  1.00  0.00     0.064 C
HETATM   23  C9  UNL     1      25.920 -22.773 133.345  1.00  0.00     0.247 C
HETATM   24  C8  UNL     1      23.845 -23.818 133.362  1.00  0.00     0.128 C
HETATM   25  N2  UNL     1      25.159 -23.784 133.988  1.00  0.00    -0.357 N
ATOM     26  H2  UNL     1      25.476 -24.381 134.752  1.00  0.00     0.162 HD
HETATM   27  O3  UNL     1      26.969 -22.206 133.746  1.00  0.00    -0.268 OA
ENDBRANCH   3  20
TORSDOF 6
ENDMDL