MODEL 2
REMARK VINA RESULT: -7.225373243      3.225      5.781
REMARK  6 active torsions:
REMARK  status: ('A' for Active; 'I' for Inactive)
REMARK    1  A    between atoms: O1_2  and  C2_3
REMARK    2  A    between atoms: C5_6  and  N1_7
REMARK    3  A    between atoms: N1_7  and  C6_9
REMARK    4  A    between atoms: C9_14  and  N3_15
REMARK    5  A    between atoms: N3_15  and  C10_17
REMARK    6  A    between atoms: C18_29  and  O3_30
ROOT
HETATM    1  C6  UNL     1      24.798 -24.675 133.930  1.00  0.00     0.684 A
HETATM    2  N2  UNL     1      24.486 -24.484 132.633  1.00  0.00    -0.194 N
ATOM      3  H2  UNL     1      23.875 -25.143 132.151  1.00  0.00     0.184 HD
HETATM    4  C7  UNL     1      24.988 -23.416 131.975  1.00  0.00     0.041 A
HETATM    5  C8  UNL     1      25.815 -22.520 132.624  1.00  0.00     0.033 A
HETATM    6  C9  UNL     1      26.127 -22.724 133.947  1.00  0.00     0.128 A
HETATM    7  N4  UNL     1      25.601 -23.799 134.547  1.00  0.00    -0.176 N
ATOM      8  H4  UNL     1      25.824 -23.960 135.529  1.00  0.00     0.186 HD
HETATM    9  C12 UNL     1      26.313 -21.380 131.813  1.00  0.00     0.213 C
HETATM   10  O2  UNL     1      25.329 -20.822 131.049  1.00  0.00    -0.376 OA
HETATM   11  C13 UNL     1      24.457 -21.656 130.421  1.00  0.00     0.059 C
HETATM   12  C14 UNL     1      23.007 -21.404 130.853  1.00  0.00     0.046 C
HETATM   13  C15 UNL     1      24.493 -21.318 128.926  1.00  0.00     0.046 C
HETATM   14  C16 UNL     1      24.703 -23.118 130.547  1.00  0.00     0.095 C
ENDROOT
BRANCH   1  15
HETATM   15  N1  UNL     1      24.311 -25.708 134.560  1.00  0.00    -0.192 N
ATOM     16  H1  UNL     1      23.976 -26.503 134.015  1.00  0.00     0.184 HD
BRANCH  15  17
HETATM   17  C5  UNL     1      24.229 -25.766 135.968  1.00  0.00     0.052 A
HETATM   18  C4  UNL     1      23.115 -25.245 136.566  1.00  0.00     0.033 A
HETATM   19  C3  UNL     1      23.016 -25.293 137.938  1.00  0.00     0.042 A
HETATM   20  C2  UNL     1      24.009 -25.851 138.727  1.00  0.00     0.101 A
HETATM   21  C18 UNL     1      25.111 -26.363 138.073  1.00  0.00     0.103 A
HETATM   22  C17 UNL     1      25.246 -26.334 136.701  1.00  0.00     0.069 A
BRANCH  20  23
HETATM   23  O1  UNL     1      23.927 -25.907 140.110  1.00  0.00    -0.353 OA
HETATM   24  C1  UNL     1      22.960 -26.787 140.667  1.00  0.00     0.210 C
ENDBRANCH  20  23
BRANCH  21  25
HETATM   25  O3  UNL     1      26.109 -26.925 138.889  1.00  0.00    -0.353 OA
HETATM   26  C19 UNL     1      27.348 -26.212 139.004  1.00  0.00     0.210 C
ENDBRANCH  21  25
ENDBRANCH  15  17
ENDBRANCH   1  15
BRANCH   6  27
HETATM   27  N3  UNL     1      26.901 -21.883 134.549  1.00  0.00    -0.358 N
ATOM     28  H3  UNL     1      26.690 -20.890 134.449  1.00  0.00     0.162 HD
BRANCH  27  29
HETATM   29  C10 UNL     1      28.035 -22.245 135.349  1.00  0.00     0.176 C
HETATM   30  C11 UNL     1      28.899 -20.992 135.489  1.00  0.00     0.049 C
HETATM   31 CL1  UNL     1      27.449 -22.693 136.982  1.00  0.00    -0.103 Cl
ENDBRANCH  27  29
ENDBRANCH   6  27
TORSDOF 6
ENDMDL