MODEL 5
REMARK VINA RESULT: -6.937743104      9.001     11.247
REMARK  4 active torsions:
REMARK  status: ('A' for Active; 'I' for Inactive)
REMARK    1  A    between atoms: C6_10  and  N2_11
REMARK    2  A    between atoms: N2_11  and  S2_13
REMARK    3  A    between atoms: S2_13  and  C7_16
REMARK    4  A    between atoms: C9_18  and  C10_19
ROOT
HETATM    1  C1  UNL     1      22.019 -26.276 135.077  1.00  0.00     0.057 C
HETATM    2  C2  UNL     1      21.818 -26.185 136.559  1.00  0.00    -0.012 A
HETATM    3  S1  UNL     1      20.394 -25.766 137.378  1.00  0.00    -0.076 SA
HETATM    4  C3  UNL     1      20.965 -25.887 138.996  1.00  0.00     0.087 A
HETATM    5  N1  UNL     1      20.372 -25.692 140.219  1.00  0.00    -0.358 N
ATOM      6  H1  UNL     1      19.391 -25.417 140.265  1.00  0.00     0.166 HD
HETATM    7  C4  UNL     1      21.059 -25.858 141.346  1.00  0.00     0.115 A
HETATM    8  C5  UNL     1      22.377 -26.230 141.247  1.00  0.00     0.077 A
HETATM    9 CL1  UNL     1      23.262 -26.443 142.781  1.00  0.00    -0.080 Cl
HETATM   10  C6  UNL     1      23.016 -26.438 140.043  1.00  0.00     0.079 A
HETATM   11  C12 UNL     1      22.261 -26.254 138.830  1.00  0.00     0.034 A
HETATM   12  C13 UNL     1      22.712 -26.411 137.575  1.00  0.00    -0.034 A
HETATM   13  C14 UNL     1      24.133 -26.819 137.204  1.00  0.00     0.050 C
ENDROOT
BRANCH  10  14
HETATM   14  N2  UNL     1      24.187 -26.765 140.001  1.00  0.00    -0.277 N
ATOM     15  H2  UNL     1      24.167 -27.613 139.434  1.00  0.00     0.179 HD
BRANCH  14  16
HETATM   16  S2  UNL     1      25.761 -26.599 140.348  1.00  0.00     0.269 S
HETATM   17  O1  UNL     1      26.167 -27.209 141.711  1.00  0.00    -0.200 OA
HETATM   18  O2  UNL     1      26.718 -27.266 139.362  1.00  0.00    -0.200 OA
BRANCH  16  19
HETATM   19  C7  UNL     1      26.298 -24.918 140.516  1.00  0.00     0.121 A
HETATM   20  C8  UNL     1      25.885 -24.032 141.458  1.00  0.00     0.050 A
HETATM   21  C9  UNL     1      26.409 -22.781 141.408  1.00  0.00     0.037 A
HETATM   22  C11 UNL     1      27.314 -22.540 140.399  1.00  0.00     0.067 A
HETATM   23  S3  UNL     1      27.398 -24.027 139.578  1.00  0.00    -0.087 SA
BRANCH  21  24
HETATM   24  C10 UNL     1      26.066 -21.695 142.357  1.00  0.00     0.265 C
HETATM   25  N3  UNL     1      26.354 -21.855 143.725  1.00  0.00    -0.057 NA
HETATM   26  O3  UNL     1      25.528 -20.631 141.990  1.00  0.00    -0.271 OA
ENDBRANCH  21  24
ENDBRANCH  16  19
ENDBRANCH  14  16
ENDBRANCH  10  14
TORSDOF 4
ENDMDL