MODEL 5
REMARK VINA RESULT: -6.543155710      2.599      5.456
REMARK  7 active torsions:
REMARK  status: ('A' for Active; 'I' for Inactive)
REMARK    1  A    between atoms: C2_2  and  C3_3
REMARK    2  A    between atoms: C11_12  and  C12_13
REMARK    3  A    between atoms: C12_13  and  C14_15
REMARK    4  A    between atoms: C16_18  and  C17_19
REMARK    5  A    between atoms: C17_19  and  C18_21
REMARK    6  A    between atoms: C18_21  and  O4_22
REMARK    7  A    between atoms: C23_28  and  O5_29
ROOT
HETATM    1  C3  UNL     1      23.365 -30.411 141.630  1.00  0.00     0.043 C
HETATM    2  C4  UNL     1      23.847 -29.217 142.384  1.00  0.00     0.094 C
HETATM    3  C5  UNL     1      24.409 -28.143 141.567  1.00  0.00     0.156 C
HETATM    4  O1  UNL     1      25.413 -27.531 142.077  1.00  0.00    -0.293 OA
HETATM    5  C6  UNL     1      24.040 -27.605 140.230  1.00  0.00    -0.007 C
HETATM    6  C7  UNL     1      24.986 -26.867 139.747  1.00  0.00    -0.015 C
HETATM    7  C8  UNL     1      24.881 -26.221 138.451  1.00  0.00     0.033 C
HETATM    8  C9  UNL     1      23.434 -26.039 138.047  1.00  0.00    -0.005 C
HETATM    9  C10 UNL     1      23.479 -25.639 136.583  1.00  0.00     0.014 C
HETATM   10  C11 UNL     1      22.979 -26.738 135.675  1.00  0.00     0.022 C
HETATM   11  C15 UNL     1      21.593 -27.182 136.010  1.00  0.00     0.022 C
HETATM   12  C16 UNL     1      21.381 -27.388 137.511  1.00  0.00     0.064 C
HETATM   13  C19 UNL     1      22.663 -27.327 138.197  1.00  0.00     0.014 C
HETATM   14  C20 UNL     1      22.751 -27.905 139.585  1.00  0.00    -0.006 C
HETATM   15  C21 UNL     1      21.679 -27.372 140.513  1.00  0.00     0.021 C
HETATM   16  C22 UNL     1      22.518 -29.393 139.470  1.00  0.00     0.047 C
HETATM   17  C23 UNL     1      23.524 -30.255 140.117  1.00  0.00     0.127 C
ENDROOT
BRANCH  12  18
HETATM   18  C17 UNL     1      20.243 -26.580 137.891  1.00  0.00     0.154 C
HETATM   19  O3  UNL     1      19.240 -27.143 138.365  1.00  0.00    -0.295 OA
BRANCH  18  20
HETATM   20  C18 UNL     1      20.093 -25.106 137.793  1.00  0.00     0.242 C
BRANCH  20  21
HETATM   21  O4  UNL     1      20.590 -24.431 138.918  1.00  0.00    -0.394 OA
ATOM     22  H4  UNL     1      21.062 -25.002 139.513  1.00  0.00     0.209 HD
ENDBRANCH  20  21
ENDBRANCH  18  20
ENDBRANCH  12  18
BRANCH  10  23
HETATM   23  C12 UNL     1      22.974 -26.195 134.292  1.00  0.00    -0.026 C
HETATM   24  C13 UNL     1      22.236 -26.697 133.322  1.00  0.00     0.022 C
BRANCH  23  25
HETATM   25  C14 UNL     1      23.824 -25.055 133.998  1.00  0.00     0.265 C
HETATM   26  O2  UNL     1      25.029 -25.209 133.625  1.00  0.00    -0.302 OA
ENDBRANCH  23  25
ENDBRANCH  10  23
BRANCH  17  27
HETATM   27  O5  UNL     1      24.836 -29.986 139.800  1.00  0.00    -0.395 OA
ATOM     28  H5  UNL     1      25.335 -30.793 139.748  1.00  0.00     0.210 HD
ENDBRANCH  17  27
BRANCH   1  29
HETATM   29  C2  UNL     1      21.990 -30.811 142.006  1.00  0.00    -0.029 C
HETATM   30  C1  UNL     1      21.354 -30.262 143.051  1.00  0.00     0.007 C
ENDBRANCH   1  29
TORSDOF 7
ENDMDL