MODEL 4
REMARK VINA RESULT: -7.784071063      0.919      1.211
REMARK  4 active torsions:
REMARK  status: ('A' for Active; 'I' for Inactive)
REMARK    1  A    between atoms: N1_4  and  C4_5
REMARK    2  A    between atoms: C4_5  and  C5_6
REMARK    3  A    between atoms: C8_9  and  N2_10
REMARK    4  A    between atoms: N5_23  and  C15_24
ROOT
HETATM    1  N2  UNL     1      24.911 -23.816 132.787  1.00  0.00    -0.370 N
ATOM      2  H2  UNL     1      25.669 -23.474 133.378  1.00  0.00     0.161 HD
HETATM    3  C9  UNL     1      24.058 -24.639 133.285  1.00  0.00     0.132 A
HETATM    4  N3  UNL     1      23.038 -25.135 132.583  1.00  0.00    -0.331 N
ATOM      5  H3  UNL     1      22.907 -24.867 131.608  1.00  0.00     0.168 HD
HETATM    6  C10 UNL     1      22.175 -26.001 133.176  1.00  0.00     0.107 A
HETATM    7 CL1  UNL     1      20.854 -26.609 132.179  1.00  0.00    -0.064 Cl
HETATM    8  C11 UNL     1      22.344 -26.367 134.478  1.00  0.00     0.074 A
HETATM    9  C12 UNL     1      23.389 -25.873 135.233  1.00  0.00     0.069 A
HETATM   10  C13 UNL     1      24.255 -24.998 134.624  1.00  0.00     0.104 A
HETATM   11  N4  UNL     1      25.162 -24.671 135.548  1.00  0.00    -0.347 N
ATOM     12  H4  UNL     1      25.947 -24.035 135.411  1.00  0.00     0.167 HD
HETATM   13  C14 UNL     1      24.871 -25.316 136.684  1.00  0.00     0.184 A
HETATM   14  N5  UNL     1      23.761 -26.082 136.523  1.00  0.00    -0.335 N
ENDROOT
BRANCH   1  15
HETATM   15  C8  UNL     1      24.832 -23.364 131.436  1.00  0.00     0.083 C
HETATM   16  C7  UNL     1      26.176 -22.883 130.892  1.00  0.00     0.025 C
HETATM   17  C6  UNL     1      25.733 -22.153 129.641  1.00  0.00     0.008 C
HETATM   18  C5  UNL     1      24.445 -21.501 130.019  1.00  0.00     0.016 C
HETATM   19  C20 UNL     1      24.036 -22.074 131.375  1.00  0.00     0.031 C
BRANCH  18  20
HETATM   20  C4  UNL     1      23.321 -21.754 129.076  1.00  0.00     0.277 C
BRANCH  20  21
HETATM   21  N1  UNL     1      23.727 -22.439 127.867  1.00  0.00     0.089 N
HETATM   22  C3  UNL     1      22.623 -22.954 127.078  1.00  0.00     0.278 C
HETATM   23  C2  UNL     1      22.492 -21.621 126.400  1.00  0.00     0.038 C
HETATM   24  C1  UNL     1      22.240 -21.668 124.916  1.00  0.00     0.013 C
HETATM   25  C21 UNL     1      23.938 -21.448 126.805  1.00  0.00     0.278 C
ENDBRANCH  20  21
ENDBRANCH  18  20
ENDBRANCH   1  15
BRANCH  14  26
HETATM   26  C15 UNL     1      23.125 -26.924 137.498  1.00  0.00     0.116 C
HETATM   27  C16 UNL     1      23.264 -28.392 137.217  1.00  0.00     0.029 C
HETATM   28  C17 UNL     1      22.791 -29.152 138.434  1.00  0.00     0.029 C
HETATM   29  C18 UNL     1      22.092 -28.249 139.430  1.00  0.00     0.232 C
HETATM   30  N6  UNL     1      23.002 -27.238 139.913  1.00  0.00    -0.073 N
HETATM   31  C19 UNL     1      23.767 -26.653 138.843  1.00  0.00     0.257 C
ATOM     32  H62 UNL     1      22.512 -26.524 140.453  1.00  0.00     0.277 HD
ATOM     33  H61 UNL     1      23.609 -27.604 140.647  1.00  0.00     0.277 HD
ENDBRANCH  14  26
TORSDOF 4
ENDMDL