MODEL 2
REMARK VINA RESULT: -8.322400026      3.271      5.051
REMARK  5 active torsions:
REMARK  status: ('A' for Active; 'I' for Inactive)
REMARK    1  A    between atoms: N1_2  and  C2_4
REMARK    2  A    between atoms: C7_13  and  C8_14
REMARK    3  A    between atoms: C9_15  and  C10_16
REMARK    4  A    between atoms: C12_18  and  C13_19
REMARK    5  A    between atoms: C13_19  and  N4_20
ROOT
HETATM    1  C2  UNL     1      23.915 -23.196 129.683  1.00  0.00     0.130 A
HETATM    2  N2  UNL     1      24.016 -22.328 128.635  1.00  0.00    -0.345 N
ATOM      3  H2  UNL     1      23.561 -22.548 127.749  1.00  0.00     0.167 HD
HETATM    4  C3  UNL     1      24.710 -21.192 128.761  1.00  0.00     0.009 A
HETATM    5  C4  UNL     1      24.782 -20.282 127.575  1.00  0.00     0.068 C
HETATM    6  C5  UNL     1      25.352 -20.830 129.925  1.00  0.00     0.056 A
HETATM    7  C6  UNL     1      25.280 -21.672 131.009  1.00  0.00     0.065 A
HETATM    8  N3  UNL     1      25.888 -21.370 132.171  1.00  0.00    -0.352 N
ATOM      9  H3  UNL     1      26.417 -20.503 132.265  1.00  0.00     0.166 HD
HETATM   10  C7  UNL     1      25.793 -22.208 133.190  1.00  0.00     0.071 A
HETATM   11  C20 UNL     1      25.078 -23.371 133.049  1.00  0.00     0.131 A
HETATM   12 CL1  UNL     1      24.977 -24.456 134.426  1.00  0.00    -0.062 Cl
HETATM   13  N7  UNL     1      24.465 -23.692 131.902  1.00  0.00    -0.340 N
ATOM     14  H7  UNL     1      23.941 -24.564 131.825  1.00  0.00     0.167 HD
HETATM   15  C21 UNL     1      24.549 -22.850 130.846  1.00  0.00     0.104 A
ENDROOT
BRANCH  10  16
HETATM   16  C8  UNL     1      26.474 -21.850 134.464  1.00  0.00     0.035 C
HETATM   17  C9  UNL     1      27.649 -22.358 134.750  1.00  0.00     0.032 C
BRANCH  17  18
HETATM   18  C10 UNL     1      28.330 -22.028 135.974  1.00  0.00     0.034 C
HETATM   19  C11 UNL     1      27.798 -22.525 137.151  1.00  0.00     0.038 C
HETATM   20  C12 UNL     1      28.297 -23.035 138.346  1.00  0.00    -0.038 C
HETATM   21  C16 UNL     1      29.532 -23.028 138.958  1.00  0.00     0.011 C
HETATM   22  C17 UNL     1      30.735 -22.420 138.672  1.00  0.00     0.034 C
HETATM   23  C18 UNL     1      31.157 -21.454 137.759  1.00  0.00     0.078 A
HETATM   24  N5  UNL     1      31.729 -20.489 136.993  1.00  0.00    -0.338 N
HETATM   25  C19 UNL     1      30.551 -20.987 136.512  1.00  0.00     0.133 A
ATOM     26  H5  UNL     1      32.506 -19.839 136.865  1.00  0.00     0.167 HD
HETATM   27  N6  UNL     1      29.445 -21.256 135.785  1.00  0.00    -0.341 N
ATOM     28  H6  UNL     1      29.439 -20.772 134.887  1.00  0.00     0.167 HD
BRANCH  20  29
HETATM   29  C13 UNL     1      27.267 -23.741 139.136  1.00  0.00     0.154 C
BRANCH  29  30
HETATM   30  N4  UNL     1      26.833 -24.979 138.589  1.00  0.00    -0.417 N
HETATM   31  C14 UNL     1      25.421 -25.143 138.463  1.00  0.00     0.142 C
HETATM   32  C15 UNL     1      27.547 -26.132 139.026  1.00  0.00     0.142 C
ENDBRANCH  29  30
ENDBRANCH  20  29
ENDBRANCH  17  18
ENDBRANCH  10  16
BRANCH   1  33
HETATM   33  N1  UNL     1      23.253 -24.251 129.519  1.00  0.00    -0.379 N
HETATM   34  C1  UNL     1      22.326 -24.604 128.499  1.00  0.00     0.147 C
ATOM     35  H1  UNL     1      23.403 -24.968 130.229  1.00  0.00     0.160 HD
ENDBRANCH   1  33
TORSDOF 5
ENDMDL