MODEL 3
REMARK VINA RESULT: -6.235019821     11.230     13.853
REMARK  7 active torsions:
REMARK  status: ('A' for Active; 'I' for Inactive)
REMARK    1  A    between atoms: C2_2  and  C3_3
REMARK    2  A    between atoms: C11_12  and  O1_13
REMARK    3  A    between atoms: C13_16  and  O2_17
REMARK    4  A    between atoms: O2_17  and  C14_18
REMARK    5  A    between atoms: C18_23  and  O4_24
REMARK    6  A    between atoms: C19_26  and  C20_27
REMARK    7  A    between atoms: C20_27  and  O5_28
ROOT
HETATM    1  C3  UNL     1      21.396 -28.299 142.680  1.00  0.00    -0.001 C
HETATM    2  C4  UNL     1      21.249 -29.788 142.648  1.00  0.00     0.007 C
HETATM    3  C5  UNL     1      22.493 -30.525 142.341  1.00  0.00     0.021 C
HETATM    4  C6  UNL     1      23.097 -29.946 141.087  1.00  0.00     0.087 C
HETATM    5 CL1  UNL     1      24.661 -30.861 140.934  1.00  0.00    -0.125 Cl
HETATM    6  C7  UNL     1      23.394 -28.476 141.299  1.00  0.00     0.018 C
HETATM    7  C8  UNL     1      24.276 -28.116 140.165  1.00  0.00     0.019 C
HETATM    8  C9  UNL     1      24.959 -26.842 140.073  1.00  0.00    -0.011 C
HETATM    9  C10 UNL     1      24.701 -26.133 138.786  1.00  0.00     0.018 C
HETATM   10  C11 UNL     1      26.497 -26.901 140.201  1.00  0.00     0.129 C
HETATM   11  C12 UNL     1      26.758 -25.407 140.322  1.00  0.00     0.065 C
HETATM   12  C13 UNL     1      25.817 -25.023 141.397  1.00  0.00     0.139 C
HETATM   13  C16 UNL     1      24.702 -26.008 141.301  1.00  0.00     0.028 C
HETATM   14  C17 UNL     1      23.336 -25.482 141.176  1.00  0.00     0.040 C
HETATM   15  C18 UNL     1      22.356 -26.286 141.968  1.00  0.00     0.130 C
HETATM   16  C19 UNL     1      22.160 -27.717 141.503  1.00  0.00     0.016 C
ENDROOT
BRANCH  12  17
HETATM   17  O2  UNL     1      25.450 -23.703 141.505  1.00  0.00    -0.316 OA
BRANCH  17  18
HETATM   18  C14 UNL     1      26.036 -22.695 142.190  1.00  0.00     0.255 C
HETATM   19  C15 UNL     1      27.106 -23.011 143.168  1.00  0.00     0.126 C
HETATM   20  O3  UNL     1      25.647 -21.548 141.967  1.00  0.00    -0.266 OA
ENDBRANCH  17  18
ENDBRANCH  12  17
BRANCH  10  21
HETATM   21  O1  UNL     1      27.079 -27.375 139.053  1.00  0.00    -0.395 OA
ATOM     22  H1  UNL     1      27.338 -28.284 139.144  1.00  0.00     0.210 HD
ENDBRANCH  10  21
BRANCH  15  23
HETATM   23  O4  UNL     1      22.712 -26.187 143.308  1.00  0.00    -0.395 OA
ATOM     24  H4  UNL     1      21.981 -26.501 143.826  1.00  0.00     0.210 HD
ENDBRANCH  15  23
BRANCH  16  25
HETATM   25  C20 UNL     1      21.265 -27.604 140.294  1.00  0.00     0.179 C
BRANCH  25  26
HETATM   26  O5  UNL     1      21.006 -26.361 139.824  1.00  0.00    -0.395 OA
HETATM   27  C21 UNL     1      20.949 -26.397 138.446  1.00  0.00     0.201 C
ENDBRANCH  25  26
ENDBRANCH  16  25
BRANCH   1  28
HETATM   28  C2  UNL     1      20.023 -27.738 142.842  1.00  0.00     0.001 C
HETATM   29  C1  UNL     1      19.176 -28.851 143.483  1.00  0.00     0.005 C
ENDBRANCH   1  28
TORSDOF 7
ENDMDL