MODEL 2
REMARK VINA RESULT: -6.015018445      2.360      3.341
REMARK  6 active torsions:
REMARK  status: ('A' for Active; 'I' for Inactive)
REMARK    1  A    between atoms: O1_2  and  N1_3
REMARK    2  A    between atoms: N1_3  and  C2_5
REMARK    3  A    between atoms: C3_8  and  N3_9
REMARK    4  A    between atoms: N3_9  and  N4_11
REMARK    5  A    between atoms: C4_16  and  N6_17
REMARK    6  A    between atoms: N6_17  and  C5_19
ROOT
HETATM    1  C2  UNL     1      53.555 -17.661  -6.914  1.00  0.00     0.731 A
HETATM    2  N2  UNL     1      52.723 -17.984  -5.906  1.00  0.00    -0.018 N
ATOM      3  H2  UNL     1      51.722 -17.817  -6.010  1.00  0.00     0.203 HD
HETATM    4  C3  UNL     1      53.194 -18.528  -4.752  1.00  0.00     0.725 A
HETATM    5  N5  UNL     1      54.507 -18.754  -4.599  1.00  0.00    -0.020 N
ATOM      6  H5  UNL     1      54.865 -19.162  -3.735  1.00  0.00     0.203 HD
HETATM    7  C4  UNL     1      55.337 -18.436  -5.595  1.00  0.00     0.712 A
HETATM    8  N9  UNL     1      54.862 -17.901  -6.726  1.00  0.00    -0.019 N
ATOM      9  H9  UNL     1      55.517 -17.666  -7.472  1.00  0.00     0.203 HD
ENDROOT
BRANCH   7  10
HETATM   10  N6  UNL     1      56.630 -18.646  -5.475  1.00  0.00    -0.178 N
ATOM     11  H6  UNL     1      57.211 -17.965  -4.987  1.00  0.00     0.185 HD
BRANCH  10  12
HETATM   12  C5  UNL     1      57.212 -19.802  -6.015  1.00  0.00     0.123 C
HETATM   13  N7  UNL     1      58.172 -19.806  -6.877  1.00  0.00    -0.353 N
HETATM   14  C6  UNL     1      58.505 -21.180  -7.198  1.00  0.00     0.396 C
ATOM     15  H7  UNL     1      58.622 -18.978  -7.268  1.00  0.00     0.162 HD
HETATM   16  N8  UNL     1      57.257 -21.864  -6.956  1.00  0.00     0.108 N
HETATM   17  C7  UNL     1      56.318 -21.373  -7.976  1.00  0.00     0.312 C
HETATM   18  C8  UNL     1      56.835 -21.222  -5.700  1.00  0.00     0.350 C
ENDBRANCH  10  12
ENDBRANCH   7  10
BRANCH   4  19
HETATM   19  N3  UNL     1      52.397 -18.829  -3.806  1.00  0.00    -0.138 N
ATOM     20  H3  UNL     1      52.655 -18.540  -2.862  1.00  0.00     0.205 HD
BRANCH  19  21
HETATM   21  N4  UNL     1      51.206 -19.521  -3.962  1.00  0.00    -0.331 N
ATOM     22  H42 UNL     1      51.230 -20.333  -4.578  1.00  0.00     0.177 HD
ATOM     23  H41 UNL     1      50.326 -19.275  -3.510  1.00  0.00     0.177 HD
ENDBRANCH  19  21
ENDBRANCH   4  19
BRANCH   1  24
HETATM   24  N1  UNL     1      53.099 -17.138  -8.021  1.00  0.00    -0.096 N
ATOM     25  H1  UNL     1      52.937 -16.133  -8.080  1.00  0.00     0.213 HD
BRANCH  24  26
HETATM   26  O1  UNL     1      52.842 -17.925  -9.088  1.00  0.00    -0.271 OA
HETATM   27  C1  UNL     1      52.735 -19.313  -9.089  1.00  0.00     0.238 C
ENDBRANCH  24  26
ENDBRANCH   1  24
TORSDOF 6
ENDMDL