MODEL 2
REMARK VINA RESULT: -5.857463337      4.289      6.574
REMARK  6 active torsions:
REMARK  status: ('A' for Active; 'I' for Inactive)
REMARK    1  A    between atoms: N1_1  and  C1_5
REMARK    2  A    between atoms: C1_5  and  C2_6
REMARK    3  A    between atoms: C2_6  and  N2_7
REMARK    4  A    between atoms: N2_7  and  C3_9
REMARK    5  A    between atoms: C4_12  and  N4_13
REMARK    6  A    between atoms: C6_17  and  N6_18
ROOT
HETATM    1  C3  UNL     1      54.384 -17.610  -8.044  1.00  0.00     0.679 A
HETATM    2  N3  UNL     1      55.166 -18.706  -8.093  1.00  0.00    -0.172 N
ATOM      3  H3  UNL     1      54.778 -19.561  -8.493  1.00  0.00     0.186 HD
HETATM    4  C4  UNL     1      56.439 -18.730  -7.638  1.00  0.00     0.179 A
HETATM    5  C7  UNL     1      56.941 -17.547  -7.099  1.00  0.00     0.097 A
HETATM    6 CL1  UNL     1      58.604 -17.526  -6.492  1.00  0.00    -0.079 Cl
HETATM    7  C8  UNL     1      56.160 -16.421  -7.042  1.00  0.00     0.134 A
HETATM    8  N8  UNL     1      54.910 -16.483  -7.514  1.00  0.00    -0.200 N
ATOM      9  H8  UNL     1      54.329 -15.646  -7.472  1.00  0.00     0.183 HD
ENDROOT
BRANCH   4  10
HETATM   10  N4  UNL     1      57.219 -19.913  -7.715  1.00  0.00    -0.180 N
HETATM   11  N5  UNL     1      58.003 -20.417  -8.766  1.00  0.00    -0.292 N
HETATM   12  C5  UNL     1      58.906 -21.208  -8.302  1.00  0.00     0.133 C
ATOM     13  H5  UNL     1      57.875 -20.191  -9.752  1.00  0.00     0.187 HD
HETATM   14  C6  UNL     1      58.730 -21.247  -6.835  1.00  0.00     0.337 C
HETATM   15  N7  UNL     1      57.348 -20.848  -6.685  1.00  0.00    -0.077 NA
BRANCH  14  16
HETATM   16  N6  UNL     1      58.970 -22.572  -6.297  1.00  0.00    -0.055 N
ATOM     17  H63 UNL     1      59.584 -23.113  -6.904  1.00  0.00     0.276 HD
ATOM     18  H62 UNL     1      59.560 -22.533  -5.465  1.00  0.00     0.276 HD
ATOM     19  H61 UNL     1      58.100 -23.070  -6.111  1.00  0.00     0.276 HD
ENDBRANCH  14  16
ENDBRANCH   4  10
BRANCH   1  20
HETATM   20  N2  UNL     1      53.173 -17.629  -8.487  1.00  0.00    -0.224 N
ATOM     21  H2  UNL     1      52.987 -17.882  -9.458  1.00  0.00     0.177 HD
BRANCH  20  22
HETATM   22  C2  UNL     1      52.078 -17.289  -7.604  1.00  0.00     0.165 C
BRANCH  22  23
HETATM   23  C1  UNL     1      51.840 -18.426  -6.614  1.00  0.00     0.249 C
BRANCH  23  24
HETATM   24  N1  UNL     1      52.153 -18.013  -5.268  1.00  0.00    -0.078 N
ATOM     25  H13 UNL     1      52.507 -17.056  -5.241  1.00  0.00     0.274 HD
ATOM     26  H12 UNL     1      51.310 -17.880  -4.710  1.00  0.00     0.274 HD
ATOM     27  H11 UNL     1      52.799 -18.666  -4.825  1.00  0.00     0.274 HD
ENDBRANCH  23  24
ENDBRANCH  22  23
ENDBRANCH  20  22
ENDBRANCH   1  20
TORSDOF 6
ENDMDL