MODEL 4
REMARK VINA RESULT: -6.704269140      2.430      6.178
REMARK  5 active torsions:
REMARK  status: ('A' for Active; 'I' for Inactive)
REMARK       I    between atoms: N2_3  and  C2_5
REMARK    1  A    between atoms: C2_5  and  C3_7
REMARK    2  A    between atoms: C3_7  and  N3_8
REMARK    3  A    between atoms: C3_7  and  C4_12
REMARK       I    between atoms: C4_12  and  N4_14
REMARK    4  A    between atoms: N4_14  and  C5_16
REMARK    5  A    between atoms: C6_19  and  N6_20
ROOT
HETATM    1  N1  UNL     1      49.724 -22.143  -8.199  1.00  0.00    -0.172 NA
HETATM    2  C1  UNL     1      50.358 -21.395  -7.559  1.00  0.00     0.184 C
HETATM    3  N2  UNL     1      51.134 -20.512  -6.804  1.00  0.00    -0.262 N
ATOM      4  H2  UNL     1      51.339 -20.735  -5.830  1.00  0.00     0.181 HD
HETATM    5  C2  UNL     1      51.637 -19.322  -7.357  1.00  0.00     0.270 C
HETATM    6  O1  UNL     1      51.375 -19.057  -8.567  1.00  0.00    -0.270 OA
ENDROOT
BRANCH   5   7
HETATM    7  C3  UNL     1      52.461 -18.370  -6.577  1.00  0.00     0.367 C
BRANCH   7   8
HETATM    8  N3  UNL     1      51.801 -18.064  -5.341  1.00  0.00    -0.058 N
ATOM      9  H33 UNL     1      52.074 -18.699  -4.591  1.00  0.00     0.275 HD
ATOM     10  H32 UNL     1      52.141 -17.196  -4.928  1.00  0.00     0.275 HD
ATOM     11  H31 UNL     1      50.791 -18.051  -5.487  1.00  0.00     0.275 HD
ENDBRANCH   7   8
BRANCH   7  12
HETATM   12  C4  UNL     1      52.754 -17.136  -7.347  1.00  0.00     0.276 C
HETATM   13  O2  UNL     1      52.091 -16.102  -7.037  1.00  0.00    -0.270 OA
HETATM   14  N4  UNL     1      53.721 -17.124  -8.367  1.00  0.00    -0.156 N
ATOM     15  H4  UNL     1      53.387 -17.007  -9.324  1.00  0.00     0.187 HD
BRANCH  14  16
HETATM   16  C5  UNL     1      54.981 -17.247  -8.201  1.00  0.00     0.702 A
HETATM   17  N5  UNL     1      55.790 -16.821  -7.216  1.00  0.00    -0.153 N
HETATM   18  C6  UNL     1      57.057 -17.179  -7.459  1.00  0.00     0.279 A
ATOM     19  H5  UNL     1      55.481 -16.296  -6.397  1.00  0.00     0.187 HD
HETATM   20  N7  UNL     1      57.031 -17.845  -8.624  1.00  0.00    -0.251 N
HETATM   21  N8  UNL     1      55.784 -17.885  -9.071  1.00  0.00    -0.129 N
ATOM     22  H7  UNL     1      57.841 -18.255  -9.090  1.00  0.00     0.191 HD
ATOM     23  H8  UNL     1      55.481 -18.329  -9.938  1.00  0.00     0.205 HD
BRANCH  18  24
HETATM   24  N6  UNL     1      58.211 -16.907  -6.637  1.00  0.00    -0.077 N
HETATM   25  O3  UNL     1      58.931 -17.835  -6.276  1.00  0.00    -0.529 OA
HETATM   26  O4  UNL     1      58.502 -15.629  -6.261  1.00  0.00    -0.529 OA
ENDBRANCH  18  24
ENDBRANCH  14  16
ENDBRANCH   7  12
ENDBRANCH   5   7
TORSDOF 5
ENDMDL