MODEL 4
REMARK VINA RESULT: -6.549509602      3.578      5.627
REMARK  5 active torsions:
REMARK  status: ('A' for Active; 'I' for Inactive)
REMARK    1  A    between atoms: N1_1  and  N2_4
REMARK    2  A    between atoms: N2_4  and  C1_6
REMARK    3  A    between atoms: C2_9  and  N4_10
REMARK    4  A    between atoms: C7_21  and  N7_22
REMARK    5  A    between atoms: N7_22  and  C8_24
ROOT
HETATM    1  C1  UNL     1      52.300 -18.781  -6.301  1.00  0.00     0.725 A
HETATM    2  N3  UNL     1      51.287 -19.499  -6.813  1.00  0.00    -0.020 N
ATOM      3  H3  UNL     1      50.339 -19.131  -6.738  1.00  0.00     0.203 HD
HETATM    4  C2  UNL     1      51.477 -20.682  -7.418  1.00  0.00     0.711 A
HETATM    5  N6  UNL     1      52.744 -21.126  -7.494  1.00  0.00    -0.021 N
ATOM      6  H6  UNL     1      52.912 -22.023  -7.951  1.00  0.00     0.203 HD
HETATM    7  C7  UNL     1      53.798 -20.461  -7.006  1.00  0.00     0.707 A
HETATM    8  N8  UNL     1      53.568 -19.279  -6.406  1.00  0.00    -0.020 N
ATOM      9  H8  UNL     1      54.350 -18.748  -6.024  1.00  0.00     0.203 HD
ENDROOT
BRANCH   4  10
HETATM   10  N4  UNL     1      50.384 -21.445  -7.963  1.00  0.00    -0.182 N
HETATM   11  C3  UNL     1      49.476 -22.186  -7.151  1.00  0.00     0.172 C
HETATM   12  C4  UNL     1      48.210 -22.414  -7.965  1.00  0.00     0.253 C
HETATM   13  N5  UNL     1      48.453 -23.096  -9.199  1.00  0.00    -0.069 N
HETATM   14  C5  UNL     1      49.737 -22.840  -9.781  1.00  0.00     0.291 C
ATOM     15  H52 UNL     1      48.310 -24.099  -9.083  1.00  0.00     0.277 HD
ATOM     16  H51 UNL     1      47.713 -22.888  -9.869  1.00  0.00     0.277 HD
HETATM   17  C6  UNL     1      50.208 -21.453  -9.402  1.00  0.00     0.314 C
HETATM   18  F1  UNL     1      49.309 -20.483  -9.811  1.00  0.00    -0.224 F
ENDBRANCH   4  10
BRANCH   1  19
HETATM   19  N2  UNL     1      52.116 -17.643  -5.720  1.00  0.00    -0.138 N
ATOM     20  H2  UNL     1      51.942 -17.612  -4.715  1.00  0.00     0.205 HD
BRANCH  19  21
HETATM   21  N1  UNL     1      52.152 -16.458  -6.448  1.00  0.00    -0.331 N
ATOM     22  H12 UNL     1      51.754 -16.449  -7.388  1.00  0.00     0.177 HD
ATOM     23  H11 UNL     1      52.568 -15.615  -6.052  1.00  0.00     0.177 HD
ENDBRANCH  19  21
ENDBRANCH   1  19
BRANCH   7  24
HETATM   24  N7  UNL     1      55.010 -20.911  -7.091  1.00  0.00    -0.220 N
ATOM     25  H7  UNL     1      55.625 -20.504  -7.796  1.00  0.00     0.178 HD
BRANCH  24  26
HETATM   26  C8  UNL     1      55.537 -21.942  -6.255  1.00  0.00     0.099 A
HETATM   27  C9  UNL     1      57.051 -21.999  -6.109  1.00  0.00     0.028 A
HETATM   28  C10 UNL     1      56.187 -21.537  -4.986  1.00  0.00     0.028 A
ENDBRANCH  24  26
ENDBRANCH   7  24
TORSDOF 5
ENDMDL