MODEL 4
REMARK VINA RESULT: -6.592593518      3.040      5.181
REMARK  6 active torsions:
REMARK  status: ('A' for Active; 'I' for Inactive)
REMARK    1  A    between atoms: C3_3  and  N1_4
REMARK    2  A    between atoms: C6_12  and  C7_14
REMARK    3  A    between atoms: C7_14  and  O2_15
REMARK    4  A    between atoms: C7_14  and  C8_17
REMARK    5  A    between atoms: C8_17  and  O3_18
REMARK    6  A    between atoms: C9_20  and  N3_21
ROOT
HETATM    1  C1  UNL     1      57.847 -18.259  -9.570  1.00  0.00     0.015 C
HETATM    2  C2  UNL     1      57.616 -18.239  -8.389  1.00  0.00    -0.073 C
HETATM    3  C3  UNL     1      57.322 -18.240  -6.934  1.00  0.00     0.241 C
HETATM    4  C4  UNL     1      56.115 -17.409  -6.705  1.00  0.00     0.281 C
HETATM    5  C5  UNL     1      55.459 -17.055  -7.989  1.00  0.00     0.095 C
HETATM    6  N2  UNL     1      54.939 -16.796  -8.986  1.00  0.00    -0.194 NA
HETATM    7  O1  UNL     1      55.209 -17.911  -5.804  1.00  0.00    -0.324 OA
HETATM    8  C6  UNL     1      54.781 -19.192  -6.054  1.00  0.00     0.264 C
HETATM    9  F1  UNL     1      53.737 -19.107  -6.983  1.00  0.00    -0.206 F
HETATM   10  C9  UNL     1      55.803 -20.139  -6.552  1.00  0.00     0.274 C
HETATM   11  C10 UNL     1      57.225 -19.650  -6.420  1.00  0.00     0.181 C
HETATM   12  C11 UNL     1      58.043 -20.501  -7.307  1.00  0.00     0.070 C
HETATM   13  N4  UNL     1      58.675 -21.180  -7.988  1.00  0.00    -0.197 NA
ENDROOT
BRANCH   3  14
HETATM   14  N1  UNL     1      58.521 -17.656  -6.311  1.00  0.00    -0.054 N
ATOM     15  H13 UNL     1      59.394 -18.102  -6.593  1.00  0.00     0.276 HD
ATOM     16  H12 UNL     1      58.754 -16.723  -6.652  1.00  0.00     0.276 HD
ATOM     17  H11 UNL     1      58.338 -17.699  -5.308  1.00  0.00     0.276 HD
ENDBRANCH   3  14
BRANCH  10  18
HETATM   18  N3  UNL     1      55.719 -21.466  -5.976  1.00  0.00    -0.068 N
ATOM     19  H33 UNL     1      56.071 -21.461  -5.018  1.00  0.00     0.275 HD
ATOM     20  H32 UNL     1      54.747 -21.719  -5.804  1.00  0.00     0.275 HD
ATOM     21  H31 UNL     1      56.184 -22.192  -6.521  1.00  0.00     0.275 HD
ENDBRANCH  10  18
BRANCH   8  22
HETATM   22  C7  UNL     1      54.154 -19.726  -4.788  1.00  0.00     0.211 C
BRANCH  22  23
HETATM   23  O2  UNL     1      52.958 -20.346  -5.205  1.00  0.00    -0.388 OA
ATOM     24  H2  UNL     1      52.955 -21.192  -4.774  1.00  0.00     0.210 HD
ENDBRANCH  22  23
BRANCH  22  25
HETATM   25  C8  UNL     1      53.766 -18.638  -3.815  1.00  0.00     0.201 C
BRANCH  25  26
HETATM   26  O3  UNL     1      52.831 -17.821  -4.448  1.00  0.00    -0.398 OA
ATOM     27  H3  UNL     1      52.585 -17.137  -3.836  1.00  0.00     0.209 HD
ENDBRANCH  25  26
ENDBRANCH  22  25
ENDBRANCH   8  22
TORSDOF 6
ENDMDL