MODEL 4
REMARK VINA RESULT: -6.388451375      6.064      7.568
REMARK  5 active torsions:
REMARK  status: ('A' for Active; 'I' for Inactive)
REMARK    1  A    between atoms: C1_2  and  O2_4
REMARK    2  A    between atoms: O2_4  and  C2_5
REMARK    3  A    between atoms: C4_7  and  N2_8
REMARK       I    between atoms: C5_10  and  N4_12
REMARK    4  A    between atoms: N4_12  and  N5_14
REMARK    5  A    between atoms: C7_19  and  N6_20
ROOT
HETATM    1  C2  UNL     1      50.668 -25.093  -9.021  1.00  0.00     0.168 C
HETATM    2  C3  UNL     1      49.233 -25.562  -9.186  1.00  0.00     0.062 C
HETATM    3  C4  UNL     1      48.508 -24.492  -8.371  1.00  0.00     0.122 C
HETATM    4  C6  UNL     1      49.333 -23.216  -8.570  1.00  0.00     0.225 C
HETATM    5  F1  UNL     1      48.579 -22.293  -9.280  1.00  0.00    -0.245 F
HETATM    6  C7  UNL     1      50.552 -23.637  -9.366  1.00  0.00     0.248 C
ENDROOT
BRANCH   3   7
HETATM    7  N2  UNL     1      47.160 -24.320  -8.806  1.00  0.00    -0.356 N
HETATM    8  C5  UNL     1      46.210 -24.629  -7.993  1.00  0.00     0.208 C
HETATM    9  N3  UNL     1      44.833 -24.470  -8.392  1.00  0.00    -0.062 NA
HETATM   10  N4  UNL     1      46.467 -25.124  -6.699  1.00  0.00    -0.213 N
ATOM     11  H4  UNL     1      47.007 -24.561  -6.041  1.00  0.00     0.196 HD
ATOM     12  H2  UNL     1      46.954 -23.961  -9.738  1.00  0.00     0.162 HD
BRANCH  10  13
HETATM   13  N5  UNL     1      45.985 -26.390  -6.300  1.00  0.00    -0.036 N
HETATM   14  O3  UNL     1      45.188 -26.521  -5.352  1.00  0.00    -0.516 OA
HETATM   15  O4  UNL     1      46.427 -27.504  -7.003  1.00  0.00    -0.516 OA
ENDBRANCH  10  13
ENDBRANCH   3   7
BRANCH   1  16
HETATM   16  O2  UNL     1      51.572 -25.801  -9.805  1.00  0.00    -0.299 OA
BRANCH  16  17
HETATM   17  C1  UNL     1      52.568 -26.542  -9.179  1.00  0.00     0.373 C
HETATM   18  N1  UNL     1      52.575 -27.948  -9.096  1.00  0.00    -0.032 NA
HETATM   19  O1  UNL     1      53.549 -25.936  -8.638  1.00  0.00    -0.242 OA
ENDBRANCH  16  17
ENDBRANCH   1  16
BRANCH   6  20
HETATM   20  N6  UNL     1      50.239 -23.416 -10.763  1.00  0.00    -0.070 N
ATOM     21  H63 UNL     1      50.376 -22.438 -11.019  1.00  0.00     0.274 HD
ATOM     22  H62 UNL     1      50.940 -23.844 -11.367  1.00  0.00     0.274 HD
ATOM     23  H61 UNL     1      49.301 -23.730 -11.012  1.00  0.00     0.274 HD
ENDBRANCH   6  20
TORSDOF 5
ENDMDL