MODEL 3
REMARK VINA RESULT: -6.321750312      8.182     10.739
REMARK  3 active torsions:
REMARK  status: ('A' for Active; 'I' for Inactive)
REMARK       I    between atoms: N2_3  and  C2_5
REMARK    1  A    between atoms: C2_5  and  C3_7
REMARK    2  A    between atoms: C4_8  and  C5_9
REMARK       I    between atoms: C5_9  and  N3_11
REMARK    3  A    between atoms: N3_11  and  N4_13
ROOT
HETATM    1  N1  UNL     1      58.174 -15.628  -6.301  1.00  0.00    -0.172 NA
HETATM    2  C1  UNL     1      57.232 -16.158  -6.750  1.00  0.00     0.184 C
HETATM    3  N2  UNL     1      56.110 -16.805  -7.267  1.00  0.00    -0.259 N
ATOM      4  H2  UNL     1      55.775 -16.563  -8.200  1.00  0.00     0.181 HD
HETATM    5  C2  UNL     1      55.427 -17.792  -6.516  1.00  0.00     0.272 C
HETATM    6  O1  UNL     1      55.911 -18.013  -5.369  1.00  0.00    -0.266 OA
ENDROOT
BRANCH   5   7
HETATM    7  C3  UNL     1      54.269 -18.466  -7.057  1.00  0.00     0.133 A
HETATM    8  C4  UNL     1      54.270 -19.795  -7.350  1.00  0.00     0.126 A
HETATM    9  N5  UNL     1      53.147 -20.309  -7.982  1.00  0.00    -0.327 N
HETATM   10  C6  UNL     1      52.104 -19.552  -8.292  1.00  0.00     0.182 A
ATOM     11  H5  UNL     1      53.124 -21.301  -8.215  1.00  0.00     0.168 HD
HETATM   12 CL1  UNL     1      50.679 -20.231  -9.099  1.00  0.00    -0.045 Cl
HETATM   13  N6  UNL     1      52.131 -18.254  -7.989  1.00  0.00    -0.299 N
HETATM   14  C7  UNL     1      53.166 -17.659  -7.382  1.00  0.00     0.265 A
ATOM     15  H6  UNL     1      51.321 -17.684  -8.233  1.00  0.00     0.171 HD
HETATM   16  O3  UNL     1      53.185 -16.445  -7.105  1.00  0.00    -0.267 OA
BRANCH   8  17
HETATM   17  C5  UNL     1      55.312 -20.724  -6.974  1.00  0.00     0.287 C
HETATM   18  O2  UNL     1      56.107 -21.207  -7.783  1.00  0.00    -0.264 OA
HETATM   19  N3  UNL     1      55.455 -21.120  -5.626  1.00  0.00    -0.271 N
ATOM     20  H3  UNL     1      54.815 -20.743  -4.927  1.00  0.00     0.189 HD
BRANCH  19  21
HETATM   21  N4  UNL     1      56.439 -22.008  -5.227  1.00  0.00    -0.342 N
ATOM     22  H42 UNL     1      56.323 -22.487  -4.335  1.00  0.00     0.176 HD
ATOM     23  H41 UNL     1      57.263 -22.188  -5.801  1.00  0.00     0.176 HD
ENDBRANCH  19  21
ENDBRANCH   8  17
ENDBRANCH   5   7
TORSDOF 3
ENDMDL