MODEL 1
REMARK VINA RESULT: -6.597769027      0.000      0.000
REMARK  5 active torsions:
REMARK  status: ('A' for Active; 'I' for Inactive)
REMARK    1  A    between atoms: N1_2  and  C2_4
REMARK    2  A    between atoms: C3_7  and  N3_8
REMARK    3  A    between atoms: N3_8  and  C4_10
REMARK    4  A    between atoms: C4_10  and  C5_11
REMARK       I    between atoms: C5_11  and  N4_13
REMARK    5  A    between atoms: N4_13  and  N5_15
ROOT
HETATM    1  C2  UNL     1      56.731 -18.758  -6.318  1.00  0.00     0.728 A
HETATM    2  N2  UNL     1      55.625 -18.440  -5.624  1.00  0.00    -0.020 N
ATOM      3  H2  UNL     1      55.289 -17.478  -5.659  1.00  0.00     0.203 HD
HETATM    4  C3  UNL     1      54.942 -19.330  -4.886  1.00  0.00     0.707 A
HETATM    5  N6  UNL     1      55.387 -20.608  -4.839  1.00  0.00    -0.019 N
ATOM      6  H6  UNL     1      54.883 -21.302  -4.286  1.00  0.00     0.203 HD
HETATM    7  C6  UNL     1      56.490 -20.965  -5.519  1.00  0.00     0.735 A
HETATM    8  N7  UNL     1      57.193 -22.117  -5.689  1.00  0.00    -0.161 N
ATOM      9  H7  UNL     1      56.955 -23.014  -5.265  1.00  0.00     0.187 HD
HETATM   10  C7  UNL     1      58.231 -21.904  -6.486  1.00  0.00     0.209 A
HETATM   11 CL1  UNL     1      59.390 -23.119  -6.962  1.00  0.00    -0.043 Cl
HETATM   12  N8  UNL     1      58.197 -20.606  -6.831  1.00  0.00    -0.239 N
ATOM     13  H8  UNL     1      58.870 -20.138  -7.439  1.00  0.00     0.191 HD
HETATM   14  N9  UNL     1      57.156 -20.031  -6.257  1.00  0.00     0.093 N
ENDROOT
BRANCH   4  15
HETATM   15  N3  UNL     1      53.867 -18.989  -4.222  1.00  0.00    -0.216 N
ATOM     16  H3  UNL     1      53.971 -18.501  -3.333  1.00  0.00     0.178 HD
BRANCH  15  17
HETATM   17  C4  UNL     1      52.553 -19.279  -4.702  1.00  0.00     0.242 C
BRANCH  17  18
HETATM   18  C5  UNL     1      52.132 -18.442  -5.828  1.00  0.00     0.253 C
HETATM   19  O1  UNL     1      51.501 -18.961  -6.785  1.00  0.00    -0.270 OA
HETATM   20  N4  UNL     1      52.429 -17.057  -5.848  1.00  0.00    -0.275 N
ATOM     21  H4  UNL     1      52.940 -16.640  -5.070  1.00  0.00     0.189 HD
BRANCH  20  22
HETATM   22  N5  UNL     1      52.030 -16.257  -6.919  1.00  0.00    -0.343 N
ATOM     23  H52 UNL     1      51.561 -15.373  -6.722  1.00  0.00     0.176 HD
ATOM     24  H51 UNL     1      52.202 -16.550  -7.880  1.00  0.00     0.176 HD
ENDBRANCH  20  22
ENDBRANCH  17  18
ENDBRANCH  15  17
ENDBRANCH   4  15
BRANCH   1  25
HETATM   25  N1  UNL     1      57.351 -17.872  -7.009  1.00  0.00    -0.228 N
HETATM   26  C1  UNL     1      58.441 -17.058  -6.592  1.00  0.00     0.165 C
ATOM     27  H1  UNL     1      57.024 -17.735  -7.965  1.00  0.00     0.177 HD
ENDBRANCH   1  25
TORSDOF 5
ENDMDL