MODEL 3
REMARK VINA RESULT: -6.881347969      2.354      3.624
REMARK  5 active torsions:
REMARK  status: ('A' for Active; 'I' for Inactive)
REMARK    1  A    between atoms: C3_5  and  O2_6
REMARK    2  A    between atoms: O2_6  and  C4_7
REMARK    3  A    between atoms: C5_9  and  C6_10
REMARK       I    between atoms: C6_10  and  N2_12
REMARK    4  A    between atoms: N2_12  and  N3_13
REMARK    5  A    between atoms: C8_17  and  N4_18
ROOT
HETATM    1  N1  UNL     1      57.497 -16.383  -6.374  1.00  0.00    -0.194 NA
HETATM    2  C1  UNL     1      56.925 -17.369  -6.534  1.00  0.00     0.094 C
HETATM    3  C2  UNL     1      56.186 -18.639  -6.753  1.00  0.00     0.266 C
HETATM    4  O1  UNL     1      54.902 -18.464  -6.301  1.00  0.00    -0.339 OA
HETATM    5  C3  UNL     1      54.628 -18.981  -5.066  1.00  0.00     0.267 C
HETATM    6  C7  UNL     1      55.016 -20.405  -4.864  1.00  0.00     0.096 C
HETATM    7  C8  UNL     1      56.037 -20.878  -5.883  1.00  0.00     0.225 C
HETATM    8  C9  UNL     1      56.979 -19.709  -6.090  1.00  0.00     0.243 C
HETATM    9  F1  UNL     1      57.975 -20.119  -6.994  1.00  0.00    -0.243 F
ENDROOT
BRANCH   5  10
HETATM   10  O2  UNL     1      53.279 -18.815  -4.795  1.00  0.00    -0.328 OA
BRANCH  10  11
HETATM   11  C4  UNL     1      52.574 -19.916  -5.225  1.00  0.00     0.303 A
HETATM   12  O3  UNL     1      51.171 -19.759  -5.177  1.00  0.00    -0.337 OA
HETATM   13  C5  UNL     1      51.851 -20.027  -6.461  1.00  0.00     0.288 A
BRANCH  13  14
HETATM   14  C6  UNL     1      51.643 -18.916  -7.432  1.00  0.00     0.345 C
HETATM   15  O4  UNL     1      51.228 -19.153  -8.549  1.00  0.00    -0.252 OA
HETATM   16  N2  UNL     1      51.965 -17.587  -6.942  1.00  0.00    -0.291 NA
BRANCH  16  17
HETATM   17  N3  UNL     1      52.236 -16.471  -6.531  1.00  0.00    -0.277 N
ATOM     18  H32 UNL     1      52.022 -17.416  -6.851  1.00  0.00     0.191 HD
ATOM     19  H31 UNL     1      52.462 -15.538  -6.188  1.00  0.00     0.191 HD
ENDBRANCH  16  17
ENDBRANCH  13  14
ENDBRANCH  10  11
ENDBRANCH   5  10
BRANCH   7  20
HETATM   20  N4  UNL     1      56.774 -21.997  -5.338  1.00  0.00    -0.072 N
ATOM     21  H43 UNL     1      57.457 -22.368  -5.998  1.00  0.00     0.274 HD
ATOM     22  H42 UNL     1      57.422 -21.713  -4.603  1.00  0.00     0.274 HD
ATOM     23  H41 UNL     1      56.118 -22.710  -5.019  1.00  0.00     0.274 HD
ENDBRANCH   7  20
TORSDOF 5
ENDMDL