MODEL 4
REMARK VINA RESULT: -5.415809793      2.236      5.932
REMARK  0 active torsions:
REMARK  status: ('A' for Active; 'I' for Inactive)
REMARK       I    between atoms: C1_4  and  N3_6
REMARK       I    between atoms: N4_12  and  C7_13
ROOT
HETATM    1  N1  UNL     1      33.959   5.585  63.423  1.00  0.00    -0.374 N
ATOM      2  H11 UNL     1      32.987   5.429  63.155  1.00  0.00     0.158 HD
ATOM      3  H12 UNL     1      34.250   5.749  64.386  1.00  0.00     0.158 HD
HETATM    4  C1  UNL     1      34.849   5.568  62.487  1.00  0.00     0.183 C
HETATM    5  N2  UNL     1      36.198   5.783  62.857  1.00  0.00    -0.064 NA
HETATM    6  N3  UNL     1      34.443   5.338  61.145  1.00  0.00    -0.355 N
HETATM    7  C2  UNL     1      35.341   4.933  60.077  1.00  0.00     0.126 C
HETATM    8  C3  UNL     1      34.422   4.494  58.965  1.00  0.00     0.033 C
HETATM    9  C4  UNL     1      33.265   5.475  59.126  1.00  0.00    -0.005 C
HETATM   10  C5  UNL     1      33.592   6.834  58.601  1.00  0.00     0.033 C
HETATM   11  C6  UNL     1      32.674   7.093  57.433  1.00  0.00     0.128 C
HETATM   12  N4  UNL     1      32.002   5.829  57.162  1.00  0.00    -0.336 N
HETATM   13  C7  UNL     1      31.432   5.466  55.926  1.00  0.00     0.330 C
HETATM   14  N5  UNL     1      31.475   6.341  54.823  1.00  0.00    -0.040 NA
HETATM   15  O1  UNL     1      30.879   4.355  55.808  1.00  0.00    -0.251 OA
HETATM   16  C8  UNL     1      32.042   5.048  58.389  1.00  0.00     0.138 C
HETATM   17  C9  UNL     1      33.093   5.467  60.631  1.00  0.00     0.136 C
ENDROOT
TORSDOF 0
ENDMDL