MODEL 4
REMARK VINA RESULT: -5.274199494      2.133      2.921
REMARK  2 active torsions:
REMARK  status: ('A' for Active; 'I' for Inactive)
REMARK    1  A    between atoms: N1_3  and  C3_5
REMARK    2  A    between atoms: C3_5  and  N2_7
REMARK       I    between atoms: N3_10  and  C6_11
ROOT
HETATM    1  C1  UNL     1      27.711   4.602  55.584  1.00  0.00     0.123 C
HETATM    2  C2  UNL     1      28.598   5.374  55.930  1.00  0.00    -0.073 C
HETATM    3  N1  UNL     1      29.565   6.280  56.325  1.00  0.00    -0.303 N
ATOM      4  H1  UNL     1      29.250   7.250  56.366  1.00  0.00     0.177 HD
ENDROOT
BRANCH   3   5
HETATM    5  C3  UNL     1      30.890   6.088  56.674  1.00  0.00     0.180 C
HETATM    6  S1  UNL     1      31.877   5.727  55.321  1.00  0.00    -0.040 SA
BRANCH   5   7
HETATM    7  N2  UNL     1      31.521   6.140  57.907  1.00  0.00    -0.354 N
HETATM    8  C4  UNL     1      31.926   4.866  58.561  1.00  0.00     0.145 C
HETATM    9  C5  UNL     1      33.125   5.132  59.450  1.00  0.00     0.145 C
HETATM   10  N3  UNL     1      33.944   6.219  59.017  1.00  0.00    -0.353 N
HETATM   11  C6  UNL     1      35.363   6.066  59.091  1.00  0.00     0.184 C
HETATM   12  C7  UNL     1      33.373   7.433  58.522  1.00  0.00     0.145 C
HETATM   13  N4  UNL     1      36.165   7.079  59.077  1.00  0.00    -0.374 N
HETATM   14  N5  UNL     1      35.948   4.781  59.184  1.00  0.00    -0.064 NA
ATOM     15  H42 UNL     1      35.743   8.005  59.010  1.00  0.00     0.158 HD
ATOM     16  H41 UNL     1      37.178   6.970  59.130  1.00  0.00     0.158 HD
HETATM   17  C8  UNL     1      31.843   7.294  58.658  1.00  0.00     0.145 C
ENDBRANCH   5   7
ENDBRANCH   3   5
TORSDOF 2
ENDMDL