MODEL 5
REMARK VINA RESULT: -5.686732797      2.671      3.420
REMARK  0 active torsions:
REMARK  status: ('A' for Active; 'I' for Inactive)
REMARK       I    between atoms: C2_2  and  N1_4
REMARK       I    between atoms: N2_8  and  C6_9
REMARK       I    between atoms: C6_9  and  N4_13
ROOT
HETATM    1  C1  UNL     1      32.025   6.795  63.248  1.00  0.00     0.117 C
HETATM    2  C2  UNL     1      31.439   6.399  61.949  1.00  0.00     0.217 C
HETATM    3  O1  UNL     1      30.439   5.653  61.956  1.00  0.00    -0.274 OA
HETATM    4  N1  UNL     1      31.995   6.849  60.732  1.00  0.00    -0.336 N
HETATM    5  C3  UNL     1      33.136   7.697  60.772  1.00  0.00     0.129 C
HETATM    6  C4  UNL     1      33.655   8.147  59.453  1.00  0.00     0.040 C
HETATM    7  C5  UNL     1      33.483   7.182  58.329  1.00  0.00     0.144 C
HETATM    8  N2  UNL     1      32.437   6.213  58.535  1.00  0.00    -0.202 N
HETATM    9  C6  UNL     1      32.485   5.030  57.746  1.00  0.00     0.677 C
HETATM   10  N3  UNL     1      33.514   4.254  57.815  1.00  0.00    -0.234 N
ATOM     11  H31 UNL     1      33.548   3.406  57.250  1.00  0.00     0.174 HD
ATOM     12  H32 UNL     1      34.266   4.530  58.447  1.00  0.00     0.174 HD
HETATM   13  N4  UNL     1      31.435   4.645  56.865  1.00  0.00    -0.166 N
ATOM     14  H4  UNL     1      30.725   3.999  57.209  1.00  0.00     0.186 HD
HETATM   15  C7  UNL     1      31.339   5.076  55.651  1.00  0.00     0.215 C
HETATM   16  N5  UNL     1      30.237   4.605  54.886  1.00  0.00    -0.066 NA
HETATM   17  N6  UNL     1      32.271   5.977  55.073  1.00  0.00    -0.066 NA
HETATM   18  C8  UNL     1      31.391   6.438  59.497  1.00  0.00     0.270 C
ENDROOT
TORSDOF 0
ENDMDL