MODEL 5
REMARK VINA RESULT: -5.429109567      2.615      3.970
REMARK  2 active torsions:
REMARK  status: ('A' for Active; 'I' for Inactive)
REMARK    1  A    between atoms: C7_7  and  N1_8
REMARK    2  A    between atoms: N1_8  and  N2_9
ROOT
HETATM    1  C1  UNL     1      35.327   4.716  59.302  1.00  0.00     0.022 C
HETATM    2  C2  UNL     1      34.614   5.826  59.329  1.00  0.00    -0.025 C
HETATM    3  C3  UNL     1      33.128   5.858  59.358  1.00  0.00     0.095 C
HETATM    4  C4  UNL     1      32.657   6.821  58.284  1.00  0.00     0.112 C
HETATM    5  C5  UNL     1      33.430   8.093  58.217  1.00  0.00     0.061 C
HETATM    6  C6  UNL     1      34.387   8.286  59.377  1.00  0.00     0.079 C
HETATM    7  C7  UNL     1      35.299   7.113  59.333  1.00  0.00     0.114 C
HETATM    8  N3  UNL     1      31.259   7.163  58.498  1.00  0.00    -0.334 N
ATOM      9  H3  UNL     1      30.759   6.882  59.341  1.00  0.00     0.165 HD
HETATM   10  C8  UNL     1      30.631   7.909  57.463  1.00  0.00     0.228 C
HETATM   11  O1  UNL     1      29.626   8.604  57.717  1.00  0.00    -0.273 OA
HETATM   12  C9  UNL     1      31.183   7.849  56.086  1.00  0.00     0.205 C
HETATM   13  C10 UNL     1      31.917   6.561  55.894  1.00  0.00     0.228 C
HETATM   14  O2  UNL     1      31.816   5.964  54.808  1.00  0.00    -0.273 OA
HETATM   15  N4  UNL     1      32.692   6.108  56.997  1.00  0.00    -0.334 N
ATOM     16  H4  UNL     1      33.279   5.280  56.895  1.00  0.00     0.165 HD
ENDROOT
BRANCH   7  17
HETATM   17  N1  UNL     1      36.535   7.264  59.304  1.00  0.00    -0.337 NA
BRANCH  17  18
HETATM   18  N2  UNL     1      37.736   7.621  59.309  1.00  0.00    -0.280 N
ATOM     19  H22 UNL     1      37.755   7.421  60.309  1.00  0.00     0.191 HD
ATOM     20  H21 UNL     1      38.691   7.939  59.145  1.00  0.00     0.191 HD
ENDBRANCH  17  18
ENDBRANCH   7  17
TORSDOF 2
ENDMDL