MODEL 3
REMARK VINA RESULT: -5.809296984      7.167      9.022
REMARK  1 active torsions:
REMARK  status: ('A' for Active; 'I' for Inactive)
REMARK    1  A    between atoms: N1_1  and  N2_4
ROOT
HETATM    1  N2  UNL     1      28.902   7.327  63.057  1.00  0.00    -0.262 N
HETATM    2  C1  UNL     1      30.073   7.789  62.362  1.00  0.00     0.156 C
HETATM    3  C2  UNL     1      29.776   8.663  61.194  1.00  0.00     0.063 C
HETATM    4  C3  UNL     1      28.628   9.562  61.382  1.00  0.00    -0.015 A
HETATM    5  C4  UNL     1      27.682   9.342  62.350  1.00  0.00     0.110 A
HETATM    6  N3  UNL     1      26.761  10.308  62.290  1.00  0.00    -0.346 N
ATOM      7  H3  UNL     1      25.941  10.400  62.889  1.00  0.00     0.166 HD
HETATM    8  C5  UNL     1      27.121  11.144  61.285  1.00  0.00     0.108 A
HETATM    9  C6  UNL     1      28.282  10.718  60.687  1.00  0.00    -0.015 A
HETATM   10  C7  UNL     1      28.895  11.437  59.553  1.00  0.00     0.061 C
HETATM   11  C8  UNL     1      28.489  12.886  59.593  1.00  0.00     0.128 C
HETATM   12  N4  UNL     1      27.052  13.051  59.763  1.00  0.00    -0.355 N
ATOM     13  H4  UNL     1      26.512  13.638  59.128  1.00  0.00     0.162 HD
HETATM   14  C9  UNL     1      26.414  12.358  60.857  1.00  0.00     0.268 C
HETATM   15  O1  UNL     1      25.358  12.761  61.386  1.00  0.00    -0.266 OA
HETATM   16  C10 UNL     1      27.776   8.181  63.260  1.00  0.00     0.288 C
HETATM   17  O2  UNL     1      26.924   7.968  64.144  1.00  0.00    -0.264 OA
ENDROOT
BRANCH   1  18
HETATM   18  N1  UNL     1      28.842   6.030  63.550  1.00  0.00    -0.340 N
ATOM     19  H12 UNL     1      28.093   5.422  63.221  1.00  0.00     0.177 HD
ATOM     20  H11 UNL     1      29.534   5.701  64.224  1.00  0.00     0.177 HD
ENDBRANCH   1  18
TORSDOF 1
ENDMDL