MODEL 3
REMARK VINA RESULT: -5.776586155      1.444      1.773
REMARK  0 active torsions:
REMARK  status: ('A' for Active; 'I' for Inactive)
ROOT
HETATM    1  O1  UNL     1      29.879   4.084  55.284  1.00  0.00    -0.247 OA
HETATM    2  C1  UNL     1      30.406   5.133  55.740  1.00  0.00     0.323 C
HETATM    3  N1  UNL     1      31.325   5.940  55.011  1.00  0.00    -0.277 N
ATOM      4  H1  UNL     1      31.662   5.780  54.061  1.00  0.00     0.173 HD
HETATM    5  C2  UNL     1      31.680   7.019  55.877  1.00  0.00     0.255 C
HETATM    6  O2  UNL     1      32.074   8.163  55.553  1.00  0.00    -0.270 OA
HETATM    7  C3  UNL     1      31.470   6.464  57.262  1.00  0.00     0.140 C
HETATM    8  C4  UNL     1      31.295   7.617  58.165  1.00  0.00     0.044 C
HETATM    9  C5  UNL     1      31.732   7.431  59.570  1.00  0.00     0.031 C
HETATM   10  C6  UNL     1      32.213   6.040  59.882  1.00  0.00     0.239 C
HETATM   11  N2  UNL     1      33.091   5.510  58.870  1.00  0.00    -0.039 N
HETATM   12  C7  UNL     1      33.383   4.125  59.259  1.00  0.00     0.267 C
HETATM   13  C8  UNL     1      34.876   4.030  59.313  1.00  0.00     0.262 C
HETATM   14  N3  UNL     1      35.257   5.373  59.704  1.00  0.00    -0.049 N
ATOM     15  H31 UNL     1      36.245   5.588  59.570  1.00  0.00     0.279 HD
ATOM     16  H32 UNL     1      35.246   5.539  60.711  1.00  0.00     0.279 HD
HETATM   17  C9  UNL     1      34.367   6.204  58.960  1.00  0.00     0.467 C
HETATM   18  C10 UNL     1      32.597   5.547  57.549  1.00  0.00     0.280 C
HETATM   19  N4  UNL     1      30.228   5.734  57.017  1.00  0.00    -0.323 N
ATOM     20  H4  UNL     1      29.414   5.669  57.628  1.00  0.00     0.165 HD
ENDROOT
TORSDOF 0
ENDMDL