MODEL 3
REMARK VINA RESULT: -5.476588810      2.976      6.253
REMARK  0 active torsions:
REMARK  status: ('A' for Active; 'I' for Inactive)
REMARK       I    between atoms: C2_2  and  N1_4
REMARK       I    between atoms: N1_4  and  C3_6
REMARK       I    between atoms: C3_6  and  N2_8
REMARK       I    between atoms: N3_11  and  C6_12
ROOT
HETATM    1  C1  UNL     1      33.384   6.526  64.608  1.00  0.00     0.117 C
HETATM    2  C2  UNL     1      33.815   5.793  63.396  1.00  0.00     0.221 C
HETATM    3  O1  UNL     1      34.652   4.881  63.510  1.00  0.00    -0.274 OA
HETATM    4  N1  UNL     1      33.257   6.160  62.152  1.00  0.00    -0.280 N
ATOM      5  H1  UNL     1      32.572   6.914  62.091  1.00  0.00     0.173 HD
HETATM    6  C3  UNL     1      33.668   5.458  60.986  1.00  0.00     0.325 C
HETATM    7  O2  UNL     1      34.513   4.535  61.095  1.00  0.00    -0.247 OA
HETATM    8  N2  UNL     1      33.123   5.802  59.704  1.00  0.00    -0.331 N
HETATM    9  C4  UNL     1      32.160   6.846  59.553  1.00  0.00     0.147 C
HETATM   10  C5  UNL     1      32.119   7.233  58.073  1.00  0.00     0.145 C
HETATM   11  N3  UNL     1      31.779   6.063  57.293  1.00  0.00    -0.353 N
HETATM   12  C6  UNL     1      30.845   6.141  56.234  1.00  0.00     0.184 C
HETATM   13  N4  UNL     1      29.778   6.818  56.383  1.00  0.00    -0.374 N
ATOM     14  H41 UNL     1      29.104   6.874  55.620  1.00  0.00     0.158 HD
ATOM     15  H42 UNL     1      29.599   7.302  57.263  1.00  0.00     0.158 HD
HETATM   16  N5  UNL     1      31.092   5.472  55.019  1.00  0.00    -0.064 NA
HETATM   17  C7  UNL     1      32.442   4.804  57.646  1.00  0.00     0.145 C
HETATM   18  C8  UNL     1      33.592   5.041  58.564  1.00  0.00     0.147 C
ENDROOT
TORSDOF 0
ENDMDL