MODEL 1
REMARK VINA RESULT: -6.333107350      0.000      0.000
REMARK  3 active torsions:
REMARK  status: ('A' for Active; 'I' for Inactive)
REMARK    1  A    between atoms: C2_7  and  N3_8
REMARK    2  A    between atoms: N3_8  and  C3_10
REMARK    3  A    between atoms: C3_10  and  N4_12
ROOT
HETATM    1  O1  UNL     1      28.901   4.903  54.523  1.00  0.00    -0.245 OA
HETATM    2  C1  UNL     1      29.914   4.897  55.297  1.00  0.00     0.353 A
HETATM    3  N1  UNL     1      31.120   4.346  55.064  1.00  0.00    -0.237 N
ATOM      4  H1  UNL     1      31.391   3.847  54.218  1.00  0.00     0.192 HD
HETATM    5  N2  UNL     1      31.905   4.562  56.130  1.00  0.00    -0.128 N
ATOM      6  H2  UNL     1      32.872   4.254  56.227  1.00  0.00     0.205 HD
HETATM    7  C2  UNL     1      31.205   5.250  57.048  1.00  0.00     0.703 A
HETATM    8  N5  UNL     1      29.987   5.447  56.519  1.00  0.00    -0.139 N
ATOM      9  H5  UNL     1      29.225   5.944  56.981  1.00  0.00     0.189 HD
ENDROOT
BRANCH   7  10
HETATM   10  N3  UNL     1      31.572   5.668  58.219  1.00  0.00    -0.165 N
ATOM     11  H3  UNL     1      30.981   5.440  59.019  1.00  0.00     0.186 HD
BRANCH  10  12
HETATM   12  C3  UNL     1      32.733   6.415  58.450  1.00  0.00     0.188 C
HETATM   13  S1  UNL     1      32.793   7.990  58.042  1.00  0.00    -0.040 SA
BRANCH  12  14
HETATM   14  N4  UNL     1      33.902   5.844  59.044  1.00  0.00    -0.358 N
HETATM   15  C4  UNL     1      34.329   4.440  58.976  1.00  0.00     0.125 C
HETATM   16  C5  UNL     1      35.843   4.503  59.016  1.00  0.00     0.021 C
HETATM   17  C6  UNL     1      36.186   5.983  59.187  1.00  0.00     0.021 C
HETATM   18  C7  UNL     1      34.922   6.497  59.836  1.00  0.00     0.125 C
ENDBRANCH  12  14
ENDBRANCH  10  12
ENDBRANCH   7  10
TORSDOF 3
ENDMDL