MODEL 3
REMARK VINA RESULT: -5.826176192      1.369      1.435
REMARK  0 active torsions:
REMARK  status: ('A' for Active; 'I' for Inactive)
REMARK       I    between atoms: C1_4  and  N3_6
REMARK       I    between atoms: C2_8  and  N5_10
ROOT
HETATM    1  N1  UNL     1      30.805   5.956  54.833  1.00  0.00    -0.373 N
ATOM      2  H11 UNL     1      31.654   6.519  54.774  1.00  0.00     0.158 HD
ATOM      3  H12 UNL     1      30.279   5.802  53.973  1.00  0.00     0.158 HD
HETATM    4  C1  UNL     1      30.432   5.474  55.950  1.00  0.00     0.188 C
HETATM    5  N2  UNL     1      29.238   4.683  56.032  1.00  0.00    -0.064 NA
HETATM    6  N3  UNL     1      31.154   5.686  57.132  1.00  0.00    -0.305 N
ATOM      7  H3  UNL     1      30.926   5.094  57.931  1.00  0.00     0.171 HD
HETATM    8  C2  UNL     1      32.080   6.564  57.295  1.00  0.00     0.194 C
HETATM    9  N4  UNL     1      32.484   7.448  56.246  1.00  0.00    -0.063 NA
HETATM   10  N5  UNL     1      32.697   6.627  58.569  1.00  0.00    -0.323 N
HETATM   11  C3  UNL     1      33.921   5.957  58.954  1.00  0.00     0.158 C
HETATM   12  C4  UNL     1      33.930   6.033  60.465  1.00  0.00     0.295 C
HETATM   13  N6  UNL     1      33.149   7.188  60.761  1.00  0.00     0.113 N
HETATM   14  C5  UNL     1      33.855   8.336  61.176  1.00  0.00     0.275 C
HETATM   15  C6  UNL     1      34.283   9.268  60.091  1.00  0.00     0.030 C
HETATM   16  C7  UNL     1      33.149   9.641  59.171  1.00  0.00     0.005 C
HETATM   17  C8  UNL     1      31.924   8.810  59.380  1.00  0.00     0.058 C
HETATM   18  C9  UNL     1      32.215   7.367  59.695  1.00  0.00     0.326 C
ENDROOT
TORSDOF 0
ENDMDL