MODEL 2
REMARK VINA RESULT: -6.451967359      2.135      2.432
REMARK  1 active torsions:
REMARK  status: ('A' for Active; 'I' for Inactive)
REMARK       I    between atoms: C1_2  and  N2_4
REMARK    1  A    between atoms: N2_4  and  C2_6
ROOT
HETATM    1  C2  UNL     1      29.502   5.910  56.266  1.00  0.00     0.132 A
HETATM    2  N3  UNL     1      29.011   7.135  56.531  1.00  0.00    -0.285 N
ATOM      3  H3  UNL     1      28.043   7.420  56.386  1.00  0.00     0.188 HD
HETATM    4  N4  UNL     1      29.967   7.915  57.005  1.00  0.00    -0.302 N
ATOM      5  H4  UNL     1      29.839   8.889  57.278  1.00  0.00     0.186 HD
HETATM    6  C3  UNL     1      31.148   7.236  57.078  1.00  0.00     0.047 A
HETATM    7  C4  UNL     1      30.832   5.982  56.610  1.00  0.00     0.013 A
HETATM    8  C5  UNL     1      31.902   4.962  56.549  1.00  0.00     0.057 C
HETATM    9  C6  UNL     1      32.412   4.766  57.960  1.00  0.00     0.114 C
HETATM   10  S1  UNL     1      33.172   6.269  58.482  1.00  0.00     0.021 S
HETATM   11  O2  UNL     1      32.804   6.507  60.106  1.00  0.00    -0.258 OA
HETATM   12  C7  UNL     1      32.514   7.616  57.526  1.00  0.00     0.168 C
ENDROOT
BRANCH   1  13
HETATM   13  N2  UNL     1      28.869   4.866  55.787  1.00  0.00    -0.296 N
HETATM   14  C1  UNL     1      27.477   4.862  55.619  1.00  0.00     0.334 C
HETATM   15  N1  UNL     1      26.914   4.522  54.361  1.00  0.00    -0.040 NA
HETATM   16  O1  UNL     1      26.747   5.164  56.599  1.00  0.00    -0.251 OA
ATOM     17  H2  UNL     1      29.403   4.037  55.530  1.00  0.00     0.171 HD
ENDBRANCH   1  13
TORSDOF 1
ENDMDL