MODEL 5
REMARK VINA RESULT: -6.509610258      2.256      2.908
REMARK  3 active torsions:
REMARK  status: ('A' for Active; 'I' for Inactive)
REMARK    1  A    between atoms: C2_2  and  C3_3
REMARK    2  A    between atoms: C6_11  and  S1_12
REMARK    3  A    between atoms: S1_12  and  N3_13
ROOT
HETATM    1  C3  UNL     1      31.444  10.802  59.688  1.00  0.00     0.057 A
HETATM    2  N1  UNL     1      32.758  10.817  59.422  1.00  0.00    -0.320 N
ATOM      3  H1  UNL     1      33.333  11.610  59.705  1.00  0.00     0.169 HD
HETATM    4  C4  UNL     1      33.315   9.755  58.767  1.00  0.00     0.275 A
HETATM    5  O1  UNL     1      34.542   9.817  58.545  1.00  0.00    -0.266 OA
HETATM    6  C5  UNL     1      32.573   8.667  58.367  1.00  0.00     0.131 A
HETATM    7  N2  UNL     1      32.818   7.513  57.728  1.00  0.00    -0.325 N
ATOM      8  H2  UNL     1      33.735   7.222  57.389  1.00  0.00     0.168 HD
HETATM    9  C6  UNL     1      31.689   6.794  57.597  1.00  0.00     0.225 A
HETATM   10  N4  UNL     1      30.719   7.522  58.168  1.00  0.00    -0.328 N
ATOM     11  H4  UNL     1      29.741   7.239  58.226  1.00  0.00     0.168 HD
HETATM   12  C7  UNL     1      31.208   8.675  58.653  1.00  0.00     0.090 A
HETATM   13  C8  UNL     1      30.643   9.738  59.312  1.00  0.00     0.100 A
HETATM   14  C9  UNL     1      29.219   9.749  59.613  1.00  0.00     0.104 C
HETATM   15  N5  UNL     1      28.090   9.759  59.870  1.00  0.00    -0.191 NA
ENDROOT
BRANCH   1  16
HETATM   16  C2  UNL     1      30.789  11.906  60.385  1.00  0.00     0.021 C
HETATM   17  C1  UNL     1      31.280  13.121  60.345  1.00  0.00     0.013 C
ENDBRANCH   1  16
BRANCH   9  18
HETATM   18  S1  UNL     1      31.521   5.208  56.824  1.00  0.00     0.288 S
HETATM   19  O2  UNL     1      31.844   5.293  55.362  1.00  0.00    -0.198 OA
HETATM   20  O3  UNL     1      30.101   4.738  56.987  1.00  0.00    -0.198 OA
BRANCH  18  21
HETATM   21  N3  UNL     1      32.534   4.065  57.633  1.00  0.00    -0.322 N
ATOM     22  H32 UNL     1      33.514   3.899  57.405  1.00  0.00     0.169 HD
ATOM     23  H31 UNL     1      31.998   3.593  58.361  1.00  0.00     0.169 HD
ENDBRANCH  18  21
ENDBRANCH   9  18
TORSDOF 3
ENDMDL