MODEL 2
REMARK VINA RESULT: -6.513521420      1.452      2.495
REMARK  4 active torsions:
REMARK  status: ('A' for Active; 'I' for Inactive)
REMARK    1  A    between atoms: N1_4  and  O2_5
REMARK    2  A    between atoms: O2_5  and  C3_6
REMARK       I    between atoms: C3_6  and  N2_8
REMARK    3  A    between atoms: N2_8  and  N3_10
REMARK       I    between atoms: N3_10  and  C4_12
REMARK    4  A    between atoms: C4_12  and  C5_14
ROOT
HETATM    1  C3  UNL     1      31.914   5.557  56.951  1.00  0.00     0.401 C
HETATM    2  O3  UNL     1      31.942   6.585  56.221  1.00  0.00    -0.235 OA
HETATM    3  N2  UNL     1      30.685   4.897  57.185  1.00  0.00    -0.241 N
ATOM      4  H2  UNL     1      30.661   4.066  57.777  1.00  0.00     0.192 HD
ENDROOT
BRANCH   1   5
HETATM    5  O2  UNL     1      33.080   5.094  57.509  1.00  0.00    -0.178 OA
BRANCH   5   6
HETATM    6  N1  UNL     1      33.399   5.500  58.781  1.00  0.00    -0.253 N
HETATM    7  C2  UNL     1      34.230   6.635  58.877  1.00  0.00     0.258 C
HETATM    8  C1  UNL     1      35.641   6.356  59.264  1.00  0.00     0.238 C
HETATM    9  O1  UNL     1      36.600   7.083  58.886  1.00  0.00    -0.272 OA
HETATM   10  N4  UNL     1      35.870   5.227  60.084  1.00  0.00    -0.355 N
HETATM   11  C10 UNL     1      34.746   4.514  60.601  1.00  0.00     0.169 C
ATOM     12  H4  UNL     1      36.820   4.928  60.303  1.00  0.00     0.162 HD
HETATM   13  C9  UNL     1      33.563   4.458  59.717  1.00  0.00     0.110 C
ENDBRANCH   5   6
ENDBRANCH   1   5
BRANCH   3  14
HETATM   14  N3  UNL     1      29.512   5.371  56.617  1.00  0.00    -0.265 N
HETATM   15  C4  UNL     1      28.980   4.783  55.453  1.00  0.00     0.240 C
HETATM   16  O4  UNL     1      29.583   3.814  54.926  1.00  0.00    -0.271 OA
ATOM     17  H3  UNL     1      29.027   6.157  57.049  1.00  0.00     0.190 HD
BRANCH  15  18
HETATM   18  C5  UNL     1      27.729   5.248  54.803  1.00  0.00     0.079 C
HETATM   19  C6  UNL     1      26.659   4.182  54.896  1.00  0.00     0.014 C
HETATM   20  C7  UNL     1      26.132   4.878  56.129  1.00  0.00     0.002 C
HETATM   21  C8  UNL     1      26.900   6.116  55.720  1.00  0.00     0.014 C
ENDBRANCH  15  18
ENDBRANCH   3  14
TORSDOF 4
ENDMDL