MODEL 2
REMARK VINA RESULT: -6.492583396      2.271      6.898
REMARK  2 active torsions:
REMARK  status: ('A' for Active; 'I' for Inactive)
REMARK    1  A    between atoms: C5_11  and  C6_12
REMARK    2  A    between atoms: N3_13  and  N4_15
ROOT
HETATM    1  C6  UNL     1      30.819   8.808  58.659  1.00  0.00     0.126 C
HETATM    2  N3  UNL     1      30.594   8.405  57.459  1.00  0.00    -0.309 N
ATOM      3  H3  UNL     1      31.174   8.792  56.715  1.00  0.00     0.186 HD
ENDROOT
BRANCH   1   4
HETATM    4  C5  UNL     1      31.849   9.774  58.998  1.00  0.00     0.071 A
HETATM    5  C2  UNL     1      31.536  11.002  59.533  1.00  0.00     0.027 A
HETATM    6  C1  UNL     1      30.125  11.369  59.775  1.00  0.00     0.069 C
HETATM    7  N1  UNL     1      32.515  11.886  59.839  1.00  0.00    -0.312 N
HETATM    8  C3  UNL     1      33.813  11.604  59.639  1.00  0.00     0.327 A
ATOM      9  H1  UNL     1      32.260  12.792  60.234  1.00  0.00     0.170 HD
HETATM   10  O1  UNL     1      34.723  12.430  59.927  1.00  0.00    -0.247 OA
HETATM   11  N2  UNL     1      34.158  10.412  59.119  1.00  0.00    -0.275 N
HETATM   12  C4  UNL     1      33.198   9.513  58.803  1.00  0.00     0.263 A
ATOM     13  H2  UNL     1      35.141  10.187  58.964  1.00  0.00     0.173 HD
HETATM   14  O2  UNL     1      33.575   8.428  58.325  1.00  0.00    -0.267 OA
ENDBRANCH   1   4
BRANCH   2  15
HETATM   15  N4  UNL     1      29.628   7.493  57.105  1.00  0.00    -0.276 N
HETATM   16  C7  UNL     1      29.819   6.459  56.374  1.00  0.00     0.227 C
HETATM   17  O3  UNL     1      28.785   5.602  56.074  1.00  0.00    -0.329 OA
HETATM   18  C10 UNL     1      31.147   6.199  55.857  1.00  0.00     0.294 C
HETATM   19  C8  UNL     1      28.886   4.531  55.162  1.00  0.00     0.197 C
HETATM   20  C9  UNL     1      30.271   4.023  54.978  1.00  0.00     0.149 C
HETATM   21  N5  UNL     1      31.294   5.022  55.041  1.00  0.00    -0.352 N
ATOM     22  H5  UNL     1      32.147   4.897  54.496  1.00  0.00     0.162 HD
HETATM   23  O4  UNL     1      32.147   6.940  56.089  1.00  0.00    -0.264 OA
ATOM     24  H4  UNL     1      28.683   7.653  57.453  1.00  0.00     0.189 HD
ENDBRANCH   2  15
TORSDOF 2
ENDMDL