MODEL 1
REMARK VINA RESULT: -5.773219346      0.000      0.000
REMARK  2 active torsions:
REMARK  status: ('A' for Active; 'I' for Inactive)
REMARK    1  A    between atoms: C1_2  and  C2_3
REMARK    2  A    between atoms: C2_3  and  N1_4
ROOT
HETATM    1  N1  UNL     1      31.410   6.116  56.128  1.00  0.00     0.121 N
HETATM    2  C3  UNL     1      30.137   6.650  56.666  1.00  0.00     0.302 C
HETATM    3  C4  UNL     1      30.457   8.002  57.273  1.00  0.00     0.262 C
HETATM    4  N2  UNL     1      29.262   8.644  57.698  1.00  0.00    -0.071 N
ATOM      5  H21 UNL     1      28.604   7.958  58.068  1.00  0.00     0.277 HD
ATOM      6  H22 UNL     1      28.734   8.979  56.893  1.00  0.00     0.277 HD
HETATM    7  C5  UNL     1      29.455   9.706  58.643  1.00  0.00     0.258 C
HETATM    8  C6  UNL     1      30.468   9.401  59.708  1.00  0.00     0.195 C
HETATM    9  O2  UNL     1      30.021   8.325  60.446  1.00  0.00    -0.388 OA
HETATM   10  C7  UNL     1      30.404   8.385  61.788  1.00  0.00     0.195 C
HETATM   11  C8  UNL     1      31.085   7.111  62.185  1.00  0.00     0.258 C
HETATM   12  N3  UNL     1      31.327   6.316  61.015  1.00  0.00    -0.073 N
ATOM     13  H31 UNL     1      31.822   6.860  60.307  1.00  0.00     0.277 HD
ATOM     14  H32 UNL     1      30.455   6.137  60.515  1.00  0.00     0.277 HD
HETATM   15  C9  UNL     1      32.020   5.083  61.280  1.00  0.00     0.234 C
HETATM   16  C10 UNL     1      32.980   4.858  60.128  1.00  0.00     0.055 C
HETATM   17  C11 UNL     1      32.297   4.096  59.041  1.00  0.00     0.236 C
HETATM   18  N4  UNL     1      31.389   4.914  58.235  1.00  0.00    -0.049 N
ATOM     19  H41 UNL     1      30.817   5.547  58.794  1.00  0.00     0.279 HD
ATOM     20  H42 UNL     1      30.625   4.377  57.823  1.00  0.00     0.279 HD
HETATM   21  C12 UNL     1      32.195   5.599  57.248  1.00  0.00     0.503 C
ENDROOT
BRANCH   1  22
HETATM   22  C2  UNL     1      31.082   5.037  55.204  1.00  0.00     0.343 C
BRANCH  22  23
HETATM   23  C1  UNL     1      29.608   4.882  55.079  1.00  0.00     0.261 C
HETATM   24  O1  UNL     1      29.106   4.682  54.007  1.00  0.00    -0.305 OA
ENDBRANCH  22  23
ENDBRANCH   1  22
TORSDOF 2
ENDMDL