MODEL 2
REMARK VINA RESULT: -6.215025190      2.161      2.628
REMARK  5 active torsions:
REMARK  status: ('A' for Active; 'I' for Inactive)
REMARK    1  A    between atoms: N1_1  and  C1_4
REMARK    2  A    between atoms: N4_13  and  C4_14
REMARK    3  A    between atoms: C4_14  and  C5_15
REMARK    4  A    between atoms: C6_16  and  C7_17
REMARK    5  A    between atoms: C7_17  and  N5_18
ROOT
HETATM    1  C1  UNL     1      30.517   5.486  55.431  1.00  0.00     0.186 A
HETATM    2  C2  UNL     1      29.762   4.393  54.989  1.00  0.00     0.294 A
HETATM    3  O1  UNL     1      30.305   3.437  54.385  1.00  0.00    -0.264 OA
HETATM    4  N2  UNL     1      28.448   4.398  55.229  1.00  0.00    -0.271 N
ATOM      5  H2  UNL     1      27.877   3.613  54.917  1.00  0.00     0.174 HD
HETATM    6  C3  UNL     1      27.874   5.415  55.870  1.00  0.00     0.342 A
HETATM    7  O2  UNL     1      26.647   5.478  56.126  1.00  0.00    -0.245 OA
HETATM    8  N3  UNL     1      28.637   6.456  56.284  1.00  0.00    -0.247 N
ATOM      9  H3  UNL     1      28.188   7.229  56.775  1.00  0.00     0.192 HD
HETATM   10  N4  UNL     1      29.935   6.507  56.075  1.00  0.00    -0.257 N
ENDROOT
BRANCH  10  11
HETATM   11  C4  UNL     1      30.698   7.632  56.533  1.00  0.00     0.245 C
BRANCH  11  12
HETATM   12  C5  UNL     1      30.104   8.273  57.708  1.00  0.00    -0.079 C
HETATM   13  C6  UNL     1      29.636   8.805  58.686  1.00  0.00    -0.060 C
BRANCH  13  14
HETATM   14  C7  UNL     1      29.086   9.457  59.896  1.00  0.00     0.155 C
BRANCH  14  15
HETATM   15  N5  UNL     1      29.342   8.696  61.010  1.00  0.00    -0.353 N
HETATM   16  C8  UNL     1      30.611   8.280  61.359  1.00  0.00     0.139 C
HETATM   17  C9  UNL     1      30.561   6.790  61.732  1.00  0.00     0.100 C
HETATM   18  S1  UNL     1      28.941   6.793  62.608  1.00  0.00    -0.123 SA
HETATM   19  C10 UNL     1      28.357   8.418  61.965  1.00  0.00     0.136 C
ENDBRANCH  14  15
ENDBRANCH  13  14
ENDBRANCH  11  12
ENDBRANCH  10  11
BRANCH   1  20
HETATM   20  N1  UNL     1      31.787   5.524  55.220  1.00  0.00    -0.380 N
ATOM     21  H12 UNL     1      32.136   5.357  54.276  1.00  0.00     0.158 HD
ATOM     22  H11 UNL     1      32.430   5.718  55.988  1.00  0.00     0.158 HD
ENDBRANCH   1  20
TORSDOF 5
ENDMDL