MODEL 1
REMARK VINA RESULT: -6.260632248      0.000      0.000
REMARK  3 active torsions:
REMARK  status: ('A' for Active; 'I' for Inactive)
REMARK    1  A    between atoms: C2_2  and  N1_3
REMARK    2  A    between atoms: C3_4  and  C5_6
REMARK       I    between atoms: C5_6  and  N2_8
REMARK    3  A    between atoms: N2_8  and  N3_10
ROOT
HETATM    1  N1  UNL     1      31.961   6.581  59.943  1.00  0.00    -0.175 NA
HETATM    2  C3  UNL     1      32.680   7.101  58.827  1.00  0.00     0.110 C
HETATM    3  C4  UNL     1      33.228   8.491  59.028  1.00  0.00     0.044 C
HETATM    4  C6  UNL     1      33.779   6.230  58.320  1.00  0.00     0.066 C
HETATM    5  C7  UNL     1      34.851   5.872  59.249  1.00  0.00     0.036 C
HETATM    6  C8  UNL     1      35.425   4.515  58.813  1.00  0.00     0.039 C
HETATM    7  C9  UNL     1      36.037   6.829  59.245  1.00  0.00     0.039 C
HETATM    8  N4  UNL     1      34.462   5.714  60.629  1.00  0.00    -0.297 N
ATOM      9  H4  UNL     1      35.045   5.864  61.453  1.00  0.00     0.174 HD
HETATM   10  S1  UNL     1      32.788   5.213  60.604  1.00  0.00     0.300 S
HETATM   11  O2  UNL     1      32.631   3.988  59.798  1.00  0.00    -0.188 OA
HETATM   12  O3  UNL     1      32.330   4.926  62.007  1.00  0.00    -0.188 OA
ENDROOT
BRANCH   2  13
HETATM   13  C5  UNL     1      31.707   7.214  57.700  1.00  0.00     0.259 C
HETATM   14  O1  UNL     1      32.075   6.935  56.530  1.00  0.00    -0.269 OA
HETATM   15  N2  UNL     1      30.361   7.630  57.884  1.00  0.00    -0.275 N
ATOM     16  H2  UNL     1      30.039   7.862  58.824  1.00  0.00     0.189 HD
BRANCH  15  17
HETATM   17  N3  UNL     1      29.479   7.728  56.833  1.00  0.00    -0.343 N
ATOM     18  H32 UNL     1      29.863   7.816  55.892  1.00  0.00     0.176 HD
ATOM     19  H31 UNL     1      28.469   7.716  56.973  1.00  0.00     0.176 HD
ENDBRANCH  15  17
ENDBRANCH   2  13
BRANCH   1  20
HETATM   20  C2  UNL     1      31.714   7.474  61.015  1.00  0.00     0.106 C
HETATM   21  C1  UNL     1      30.255   7.618  61.388  1.00  0.00     0.022 C
ENDBRANCH   1  20
TORSDOF 3
ENDMDL