MODEL 3
REMARK VINA RESULT: -6.493881328      0.053      1.025
REMARK  3 active torsions:
REMARK  status: ('A' for Active; 'I' for Inactive)
REMARK    1  A    between atoms: C2_2  and  S1_5
REMARK    2  A    between atoms: S1_5  and  N1_8
REMARK    3  A    between atoms: N1_8  and  N2_10
ROOT
HETATM    1  N2  UNL     1      31.643   4.954  56.381  1.00  0.00    -0.288 N
ATOM      2  H2  UNL     1      32.123   4.118  56.050  1.00  0.00     0.187 HD
HETATM    3  C5  UNL     1      30.499   5.173  55.883  1.00  0.00     0.112 C
HETATM    4  C6  UNL     1      29.845   4.307  54.879  1.00  0.00     0.189 C
HETATM    5  N3  UNL     1      28.488   4.071  55.335  1.00  0.00    -0.337 N
ATOM      6  H3  UNL     1      28.097   3.129  55.359  1.00  0.00     0.164 HD
HETATM    7  C7  UNL     1      27.720   5.195  55.746  1.00  0.00     0.323 C
HETATM    8  O3  UNL     1      26.461   5.210  55.687  1.00  0.00    -0.247 OA
HETATM    9  N4  UNL     1      28.346   6.369  56.252  1.00  0.00    -0.274 N
ATOM     10  H4  UNL     1      27.803   7.178  56.550  1.00  0.00     0.173 HD
HETATM   11  C8  UNL     1      29.767   6.355  56.320  1.00  0.00     0.275 C
HETATM   12  O4  UNL     1      30.321   7.390  56.766  1.00  0.00    -0.266 OA
ENDROOT
BRANCH   1  13
HETATM   13  N1  UNL     1      32.319   5.712  57.321  1.00  0.00    -0.226 N
ATOM     14  H1  UNL     1      32.610   6.668  57.119  1.00  0.00     0.200 HD
BRANCH  13  15
HETATM   15  S1  UNL     1      32.650   4.981  58.850  1.00  0.00     0.251 S
HETATM   16  O1  UNL     1      31.607   5.347  59.869  1.00  0.00    -0.204 OA
HETATM   17  O2  UNL     1      32.569   3.494  58.665  1.00  0.00    -0.204 OA
BRANCH  15  18
HETATM   18  C2  UNL     1      34.279   5.374  59.433  1.00  0.00     0.073 C
HETATM   19  C1  UNL     1      34.417   5.266  60.917  1.00  0.00     0.033 C
HETATM   20  C3  UNL     1      35.234   4.392  58.789  1.00  0.00     0.033 C
HETATM   21  C4  UNL     1      34.647   6.760  58.999  1.00  0.00     0.033 C
ENDBRANCH  15  18
ENDBRANCH  13  15
ENDBRANCH   1  13
TORSDOF 3
ENDMDL