MODEL 1
REMARK VINA RESULT: -6.484310257      0.000      0.000
REMARK  2 active torsions:
REMARK  status: ('A' for Active; 'I' for Inactive)
REMARK    1  A    between atoms: C5_8  and  C6_9
REMARK    2  A    between atoms: C9_18  and  N4_19
ROOT
HETATM    1  C6  UNL     1      32.166   6.855  58.820  1.00  0.00     0.065 A
HETATM    2  N2  UNL     1      31.981   7.311  60.069  1.00  0.00    -0.309 N
ATOM      3  H2  UNL     1      32.639   7.022  60.792  1.00  0.00     0.170 HD
HETATM    4  C7  UNL     1      30.977   8.125  60.412  1.00  0.00     0.327 A
HETATM    5  O2  UNL     1      30.855   8.522  61.609  1.00  0.00    -0.247 OA
HETATM    6  N3  UNL     1      30.105   8.516  59.464  1.00  0.00    -0.273 N
ATOM      7  H3  UNL     1      29.337   9.137  59.716  1.00  0.00     0.173 HD
HETATM    8  C8  UNL     1      30.229   8.099  58.187  1.00  0.00     0.284 A
HETATM    9  O3  UNL     1      29.393   8.496  57.357  1.00  0.00    -0.265 OA
HETATM   10  C9  UNL     1      31.276   7.245  57.821  1.00  0.00     0.194 A
ENDROOT
BRANCH   1  11
HETATM   11  C5  UNL     1      33.202   5.897  58.400  1.00  0.00     0.130 C
HETATM   12  C1  UNL     1      32.883   4.518  58.881  1.00  0.00     0.227 C
HETATM   13  O1  UNL     1      31.845   3.927  58.545  1.00  0.00    -0.273 OA
HETATM   14  N1  UNL     1      33.812   3.875  59.764  1.00  0.00    -0.360 N
HETATM   15  C2  UNL     1      35.263   4.014  59.657  1.00  0.00     0.122 C
ATOM     16  H1  UNL     1      33.438   3.288  60.510  1.00  0.00     0.162 HD
HETATM   17  C3  UNL     1      35.505   5.275  58.794  1.00  0.00     0.021 C
HETATM   18  C4  UNL     1      34.446   6.230  59.287  1.00  0.00     0.022 C
ENDBRANCH   1  11
BRANCH  10  19
HETATM   19  N4  UNL     1      31.441   6.881  56.462  1.00  0.00    -0.108 N
HETATM   20  O4  UNL     1      32.150   7.552  55.716  1.00  0.00    -0.532 OA
HETATM   21  O5  UNL     1      30.785   5.786  55.973  1.00  0.00    -0.532 OA
ENDBRANCH  10  19
TORSDOF 2
ENDMDL