MODEL 2
REMARK VINA RESULT: -6.855322464      3.266      4.611
REMARK  4 active torsions:
REMARK  status: ('A' for Active; 'I' for Inactive)
REMARK    1  A    between atoms: C2_2  and  C3_3
REMARK    2  A    between atoms: C3_3  and  N1_4
REMARK    3  A    between atoms: N1_4  and  C4_6
REMARK    4  A    between atoms: C7_14  and  N4_15
REMARK       I    between atoms: N4_15  and  C8_17
ROOT
HETATM    1  C4  UNL     1      30.153   6.376  56.179  1.00  0.00     0.682 A
HETATM    2  N2  UNL     1      31.371   6.098  56.623  1.00  0.00    -0.154 N
ATOM      3  H2  UNL     1      31.836   5.289  56.210  1.00  0.00     0.187 HD
HETATM    4  C5  UNL     1      32.047   6.763  57.549  1.00  0.00     0.289 A
HETATM    5  O1  UNL     1      33.194   6.373  57.860  1.00  0.00    -0.265 OA
HETATM    6  C6  UNL     1      31.444   7.896  58.155  1.00  0.00     0.138 A
HETATM    7  N3  UNL     1      31.952   8.679  59.087  1.00  0.00    -0.330 N
ATOM      8  H3  UNL     1      32.886   8.505  59.460  1.00  0.00     0.168 HD
HETATM    9  C7  UNL     1      31.225   9.698  59.531  1.00  0.00     0.153 A
HETATM   10  S1  UNL     1      29.785   9.566  58.625  1.00  0.00    -0.033 SA
HETATM   11  C10 UNL     1      30.189   8.189  57.704  1.00  0.00     0.126 A
HETATM   12  N5  UNL     1      29.550   7.455  56.742  1.00  0.00    -0.183 N
ATOM     13  H5  UNL     1      28.611   7.720  56.445  1.00  0.00     0.185 HD
ENDROOT
BRANCH   1  14
HETATM   14  N1  UNL     1      29.499   5.742  55.290  1.00  0.00    -0.223 N
ATOM     15  H1  UNL     1      29.547   6.077  54.328  1.00  0.00     0.178 HD
BRANCH  14  16
HETATM   16  C3  UNL     1      28.703   4.586  55.562  1.00  0.00     0.164 C
BRANCH  16  17
HETATM   17  C2  UNL     1      27.261   4.959  55.769  1.00  0.00    -0.017 C
HETATM   18  C1  UNL     1      26.288   4.495  55.011  1.00  0.00     0.008 C
ENDBRANCH  16  17
ENDBRANCH  14  16
ENDBRANCH   1  14
BRANCH   9  19
HETATM   19  N4  UNL     1      31.553  10.585  60.449  1.00  0.00    -0.307 N
HETATM   20  C8  UNL     1      31.859  11.910  60.135  1.00  0.00     0.219 C
HETATM   21  C9  UNL     1      33.216  12.467  59.986  1.00  0.00     0.117 C
HETATM   22  O2  UNL     1      30.882  12.712  59.962  1.00  0.00    -0.274 OA
ATOM     23  H4  UNL     1      31.584  10.293  61.425  1.00  0.00     0.171 HD
ENDBRANCH   9  19
TORSDOF 4
ENDMDL