MODEL 4
REMARK VINA RESULT: -6.037295777      1.498      1.729
REMARK  3 active torsions:
REMARK  status: ('A' for Active; 'I' for Inactive)
REMARK    1  A    between atoms: O1_2  and  C2_3
REMARK    2  A    between atoms: C2_3  and  C3_5
REMARK    3  A    between atoms: C3_5  and  C4_6
ROOT
HETATM    1  C3  UNL     1      32.337   6.120  58.269  1.00  0.00     0.369 C
HETATM    2  N2  UNL     1      32.152   7.081  59.339  1.00  0.00    -0.012 N
ATOM      3  H21 UNL     1      33.036   7.363  59.763  1.00  0.00     0.282 HD
ATOM      4  H22 UNL     1      31.722   6.664  60.164  1.00  0.00     0.282 HD
HETATM    5  C5  UNL     1      31.403   8.206  58.843  1.00  0.00     0.202 C
HETATM    6  C6  UNL     1      30.338   8.463  59.856  1.00  0.00     0.061 C
HETATM    7  C7  UNL     1      29.828   9.865  59.740  1.00  0.00     0.004 C
HETATM    8  C8  UNL     1      30.959  10.781  60.174  1.00  0.00     0.000 C
HETATM    9  C9  UNL     1      32.244  10.525  59.471  1.00  0.00     0.004 C
HETATM   10  C10 UNL     1      32.267   9.411  58.522  1.00  0.00     0.061 C
HETATM   11  N3  UNL     1      30.934   7.810  57.544  1.00  0.00    -0.325 N
ATOM     12  H3  UNL     1      30.118   8.173  57.051  1.00  0.00     0.165 HD
HETATM   13  C11 UNL     1      31.821   6.823  57.090  1.00  0.00     0.276 C
HETATM   14  O4  UNL     1      32.156   6.615  55.857  1.00  0.00    -0.269 OA
ENDROOT
BRANCH   1  15
HETATM   15  C2  UNL     1      33.689   5.575  58.260  1.00  0.00     0.314 C
HETATM   16  O2  UNL     1      33.795   4.376  58.008  1.00  0.00    -0.261 OA
BRANCH  15  17
HETATM   17  O1  UNL     1      34.733   6.356  58.568  1.00  0.00    -0.324 OA
HETATM   18  C1  UNL     1      35.923   5.924  59.193  1.00  0.00     0.213 C
ENDBRANCH  15  17
ENDBRANCH   1  15
BRANCH   1  19
HETATM   19  C4  UNL     1      31.289   5.012  58.415  1.00  0.00     0.288 C
HETATM   20  N1  UNL     1      30.999   4.303  59.578  1.00  0.00    -0.059 NA
HETATM   21  O3  UNL     1      30.599   4.653  57.392  1.00  0.00    -0.273 OA
ENDBRANCH   1  19
TORSDOF 3
ENDMDL