MODEL 5
REMARK VINA RESULT: -5.530962711      2.338      4.117
REMARK  5 active torsions:
REMARK  status: ('A' for Active; 'I' for Inactive)
REMARK    1  A    between atoms: C2_2  and  C3_8
REMARK    2  A    between atoms: N1_3  and  N2_5
REMARK    3  A    between atoms: C3_8  and  O1_9
REMARK    4  A    between atoms: C4_12  and  C5_13
REMARK    5  A    between atoms: C6_18  and  C7_19
ROOT
HETATM    1  C3  UNL     1     -14.380 -14.665 -32.571  1.00  0.00     0.270 C
HETATM    2  O2  UNL     1     -13.808 -15.944 -32.376  1.00  0.00    -0.275 OA
HETATM    3  C4  UNL     1     -14.192 -16.311 -31.074  1.00  0.00     0.400 C
HETATM    4  O5  UNL     1     -15.513 -16.648 -31.181  1.00  0.00    -0.206 OA
HETATM    5  N3  UNL     1     -16.168 -15.455 -31.319  1.00  0.00    -0.037 NA
HETATM    6  C6  UNL     1     -15.045 -14.531 -31.202  1.00  0.00     0.313 C
HETATM    7  O8  UNL     1     -14.222 -15.161 -30.369  1.00  0.00    -0.277 OA
ENDROOT
BRANCH   1   8
HETATM    8  C2  UNL     1     -15.258 -14.730 -33.727  1.00  0.00     0.066 C
HETATM    9  C1  UNL     1     -15.811 -13.455 -34.297  1.00  0.00     0.071 C
HETATM   10  N1  UNL     1     -15.503 -15.804 -34.353  1.00  0.00    -0.310 N
ATOM     11  H1  UNL     1     -15.156 -16.687 -33.978  1.00  0.00     0.185 HD
BRANCH  10  12
HETATM   12  N2  UNL     1     -16.247 -15.810 -35.560  1.00  0.00    -0.345 N
ATOM     13  H22 UNL     1     -16.360 -14.927 -36.060  1.00  0.00     0.176 HD
ATOM     14  H21 UNL     1     -16.662 -16.665 -35.930  1.00  0.00     0.176 HD
ENDBRANCH  10  12
ENDBRANCH   1   8
BRANCH   1  15
HETATM   15  O1  UNL     1     -13.409 -13.709 -32.705  1.00  0.00    -0.357 OA
ATOM     16  H1  UNL     1     -13.044 -13.443 -31.869  1.00  0.00     0.213 HD
ENDBRANCH   1  15
BRANCH   6  17
HETATM   17  C7  UNL     1     -15.403 -13.130 -30.948  1.00  0.00     0.236 C
HETATM   18  O6  UNL     1     -14.579 -12.235 -30.755  1.00  0.00    -0.644 OA
HETATM   19  O7  UNL     1     -16.775 -12.774 -30.933  1.00  0.00    -0.644 OA
ENDBRANCH   6  17
BRANCH   3  20
HETATM   20  C5  UNL     1     -13.271 -17.307 -30.543  1.00  0.00     0.273 C
HETATM   21  O3  UNL     1     -12.252 -17.049 -29.812  1.00  0.00    -0.642 OA
HETATM   22  O4  UNL     1     -13.505 -18.632 -30.840  1.00  0.00    -0.642 OA
ENDBRANCH   3  20
TORSDOF 5
ENDMDL