MODEL 1
REMARK VINA RESULT: -6.190697660      0.000      0.000
REMARK  4 active torsions:
REMARK  status: ('A' for Active; 'I' for Inactive)
REMARK    1  A    between atoms: C1_2  and  C3_9
REMARK    2  A    between atoms: N2_3  and  N3_5
REMARK    3  A    between atoms: N3_5  and  C2_7
REMARK    4  A    between atoms: N4_11  and  C5_12
ROOT
HETATM    1  C3  UNL     1     -14.176 -15.989 -31.591  1.00  0.00     0.090 A
HETATM    2  C4  UNL     1     -15.019 -16.708 -30.766  1.00  0.00     0.119 A
HETATM    3  N4  UNL     1     -14.564 -17.404 -29.690  1.00  0.00    -0.265 N
HETATM    4  C7  UNL     1     -13.258 -17.357 -29.469  1.00  0.00     0.332 A
HETATM    5  O2  UNL     1     -12.802 -17.984 -28.489  1.00  0.00    -0.246 OA
HETATM    6  N8  UNL     1     -12.404 -16.672 -30.246  1.00  0.00    -0.274 N
ATOM      7  H8  UNL     1     -11.411 -16.682 -30.014  1.00  0.00     0.173 HD
HETATM    8  C8  UNL     1     -12.817 -15.969 -31.323  1.00  0.00     0.264 A
HETATM    9  O3  UNL     1     -12.003 -15.323 -32.053  1.00  0.00    -0.267 OA
ENDROOT
BRANCH   1  10
HETATM   10  C1  UNL     1     -14.701 -15.258 -32.733  1.00  0.00     0.148 C
HETATM   11  N1  UNL     1     -15.261 -13.975 -32.570  1.00  0.00    -0.080 NA
HETATM   12  N2  UNL     1     -14.662 -15.770 -33.910  1.00  0.00    -0.285 N
ATOM     13  H2  UNL     1     -14.258 -16.698 -34.034  1.00  0.00     0.188 HD
BRANCH  12  14
HETATM   14  N3  UNL     1     -15.151 -15.101 -35.009  1.00  0.00    -0.276 N
ATOM     15  H3  UNL     1     -14.582 -14.373 -35.442  1.00  0.00     0.189 HD
BRANCH  14  16
HETATM   16  C2  UNL     1     -16.289 -15.364 -35.497  1.00  0.00     0.368 C
HETATM   17  O1  UNL     1     -17.397 -15.869 -35.714  1.00  0.00    -0.282 OA
ENDBRANCH  14  16
ENDBRANCH  12  14
ENDBRANCH   1  10
BRANCH   3  18
HETATM   18  C5  UNL     1     -15.532 -18.098 -28.927  1.00  0.00     0.407 C
HETATM   19  N5  UNL     1     -15.844 -17.461 -27.657  1.00  0.00    -0.024 N
HETATM   20  C6  UNL     1     -17.180 -17.957 -27.376  1.00  0.00     0.366 C
ATOM     21  H52 UNL     1     -15.162 -17.624 -26.916  1.00  0.00     0.282 HD
ATOM     22  H51 UNL     1     -15.753 -16.446 -27.653  1.00  0.00     0.282 HD
HETATM   23  N6  UNL     1     -17.486 -18.910 -28.436  1.00  0.00    -0.117 NA
HETATM   24  N7  UNL     1     -16.821 -18.262 -29.519  1.00  0.00    -0.092 NA
ENDBRANCH   3  18
TORSDOF 4
ENDMDL