MODEL 3
REMARK VINA RESULT: -5.519537236      1.983      2.286
REMARK  5 active torsions:
REMARK  status: ('A' for Active; 'I' for Inactive)
REMARK       I    between atoms: C2_2  and  N1_4
REMARK    1  A    between atoms: N1_4  and  S1_6
REMARK    2  A    between atoms: S1_6  and  C3_9
REMARK    3  A    between atoms: C4_14  and  N4_15
REMARK    4  A    between atoms: N4_15  and  N5_17
REMARK    5  A    between atoms: N6_22  and  N7_23
ROOT
HETATM    1  C3  UNL     1     -13.475 -15.226 -31.496  1.00  0.00     0.263 A
HETATM    2  N2  UNL     1     -13.535 -16.592 -31.424  1.00  0.00    -0.271 N
ATOM      3  H2  UNL     1     -14.153 -17.084 -32.069  1.00  0.00     0.189 HD
HETATM    4  N3  UNL     1     -12.839 -17.300 -30.567  1.00  0.00    -0.278 N
ATOM      5  H3  UNL     1     -12.913 -18.318 -30.547  1.00  0.00     0.189 HD
HETATM    6  C4  UNL     1     -12.023 -16.650 -29.713  1.00  0.00     0.205 A
HETATM    7  C5  UNL     1     -11.957 -15.273 -29.780  1.00  0.00     0.315 A
HETATM    8  O4  UNL     1     -11.196 -14.650 -28.987  1.00  0.00    -0.262 OA
HETATM    9  N6  UNL     1     -12.679 -14.584 -30.663  1.00  0.00    -0.194 N
ENDROOT
BRANCH   1  10
HETATM   10  S1  UNL     1     -14.442 -14.471 -32.670  1.00  0.00     0.300 S
HETATM   11  O2  UNL     1     -15.527 -13.673 -31.952  1.00  0.00    -0.197 OA
HETATM   12  O3  UNL     1     -13.614 -13.426 -33.391  1.00  0.00    -0.197 OA
BRANCH  10  13
HETATM   13  N1  UNL     1     -15.197 -15.445 -33.822  1.00  0.00    -0.248 N
HETATM   14  C2  UNL     1     -16.200 -14.870 -34.624  1.00  0.00     0.227 C
HETATM   15  C1  UNL     1     -16.914 -15.657 -35.656  1.00  0.00     0.118 C
HETATM   16  O1  UNL     1     -16.500 -13.672 -34.470  1.00  0.00    -0.273 OA
ATOM     17  H1  UNL     1     -14.934 -16.424 -33.934  1.00  0.00     0.182 HD
ENDBRANCH  10  13
ENDBRANCH   1  10
BRANCH   9  18
HETATM   18  N7  UNL     1     -12.626 -13.204 -30.740  1.00  0.00    -0.333 N
ATOM     19  H72 UNL     1     -12.022 -12.720 -31.403  1.00  0.00     0.177 HD
ATOM     20  H71 UNL     1     -13.215 -12.662 -30.107  1.00  0.00     0.177 HD
ENDBRANCH   9  18
BRANCH   6  21
HETATM   21  N4  UNL     1     -11.316 -17.281 -28.850  1.00  0.00    -0.286 N
ATOM     22  H4  UNL     1     -11.767 -17.646 -28.011  1.00  0.00     0.188 HD
BRANCH  21  23
HETATM   23  N5  UNL     1      -9.951 -17.481 -29.025  1.00  0.00    -0.343 N
ATOM     24  H52 UNL     1      -9.606 -17.632 -29.972  1.00  0.00     0.176 HD
ATOM     25  H51 UNL     1      -9.302 -17.479 -28.238  1.00  0.00     0.176 HD
ENDBRANCH  21  23
ENDBRANCH   6  21
TORSDOF 5
ENDMDL