MODEL 1
REMARK VINA RESULT: -5.560998922      0.000      0.000
REMARK  9 active torsions:
REMARK  status: ('A' for Active; 'I' for Inactive)
REMARK    1  A    between atoms: O1_2  and  C2_3
REMARK    2  A    between atoms: C2_3  and  C3_5
REMARK    3  A    between atoms: C3_5  and  O3_6
REMARK    4  A    between atoms: O3_6  and  N1_7
REMARK    5  A    between atoms: C5_12  and  N3_13
REMARK    6  A    between atoms: N3_13  and  N4_15
REMARK    7  A    between atoms: N5_18  and  N6_19
REMARK    8  A    between atoms: C6_22  and  N7_23
REMARK    9  A    between atoms: N7_23  and  O4_25
ROOT
HETATM    1  N1  UNL     1     -14.625 -15.517 -32.919  1.00  0.00    -0.095 N
ATOM      2  H1  UNL     1     -15.435 -16.137 -32.922  1.00  0.00     0.213 HD
HETATM    3  C4  UNL     1     -13.822 -15.829 -32.020  1.00  0.00     0.731 A
HETATM    4  N2  UNL     1     -14.100 -16.902 -31.189  1.00  0.00    -0.016 N
ATOM      5  H2  UNL     1     -14.966 -17.421 -31.331  1.00  0.00     0.203 HD
HETATM    6  C5  UNL     1     -13.286 -17.281 -30.216  1.00  0.00     0.747 A
HETATM    7  N5  UNL     1     -12.136 -16.664 -29.956  1.00  0.00     0.087 N
HETATM    8  C6  UNL     1     -11.843 -15.603 -30.763  1.00  0.00     0.752 A
HETATM    9  N8  UNL     1     -12.662 -15.209 -31.754  1.00  0.00    -0.016 N
ATOM     10  H8  UNL     1     -12.391 -14.410 -32.327  1.00  0.00     0.203 HD
ENDROOT
BRANCH   1  11
HETATM   11  O3  UNL     1     -14.712 -14.636 -33.836  1.00  0.00    -0.257 OA
BRANCH  11  12
HETATM   12  C3  UNL     1     -15.377 -14.521 -35.020  1.00  0.00     0.312 C
BRANCH  12  13
HETATM   13  C2  UNL     1     -16.726 -15.122 -34.875  1.00  0.00     0.284 C
HETATM   14  O2  UNL     1     -16.866 -16.352 -35.001  1.00  0.00    -0.263 OA
BRANCH  13  15
HETATM   15  O1  UNL     1     -17.810 -14.329 -34.602  1.00  0.00    -0.325 OA
HETATM   16  C1  UNL     1     -17.772 -13.310 -33.607  1.00  0.00     0.213 C
ENDBRANCH  13  15
ENDBRANCH  12  13
ENDBRANCH  11  12
ENDBRANCH   1  11
BRANCH   6  17
HETATM   17  N3  UNL     1     -13.606 -18.290 -29.479  1.00  0.00    -0.136 N
ATOM     18  H3  UNL     1     -13.323 -18.269 -28.499  1.00  0.00     0.205 HD
BRANCH  17  19
HETATM   19  N4  UNL     1     -14.303 -19.392 -29.919  1.00  0.00    -0.331 N
ATOM     20  H42 UNL     1     -14.920 -19.252 -30.719  1.00  0.00     0.177 HD
ATOM     21  H41 UNL     1     -14.241 -20.321 -29.503  1.00  0.00     0.177 HD
ENDBRANCH  17  19
ENDBRANCH   6  17
BRANCH   8  22
HETATM   22  N7  UNL     1     -10.739 -14.973 -30.549  1.00  0.00    -0.096 N
ATOM     23  H7  UNL     1     -10.731 -14.090 -30.038  1.00  0.00     0.213 HD
BRANCH  22  24
HETATM   24  O4  UNL     1      -9.580 -15.519 -31.024  1.00  0.00    -0.276 OA
ATOM     25  H4  UNL     1      -8.863 -14.935 -31.238  1.00  0.00     0.245 HD
ENDBRANCH  22  24
ENDBRANCH   8  22
BRANCH   7  26
HETATM   26  N6  UNL     1     -11.259 -17.032 -28.947  1.00  0.00    -0.309 N
ATOM     27  H62 UNL     1     -11.305 -17.969 -28.547  1.00  0.00     0.178 HD
ATOM     28  H61 UNL     1     -10.543 -16.422 -28.553  1.00  0.00     0.178 HD
ENDBRANCH   7  26
TORSDOF 9
ENDMDL