MODEL 3
REMARK VINA RESULT: -6.242659886      3.717      5.811
REMARK  6 active torsions:
REMARK  status: ('A' for Active; 'I' for Inactive)
REMARK    1  A    between atoms: N1_1  and  C1_4
REMARK    2  A    between atoms: C2_10  and  C3_11
REMARK    3  A    between atoms: C3_11  and  C4_13
REMARK    4  A    between atoms: C4_13  and  N4_14
REMARK    5  A    between atoms: C6_19  and  N6_20
REMARK    6  A    between atoms: N7_23  and  N8_24
ROOT
HETATM    1  N4  UNL     1     -14.070 -15.401 -31.393  1.00  0.00    -0.241 N
HETATM    2  C5  UNL     1     -12.876 -16.018 -31.253  1.00  0.00     0.345 A
HETATM    3  O3  UNL     1     -11.841 -15.462 -31.722  1.00  0.00    -0.246 OA
HETATM    4  N5  UNL     1     -12.769 -17.206 -30.629  1.00  0.00    -0.139 N
ATOM      5  H5  UNL     1     -11.862 -17.663 -30.531  1.00  0.00     0.189 HD
HETATM    6  C6  UNL     1     -13.889 -17.782 -30.135  1.00  0.00     0.705 A
HETATM    7  N7  UNL     1     -15.064 -17.147 -30.286  1.00  0.00    -0.038 N
HETATM    8  C7  UNL     1     -15.191 -15.963 -30.906  1.00  0.00     0.366 A
HETATM    9  O4  UNL     1     -16.314 -15.407 -31.022  1.00  0.00    -0.244 OA
ENDROOT
BRANCH   1  10
HETATM   10  C4  UNL     1     -14.099 -14.130 -32.074  1.00  0.00     0.224 C
BRANCH  10  11
HETATM   11  C3  UNL     1     -14.462 -14.323 -33.487  1.00  0.00     0.200 C
HETATM   12  O2  UNL     1     -13.629 -14.668 -34.347  1.00  0.00    -0.289 OA
BRANCH  11  13
HETATM   13  C2  UNL     1     -15.843 -14.102 -33.895  1.00  0.00     0.149 A
HETATM   14  C1  UNL     1     -16.588 -14.797 -34.817  1.00  0.00     0.153 A
HETATM   15  N2  UNL     1     -17.801 -14.242 -34.862  1.00  0.00    -0.224 N
HETATM   16  O1  UNL     1     -17.808 -13.259 -34.018  1.00  0.00    -0.155 OA
ATOM     17  H2  UNL     1     -18.579 -14.536 -35.452  1.00  0.00     0.198 HD
HETATM   18  N3  UNL     1     -16.670 -13.137 -33.420  1.00  0.00    -0.234 N
ATOM     19  H3  UNL     1     -16.434 -12.439 -32.715  1.00  0.00     0.197 HD
BRANCH  14  20
HETATM   20  N1  UNL     1     -16.147 -15.807 -35.496  1.00  0.00    -0.382 N
ATOM     21  H12 UNL     1     -15.684 -15.729 -36.401  1.00  0.00     0.157 HD
ATOM     22  H11 UNL     1     -16.187 -16.796 -35.250  1.00  0.00     0.157 HD
ENDBRANCH  14  20
ENDBRANCH  11  13
ENDBRANCH  10  11
ENDBRANCH   1  10
BRANCH   7  23
HETATM   23  N8  UNL     1     -16.222 -17.760 -29.765  1.00  0.00    -0.320 N
ATOM     24  H82 UNL     1     -16.319 -17.835 -28.752  1.00  0.00     0.178 HD
ATOM     25  H81 UNL     1     -16.921 -18.106 -30.424  1.00  0.00     0.178 HD
ENDBRANCH   7  23
BRANCH   6  26
HETATM   26  N6  UNL     1     -13.873 -18.919 -29.524  1.00  0.00    -0.233 N
ATOM     27  H62 UNL     1     -13.496 -19.732 -30.011  1.00  0.00     0.174 HD
ATOM     28  H61 UNL     1     -14.222 -19.035 -28.572  1.00  0.00     0.174 HD
ENDBRANCH   6  26
TORSDOF 6
ENDMDL