MODEL 1
REMARK VINA RESULT: -6.796761501      0.000      0.000
REMARK  5 active torsions:
REMARK  status: ('A' for Active; 'I' for Inactive)
REMARK    1  A    between atoms: C2_2  and  O1_3
REMARK    2  A    between atoms: C2_2  and  N1_5
REMARK    3  A    between atoms: C4_10  and  N3_11
REMARK    4  A    between atoms: C5_16  and  N5_17
REMARK    5  A    between atoms: N5_17  and  N7_20
ROOT
HETATM    1  N5  UNL     1     -14.318 -14.829 -33.253  1.00  0.00    -0.006 N
HETATM    2  C6  UNL     1     -14.639 -13.480 -33.407  1.00  0.00     0.221 C
HETATM    3  N6  UNL     1     -14.925 -12.352 -33.546  1.00  0.00    -0.169 NA
ENDROOT
BRANCH   1   4
HETATM    4  C5  UNL     1     -13.558 -15.262 -32.134  1.00  0.00     0.731 C
HETATM    5  N4  UNL     1     -13.826 -16.499 -31.657  1.00  0.00    -0.020 N
HETATM    6  C4  UNL     1     -13.183 -17.230 -30.721  1.00  0.00     0.692 C
ATOM      7  H4  UNL     1     -14.642 -16.952 -32.069  1.00  0.00     0.203 HD
HETATM    8  N2  UNL     1     -12.101 -16.841 -30.030  1.00  0.00    -0.171 N
HETATM    9  C3  UNL     1     -11.313 -15.718 -30.140  1.00  0.00     0.188 C
ATOM     10  H2  UNL     1     -11.812 -17.489 -29.297  1.00  0.00     0.186 HD
HETATM   11  N1  UNL     1     -10.134 -15.799 -29.763  1.00  0.00    -0.345 N
HETATM   12  C8  UNL     1     -11.752 -14.510 -30.636  1.00  0.00     0.304 C
ATOM     13  H1  UNL     1      -9.920 -16.732 -29.411  1.00  0.00     0.163 HD
HETATM   14  N9  UNL     1     -12.648 -14.389 -31.663  1.00  0.00    -0.150 N
HETATM   15  O2  UNL     1     -11.320 -13.456 -30.131  1.00  0.00    -0.263 OA
ATOM     16  H9  UNL     1     -12.622 -13.494 -32.151  1.00  0.00     0.188 HD
BRANCH   6  17
HETATM   17  N3  UNL     1     -13.661 -18.416 -30.472  1.00  0.00    -0.234 N
ATOM     18  H32 UNL     1     -13.005 -19.195 -30.519  1.00  0.00     0.174 HD
ATOM     19  H31 UNL     1     -14.654 -18.486 -30.249  1.00  0.00     0.174 HD
ENDBRANCH   6  17
BRANCH  11  20
HETATM   20  C2  UNL     1      -9.022 -14.960 -29.691  1.00  0.00     0.215 C
HETATM   21  C1  UNL     1      -8.898 -14.146 -28.432  1.00  0.00     0.063 C
BRANCH  20  22
HETATM   22  O1  UNL     1      -8.929 -14.058 -30.770  1.00  0.00    -0.377 OA
ATOM     23  H1  UNL     1      -8.977 -14.575 -31.565  1.00  0.00     0.212 HD
ENDBRANCH  20  22
ENDBRANCH  11  20
ENDBRANCH   1   4
BRANCH   1  24
HETATM   24  N7  UNL     1     -14.751 -15.751 -34.210  1.00  0.00    -0.206 N
HETATM   25  C7  UNL     1     -16.044 -15.788 -34.714  1.00  0.00     0.199 C
HETATM   26  N8  UNL     1     -17.106 -15.813 -35.128  1.00  0.00    -0.170 NA
ATOM     27  H7  UNL     1     -14.079 -16.435 -34.558  1.00  0.00     0.201 HD
ENDBRANCH   1  24
TORSDOF 5
ENDMDL