MODEL 1
REMARK VINA RESULT: -6.295466955      0.000      0.000
REMARK  6 active torsions:
REMARK  status: ('A' for Active; 'I' for Inactive)
REMARK    1  A    between atoms: C2_3  and  N2_4
REMARK    2  A    between atoms: C2_3  and  C3_8
REMARK    3  A    between atoms: C2_3  and  N5_17
REMARK       I    between atoms: C3_8  and  N3_10
REMARK    4  A    between atoms: N3_10  and  C4_12
REMARK    5  A    between atoms: C4_12  and  N4_13
REMARK    6  A    between atoms: N4_13  and  O2_15
ROOT
HETATM    1  N1  UNL     1     -13.681 -11.194 -32.596  1.00  0.00    -0.192 NA
HETATM    2  C1  UNL     1     -14.225 -12.209 -32.502  1.00  0.00     0.134 C
HETATM    3  C2  UNL     1     -14.935 -13.506 -32.400  1.00  0.00     0.386 C
ENDROOT
BRANCH   3   4
HETATM    4  N2  UNL     1     -16.085 -13.245 -31.537  1.00  0.00    -0.028 N
ATOM      5  H23 UNL     1     -16.150 -12.279 -31.218  1.00  0.00     0.279 HD
ATOM      6  H22 UNL     1     -16.980 -13.269 -32.025  1.00  0.00     0.279 HD
ATOM      7  H21 UNL     1     -16.010 -13.925 -30.781  1.00  0.00     0.279 HD
ENDBRANCH   3   4
BRANCH   3   8
HETATM    8  C3  UNL     1     -15.353 -13.999 -33.718  1.00  0.00     0.296 C
HETATM    9  O1  UNL     1     -14.544 -14.045 -34.667  1.00  0.00    -0.267 OA
HETATM   10  N3  UNL     1     -16.673 -14.439 -33.963  1.00  0.00    -0.317 N
ATOM     11  H3  UNL     1     -17.344 -14.406 -33.195  1.00  0.00     0.169 HD
BRANCH  10  12
HETATM   12  C4  UNL     1     -17.112 -14.922 -35.218  1.00  0.00     0.206 C
BRANCH  12  13
HETATM   13  N4  UNL     1     -16.459 -15.874 -35.776  1.00  0.00    -0.265 N
ATOM     14  H4  UNL     1     -15.717 -15.636 -36.434  1.00  0.00     0.194 HD
BRANCH  13  15
HETATM   15  O2  UNL     1     -16.716 -17.203 -35.525  1.00  0.00    -0.289 OA
ATOM     16  H2  UNL     1     -16.058 -17.881 -35.619  1.00  0.00     0.244 HD
ENDBRANCH  13  15
ENDBRANCH  12  13
ENDBRANCH  10  12
ENDBRANCH   3   8
BRANCH   3  17
HETATM   17  N5  UNL     1     -14.090 -14.431 -31.681  1.00  0.00    -0.196 N
HETATM   18  N6  UNL     1     -12.878 -14.028 -31.333  1.00  0.00    -0.301 N
HETATM   19  C5  UNL     1     -12.010 -14.798 -30.664  1.00  0.00     0.138 A
ATOM     20  H6  UNL     1     -12.592 -13.082 -31.586  1.00  0.00     0.186 HD
HETATM   21  C6  UNL     1     -12.334 -16.090 -30.290  1.00  0.00     0.119 A
HETATM   22  N7  UNL     1     -11.441 -16.929 -29.584  1.00  0.00    -0.097 NA
HETATM   23  C7  UNL     1     -13.603 -16.525 -30.649  1.00  0.00     0.266 A
HETATM   24  O3  UNL     1     -13.934 -17.690 -30.328  1.00  0.00    -0.280 OA
HETATM   25  C8  UNL     1     -14.443 -15.671 -31.338  1.00  0.00     0.317 A
HETATM   26  O4  UNL     1     -15.577 -16.084 -31.650  1.00  0.00    -0.262 OA
ENDBRANCH   3  17
TORSDOF 6
ENDMDL