MODEL 5
REMARK VINA RESULT: -5.013293809      4.784      5.854
REMARK  6 active torsions:
REMARK  status: ('A' for Active; 'I' for Inactive)
REMARK    1  A    between atoms: O1_2  and  N1_3
REMARK    2  A    between atoms: N1_3  and  N2_5
REMARK    3  A    between atoms: C3_10  and  N4_11
REMARK    4  A    between atoms: N5_14  and  O2_15
REMARK    5  A    between atoms: C4_17  and  C5_18
REMARK    6  A    between atoms: N6_19  and  O3_21
ROOT
HETATM    1  N2  UNL     1     -16.448 -11.197 -33.792  1.00  0.00    -0.171 N
HETATM    2  C2  UNL     1     -15.273 -10.652 -33.451  1.00  0.00     0.216 C
HETATM    3  S1  UNL     1     -14.903  -9.168 -34.037  1.00  0.00    -0.038 SA
HETATM    4  N3  UNL     1     -14.346 -11.225 -32.667  1.00  0.00    -0.162 N
ATOM      5  H3  UNL     1     -13.667 -10.590 -32.246  1.00  0.00     0.187 HD
HETATM    6  C3  UNL     1     -14.194 -12.538 -32.362  1.00  0.00     0.705 C
HETATM    7  N5  UNL     1     -14.851 -13.607 -32.895  1.00  0.00    -0.046 N
HETATM    8  C4  UNL     1     -16.002 -13.615 -33.591  1.00  0.00     0.168 C
HETATM    9  C6  UNL     1     -16.828 -12.509 -33.785  1.00  0.00     0.301 C
HETATM   10  O4  UNL     1     -18.028 -12.788 -33.967  1.00  0.00    -0.263 OA
ENDROOT
BRANCH   8  11
HETATM   11  C5  UNL     1     -16.435 -14.860 -34.198  1.00  0.00     0.152 C
HETATM   12  N6  UNL     1     -15.909 -15.547 -35.097  1.00  0.00    -0.278 N
ATOM     13  H6  UNL     1     -15.030 -15.284 -35.545  1.00  0.00     0.193 HD
BRANCH  12  14
HETATM   14  O3  UNL     1     -16.624 -16.719 -35.449  1.00  0.00    -0.290 OA
ATOM     15  H3  UNL     1     -16.569 -16.960 -36.366  1.00  0.00     0.244 HD
ENDBRANCH  12  14
ENDBRANCH   8  11
BRANCH   7  16
HETATM   16  O2  UNL     1     -14.293 -14.848 -32.731  1.00  0.00    -0.269 OA
ATOM     17  H2  UNL     1     -14.017 -15.316 -33.511  1.00  0.00     0.245 HD
ENDBRANCH   7  16
BRANCH   6  18
HETATM   18  N4  UNL     1     -13.337 -12.821 -31.483  1.00  0.00    -0.232 N
ATOM     19  H42 UNL     1     -12.368 -12.644 -31.749  1.00  0.00     0.174 HD
ATOM     20  H41 UNL     1     -13.689 -13.190 -30.599  1.00  0.00     0.174 HD
ENDBRANCH   6  18
BRANCH   1  21
HETATM   21  N1  UNL     1     -17.410 -10.294 -34.207  1.00  0.00    -0.196 N
ATOM     22  H1  UNL     1     -17.509 -10.052 -35.193  1.00  0.00     0.216 HD
BRANCH  21  23
HETATM   23  O1  UNL     1     -18.203  -9.750 -33.286  1.00  0.00    -0.269 OA
HETATM   24  C1  UNL     1     -19.438  -9.477 -33.843  1.00  0.00     0.239 C
ENDBRANCH  21  23
ENDBRANCH   1  21
TORSDOF 6
ENDMDL