MODEL 2
REMARK VINA RESULT: -6.038987799      1.521      2.082
REMARK  6 active torsions:
REMARK  status: ('A' for Active; 'I' for Inactive)
REMARK    1  A    between atoms: C4_8  and  S1_9
REMARK    2  A    between atoms: S1_9  and  C5_10
REMARK    3  A    between atoms: C5_10  and  C6_11
REMARK       I    between atoms: C6_11  and  N3_13
REMARK       I    between atoms: N3_13  and  C7_15
REMARK       I    between atoms: C7_15  and  N6_21
REMARK    4  A    between atoms: N4_16  and  N5_18
REMARK    5  A    between atoms: N6_21  and  N7_23
REMARK    6  A    between atoms: N7_23  and  N8_24
ROOT
HETATM    1  C6  UNL     1     -16.222  -9.427 -34.547  1.00  0.00     0.245 C
HETATM    2  O1  UNL     1     -15.263  -9.487 -35.353  1.00  0.00    -0.272 OA
HETATM    3  N3  UNL     1     -16.832  -8.178 -34.279  1.00  0.00    -0.157 N
ATOM      4  H3  UNL     1     -17.611  -8.116 -33.624  1.00  0.00     0.187 HD
HETATM    5  C7  UNL     1     -16.349  -7.015 -34.927  1.00  0.00     0.712 C
HETATM    6  N4  UNL     1     -16.912  -5.877 -34.675  1.00  0.00    -0.137 N
ATOM      7  H4  UNL     1     -17.689  -5.858 -34.015  1.00  0.00     0.205 HD
HETATM    8  N6  UNL     1     -15.283  -7.053 -35.832  1.00  0.00    -0.115 N
ATOM      9  H6  UNL     1     -14.340  -7.032 -35.443  1.00  0.00     0.203 HD
ENDROOT
BRANCH   1  10
HETATM   10  C5  UNL     1     -16.666 -10.693 -33.912  1.00  0.00     0.185 C
BRANCH  10  11
HETATM   11  S1  UNL     1     -15.384 -11.440 -32.895  1.00  0.00    -0.085 SA
BRANCH  11  12
HETATM   12  C4  UNL     1     -15.156 -13.129 -33.473  1.00  0.00     0.146 A
HETATM   13  N2  UNL     1     -14.118 -13.884 -33.077  1.00  0.00    -0.333 N
HETATM   14  C3  UNL     1     -13.923 -15.142 -33.489  1.00  0.00     0.183 A
ATOM     15  H2  UNL     1     -13.445 -13.478 -32.427  1.00  0.00     0.168 HD
HETATM   16  N1  UNL     1     -14.814 -15.670 -34.343  1.00  0.00    -0.342 N
HETATM   17  C2  UNL     1     -15.865 -14.952 -34.765  1.00  0.00     0.079 A
ATOM     18  H1  UNL     1     -14.690 -16.627 -34.674  1.00  0.00     0.167 HD
HETATM   19  C1  UNL     1     -16.842 -15.563 -35.715  1.00  0.00     0.089 C
HETATM   20  N9  UNL     1     -16.038 -13.689 -34.334  1.00  0.00    -0.327 N
ATOM     21  H9  UNL     1     -16.840 -13.149 -34.659  1.00  0.00     0.169 HD
ENDBRANCH  11  12
ENDBRANCH  10  11
ENDBRANCH   1  10
BRANCH   6  22
HETATM   22  N5  UNL     1     -16.518  -4.692 -35.251  1.00  0.00    -0.331 N
ATOM     23  H52 UNL     1     -15.759  -4.183 -34.799  1.00  0.00     0.177 HD
ATOM     24  H51 UNL     1     -16.943  -4.308 -36.095  1.00  0.00     0.177 HD
ENDBRANCH   6  22
BRANCH   8  25
HETATM   25  N7  UNL     1     -15.396  -7.116 -37.214  1.00  0.00    -0.015 NA
BRANCH  25  26
HETATM   26  N8  UNL     1     -16.563  -7.737 -37.658  1.00  0.00    -0.328 N
ATOM     27  H82 UNL     1     -16.561  -8.419 -38.416  1.00  0.00     0.174 HD
ATOM     28  H81 UNL     1     -17.402  -7.444 -37.157  1.00  0.00     0.174 HD
ENDBRANCH  25  26
ENDBRANCH   8  25
TORSDOF 6
ENDMDL