MODEL 4
REMARK VINA RESULT: -5.872177417      1.596      4.090
REMARK  5 active torsions:
REMARK  status: ('A' for Active; 'I' for Inactive)
REMARK    1  A    between atoms: N1_2  and  O1_3
REMARK    2  A    between atoms: N1_2  and  C2_5
REMARK    3  A    between atoms: C3_8  and  C4_9
REMARK    4  A    between atoms: N6_17  and  N7_19
REMARK    5  A    between atoms: N7_19  and  O3_21
ROOT
HETATM    1  C2  UNL     1     -13.227 -15.210 -31.963  1.00  0.00     0.182 C
HETATM    2  N2  UNL     1     -12.001 -14.864 -31.466  1.00  0.00    -0.331 N
ATOM      3  H2  UNL     1     -11.486 -14.162 -31.997  1.00  0.00     0.168 HD
HETATM    4  C3  UNL     1     -11.387 -15.338 -30.358  1.00  0.00     0.141 C
HETATM    5  C5  UNL     1     -11.649 -16.509 -29.684  1.00  0.00     0.150 C
HETATM    6  N4  UNL     1     -10.537 -17.000 -28.955  1.00  0.00    -0.080 NA
HETATM    7  N5  UNL     1     -12.800 -17.240 -29.624  1.00  0.00    -0.324 N
ATOM      8  H5  UNL     1     -12.853 -17.964 -28.907  1.00  0.00     0.169 HD
HETATM    9  C6  UNL     1     -13.871 -17.093 -30.426  1.00  0.00     0.178 C
HETATM   10  N6  UNL     1     -14.867 -17.884 -30.179  1.00  0.00    -0.262 N
ATOM     11  H6  UNL     1     -15.707 -17.817 -30.755  1.00  0.00     0.190 HD
HETATM   12  C7  UNL     1     -14.041 -16.210 -31.473  1.00  0.00     0.262 C
HETATM   13  O4  UNL     1     -15.130 -16.306 -32.124  1.00  0.00    -0.280 OA
ENDROOT
BRANCH  10  14
HETATM   14  N7  UNL     1     -14.824 -18.825 -29.146  1.00  0.00    -0.208 N
ATOM     15  H7  UNL     1     -15.330 -18.692 -28.270  1.00  0.00     0.215 HD
BRANCH  14  16
HETATM   16  O3  UNL     1     -14.119 -19.855 -29.365  1.00  0.00    -0.274 OA
ATOM     17  H3  UNL     1     -14.595 -20.672 -29.461  1.00  0.00     0.246 HD
ENDBRANCH  14  16
ENDBRANCH  10  14
BRANCH   1  18
HETATM   18  N1  UNL     1     -13.710 -14.479 -33.082  1.00  0.00    -0.245 N
HETATM   19  C1  UNL     1     -14.233 -13.133 -32.990  1.00  0.00     0.187 C
BRANCH  18  20
HETATM   20  O1  UNL     1     -13.694 -15.048 -34.319  1.00  0.00    -0.286 OA
ATOM     21  H1  UNL     1     -12.841 -15.249 -34.686  1.00  0.00     0.244 HD
ENDBRANCH  18  20
ENDBRANCH   1  18
BRANCH   4  22
HETATM   22  C4  UNL     1     -10.316 -14.525 -29.795  1.00  0.00     0.284 C
HETATM   23  N3  UNL     1      -9.093 -14.288 -30.444  1.00  0.00    -0.056 NA
HETATM   24  O2  UNL     1     -10.478 -13.989 -28.652  1.00  0.00    -0.269 OA
ENDBRANCH   4  22
TORSDOF 5
ENDMDL