MODEL 2
REMARK VINA RESULT: -9.297667939      2.154      3.797
REMARK  7 active torsions:
REMARK  status: ('A' for Active; 'I' for Inactive)
REMARK    1  A    between atoms: C3_6  and  O1_7
REMARK    2  A    between atoms: C3_6  and  C4_9
REMARK    3  A    between atoms: C4_9  and  N2_10
REMARK    4  A    between atoms: N3_13  and  C6_14
REMARK    5  A    between atoms: C6_14  and  O3_15
REMARK    6  A    between atoms: N4_17  and  C7_18
REMARK    7  A    between atoms: C9_23  and  O4_24
ROOT
HETATM    1  N2  UNL     1     124.489 100.569  13.519  1.00  0.00    -0.245 N
HETATM    2  C5  UNL     1     125.623 100.305  14.193  1.00  0.00     0.349 A
HETATM    3  O2  UNL     1     126.826 100.500  13.790  1.00  0.00    -0.245 OA
HETATM    4  N3  UNL     1     125.244  99.795  15.378  1.00  0.00    -0.210 N
HETATM    5  N4  UNL     1     123.936  99.725  15.480  1.00  0.00    -0.200 N
HETATM    6  C10 UNL     1     123.465 100.211  14.315  1.00  0.00     0.349 A
HETATM    7  O5  UNL     1     122.232 100.325  13.988  1.00  0.00    -0.245 OA
ENDROOT
BRANCH   1   8
HETATM    8  C4  UNL     1     124.426 101.127  12.208  1.00  0.00     0.187 C
BRANCH   8   9
HETATM    9  C3  UNL     1     124.750 102.569  12.094  1.00  0.00     0.161 C
HETATM   10  C2  UNL     1     123.432 103.336  12.286  1.00  0.00     0.125 C
HETATM   11  C1  UNL     1     122.922 103.524  10.909  1.00  0.00     0.080 C
HETATM   12  N1  UNL     1     121.718 103.710  10.481  1.00  0.00    -0.389 N
HETATM   13  N6  UNL     1     124.055 103.464  10.055  1.00  0.00    -0.314 N
ATOM     14  H12 UNL     1     120.904 103.752  11.095  1.00  0.00     0.157 HD
ATOM     15  H11 UNL     1     121.367 103.839   9.532  1.00  0.00     0.157 HD
HETATM   16  C11 UNL     1     125.198 103.031  10.783  1.00  0.00     0.259 C
ATOM     17  H6  UNL     1     124.050 103.698   9.062  1.00  0.00     0.170 HD
HETATM   18  O6  UNL     1     126.361 103.071  10.309  1.00  0.00    -0.270 OA
BRANCH   9  19
HETATM   19  O1  UNL     1     125.613 103.043  13.068  1.00  0.00    -0.378 OA
ATOM     20  H1  UNL     1     126.267 103.558  12.611  1.00  0.00     0.211 HD
ENDBRANCH   9  19
ENDBRANCH   8   9
ENDBRANCH   1   8
BRANCH   4  21
HETATM   21  C6  UNL     1     126.251  99.393  16.372  1.00  0.00     0.318 C
BRANCH  21  22
HETATM   22  O3  UNL     1     126.819  98.164  16.035  1.00  0.00    -0.380 OA
ATOM     23  H3  UNL     1     126.986  97.644  16.812  1.00  0.00     0.211 HD
ENDBRANCH  21  22
ENDBRANCH   4  21
BRANCH   5  24
HETATM   24  C7  UNL     1     123.218  99.233  16.605  1.00  0.00     0.342 C
HETATM   25  N5  UNL     1     123.913  98.266  17.443  1.00  0.00    -0.047 N
HETATM   26  C8  UNL     1     122.559  97.801  17.800  1.00  0.00     0.270 C
ATOM     27  H52 UNL     1     124.625  97.636  17.072  1.00  0.00     0.279 HD
ATOM     28  H51 UNL     1     124.597  98.547  18.146  1.00  0.00     0.279 HD
HETATM   29  C9  UNL     1     122.208  98.149  16.344  1.00  0.00     0.196 C
BRANCH  29  30
HETATM   30  O4  UNL     1     122.644  97.099  15.556  1.00  0.00    -0.390 OA
ATOM     31  H4  UNL     1     123.099  96.402  16.014  1.00  0.00     0.210 HD
ENDBRANCH  29  30
ENDBRANCH   5  24
TORSDOF 7
ENDMDL