MODEL 4
REMARK VINA RESULT: -10.426411682      1.948      3.495
REMARK  7 active torsions:
REMARK  status: ('A' for Active; 'I' for Inactive)
REMARK    1  A    between atoms: C1_2  and  C2_4
REMARK    2  A    between atoms: C4_9  and  N3_10
REMARK    3  A    between atoms: N7_22  and  C9_23
REMARK    4  A    between atoms: C9_23  and  O4_24
REMARK    5  A    between atoms: C9_23  and  C10_26
REMARK    6  A    between atoms: C10_26  and  O5_27
REMARK    7  A    between atoms: C11_29  and  O6_30
ROOT
HETATM    1  N3  UNL     1     123.819 101.386  12.827  1.00  0.00    -0.249 N
HETATM    2  C5  UNL     1     125.093 101.218  12.477  1.00  0.00     0.333 A
HETATM    3  O2  UNL     1     125.516 101.823  11.430  1.00  0.00    -0.246 OA
HETATM    4  N4  UNL     1     125.899 100.437  13.204  1.00  0.00    -0.273 N
ATOM      5  H4  UNL     1     126.870 100.329  12.909  1.00  0.00     0.173 HD
HETATM    6  C6  UNL     1     125.486  99.789  14.306  1.00  0.00     0.281 A
HETATM    7  O3  UNL     1     126.234  99.058  14.990  1.00  0.00    -0.265 OA
HETATM    8  C7  UNL     1     124.175  99.931  14.710  1.00  0.00     0.165 A
HETATM    9  C8  UNL     1     123.381 100.744  13.932  1.00  0.00     0.161 A
HETATM   10  N5  UNL     1     122.169 100.714  14.531  1.00  0.00    -0.267 N
ATOM     11  H5  UNL     1     121.340 101.213  14.210  1.00  0.00     0.186 HD
HETATM   12  N6  UNL     1     122.227  99.938  15.598  1.00  0.00    -0.015 NA
HETATM   13  N7  UNL     1     123.457  99.432  15.744  1.00  0.00    -0.236 N
ENDROOT
BRANCH   1  14
HETATM   14  C4  UNL     1     122.911 102.216  12.077  1.00  0.00     0.326 C
HETATM   15  N2  UNL     1     123.364 102.560  10.759  1.00  0.00    -0.050 N
HETATM   16  C3  UNL     1     122.567 103.722  10.413  1.00  0.00     0.251 C
ATOM     17  H22 UNL     1     123.312 101.798  10.084  1.00  0.00     0.279 HD
ATOM     18  H21 UNL     1     124.371 102.703  10.685  1.00  0.00     0.279 HD
HETATM   19  C2  UNL     1     122.709 104.573  11.659  1.00  0.00     0.133 C
HETATM   20  C11 UNL     1     122.566 103.515  12.749  1.00  0.00     0.183 C
BRANCH  19  21
HETATM   21  C1  UNL     1     121.692 105.627  11.740  1.00  0.00     0.239 C
HETATM   22  N1  UNL     1     120.564 105.727  10.891  1.00  0.00    -0.062 NA
HETATM   23  O1  UNL     1     121.815 106.515  12.622  1.00  0.00    -0.276 OA
ENDBRANCH  19  21
BRANCH  20  24
HETATM   24  O6  UNL     1     121.198 103.525  13.110  1.00  0.00    -0.391 OA
ATOM     25  H6  UNL     1     120.953 102.612  13.204  1.00  0.00     0.210 HD
ENDBRANCH  20  24
ENDBRANCH   1  14
BRANCH  13  26
HETATM   26  C9  UNL     1     123.924  98.539  16.785  1.00  0.00     0.263 C
BRANCH  26  27
HETATM   27  O4  UNL     1     124.383  97.320  16.233  1.00  0.00    -0.373 OA
ATOM     28  H4  UNL     1     125.308  97.195  16.412  1.00  0.00     0.212 HD
ENDBRANCH  26  27
BRANCH  26  29
HETATM   29  C10 UNL     1     122.834  98.240  17.792  1.00  0.00     0.219 C
BRANCH  29  30
HETATM   30  O5  UNL     1     122.023  97.191  17.365  1.00  0.00    -0.397 OA
ATOM     31  H5  UNL     1     121.143  97.491  17.171  1.00  0.00     0.209 HD
ENDBRANCH  29  30
ENDBRANCH  26  29
ENDBRANCH  13  26
TORSDOF 7
ENDMDL