MODEL 4
REMARK VINA RESULT: -7.753136416      1.327      1.527
REMARK  11 active torsions:
REMARK  status: ('A' for Active; 'I' for Inactive)
REMARK    1  A    between atoms: N1_1  and  N2_4
REMARK    2  A    between atoms: N2_4  and  C1_6
REMARK    3  A    between atoms: C4_16  and  C5_17
REMARK    4  A    between atoms: C5_17  and  N6_19
REMARK    5  A    between atoms: N6_19  and  N7_21
REMARK    6  A    between atoms: N8_24  and  O2_25
REMARK    7  A    between atoms: N9_28  and  C7_29
REMARK    8  A    between atoms: C7_29  and  C8_30
REMARK    9  A    between atoms: C8_30  and  O3_31
REMARK   10  A    between atoms: C8_30  and  C9_33
REMARK   11  A    between atoms: C9_33  and  O4_34
ROOT
HETATM    1  C1  UNL     1     122.619 103.663  10.230  1.00  0.00     0.707 A
HETATM    2  N3  UNL     1     123.821 103.591   9.702  1.00  0.00    -0.152 N
ATOM      3  H3  UNL     1     124.051 104.148   8.879  1.00  0.00     0.187 HD
HETATM    4  C2  UNL     1     124.726 102.799  10.235  1.00  0.00     0.291 A
HETATM    5  O1  UNL     1     125.912 102.675   9.778  1.00  0.00    -0.265 OA
HETATM    6  C3  UNL     1     124.399 102.057  11.344  1.00  0.00     0.164 A
HETATM    7  N4  UNL     1     125.313 101.254  11.918  1.00  0.00    -0.291 N
ATOM      8  H4  UNL     1     126.249 101.184  11.519  1.00  0.00     0.187 HD
HETATM    9  N5  UNL     1     125.006 100.558  12.992  1.00  0.00    -0.280 N
ATOM     10  H5  UNL     1     125.719  99.958  13.406  1.00  0.00     0.188 HD
HETATM   11  C4  UNL     1     123.801 100.604  13.564  1.00  0.00     0.189 A
HETATM   12  N8  UNL     1     122.869 101.423  12.977  1.00  0.00    -0.183 N
HETATM   13  C6  UNL     1     123.108 102.158  11.884  1.00  0.00     0.191 A
HETATM   14  N9  UNL     1     122.189 102.962  11.339  1.00  0.00    -0.138 N
ENDROOT
BRANCH  11  15
HETATM   15  C5  UNL     1     123.442  99.845  14.750  1.00  0.00     0.162 C
HETATM   16  S1  UNL     1     124.598  99.477  15.830  1.00  0.00    -0.055 SA
BRANCH  15  17
HETATM   17  N6  UNL     1     122.111  99.424  14.976  1.00  0.00    -0.294 N
ATOM     18  H6  UNL     1     121.372 100.127  14.950  1.00  0.00     0.187 HD
BRANCH  17  19
HETATM   19  N7  UNL     1     121.754  98.101  15.234  1.00  0.00    -0.344 N
ATOM     20  H72 UNL     1     122.113  97.390  14.598  1.00  0.00     0.176 HD
ATOM     21  H71 UNL     1     121.162  97.819  16.016  1.00  0.00     0.176 HD
ENDBRANCH  17  19
ENDBRANCH  15  17
ENDBRANCH  11  15
BRANCH  12  22
HETATM   22  O2  UNL     1     121.656 101.509  13.582  1.00  0.00    -0.279 OA
ATOM     23  H2  UNL     1     121.330 102.381  13.773  1.00  0.00     0.245 HD
ENDBRANCH  12  22
BRANCH  14  24
HETATM   24  C7  UNL     1     120.886 103.092  11.853  1.00  0.00     0.123 C
BRANCH  24  25
HETATM   25  C8  UNL     1     120.604 104.340  12.619  1.00  0.00     0.181 C
BRANCH  25  26
HETATM   26  O3  UNL     1     121.486 105.325  12.772  1.00  0.00    -0.388 OA
ATOM     27  H3  UNL     1     121.517 105.890  13.535  1.00  0.00     0.210 HD
ENDBRANCH  25  26
BRANCH  25  28
HETATM   28  C9  UNL     1     119.282 104.966  12.129  1.00  0.00     0.201 C
BRANCH  28  29
HETATM   29  O4  UNL     1     119.102 104.603  10.815  1.00  0.00    -0.398 OA
ATOM     30  H4  UNL     1     118.169 104.603  10.636  1.00  0.00     0.209 HD
ENDBRANCH  28  29
ENDBRANCH  25  28
ENDBRANCH  24  25
ENDBRANCH  14  24
BRANCH   1  31
HETATM   31  N2  UNL     1     121.722 104.456   9.690  1.00  0.00    -0.138 N
ATOM     32  H2  UNL     1     120.852 104.058   9.338  1.00  0.00     0.205 HD
BRANCH  31  33
HETATM   33  N1  UNL     1     121.933 105.820   9.588  1.00  0.00    -0.331 N
ATOM     34  H12 UNL     1     122.348 106.306  10.384  1.00  0.00     0.177 HD
ATOM     35  H11 UNL     1     121.683 106.336   8.745  1.00  0.00     0.177 HD
ENDBRANCH  31  33
ENDBRANCH   1  31
TORSDOF 11
ENDMDL