MODEL 4
REMARK VINA RESULT: -7.314160544      2.612      5.426
REMARK  6 active torsions:
REMARK  status: ('A' for Active; 'I' for Inactive)
REMARK    1  A    between atoms: N5_16  and  C7_17
REMARK    2  A    between atoms: C7_17  and  C9_25
REMARK    3  A    between atoms: N6_18  and  N7_20
REMARK    4  A    between atoms: C9_25  and  O2_26
REMARK    5  A    between atoms: C9_25  and  C10_28
REMARK    6  A    between atoms: C10_28  and  O3_29
ROOT
HETATM    1  C1  UNL     1     122.779 109.482  10.607  1.00  0.00     0.164 C
HETATM    2  N1  UNL     1     122.754 108.021  10.451  1.00  0.00    -0.268 N
HETATM    3  C2  UNL     1     123.438 107.545   9.407  1.00  0.00     0.280 A
HETATM    4  O1  UNL     1     124.062 108.312   8.614  1.00  0.00    -0.265 OA
HETATM    5  C3  UNL     1     123.427 106.177   9.243  1.00  0.00     0.133 A
HETATM    6  N2  UNL     1     124.109 105.664   8.199  1.00  0.00    -0.346 N
ATOM      7  H2  UNL     1     124.608 106.290   7.566  1.00  0.00     0.167 HD
HETATM    8  C4  UNL     1     124.138 104.346   7.985  1.00  0.00     0.182 A
HETATM    9  N3  UNL     1     123.473 103.563   8.835  1.00  0.00    -0.337 N
ATOM     10  H3  UNL     1     123.492 102.556   8.674  1.00  0.00     0.168 HD
HETATM   11  C5  UNL     1     122.773 104.026   9.899  1.00  0.00     0.130 A
HETATM   12  N4  UNL     1     122.161 103.212  10.670  1.00  0.00    -0.384 N
ATOM     13  H41 UNL     1     121.634 103.560  11.471  1.00  0.00     0.157 HD
ATOM     14  H42 UNL     1     122.193 102.208  10.493  1.00  0.00     0.157 HD
HETATM   15  C6  UNL     1     122.730 105.361  10.134  1.00  0.00     0.121 A
HETATM   16  N5  UNL     1     122.053 105.863  11.172  1.00  0.00    -0.243 N
HETATM   17  C11 UNL     1     122.088 107.240  11.303  1.00  0.00     0.337 A
HETATM   18  O4  UNL     1     121.461 107.772  12.271  1.00  0.00    -0.246 OA
ENDROOT
BRANCH  16  19
HETATM   19  C7  UNL     1     121.315 105.180  12.139  1.00  0.00     0.138 C
HETATM   20  N6  UNL     1     120.067 105.123  12.090  1.00  0.00    -0.284 N
ATOM     21  H6  UNL     1     119.686 104.587  12.869  1.00  0.00     0.188 HD
BRANCH  20  22
HETATM   22  N7  UNL     1     119.094 105.580  11.283  1.00  0.00    -0.275 N
HETATM   23  C8  UNL     1     118.040 106.241  11.628  1.00  0.00     0.215 C
HETATM   24  N8  UNL     1     117.722 106.603  12.939  1.00  0.00    -0.065 NA
HETATM   25  N9  UNL     1     117.159 106.615  10.583  1.00  0.00    -0.065 NA
ATOM     26  H7  UNL     1     119.199 105.383  10.288  1.00  0.00     0.189 HD
ENDBRANCH  20  22
BRANCH  19  27
HETATM   27  C9  UNL     1     121.970 104.624  13.315  1.00  0.00     0.211 C
BRANCH  27  28
HETATM   28  O2  UNL     1     123.147 103.957  13.184  1.00  0.00    -0.386 OA
ATOM     29  H2  UNL     1     123.193 103.182  12.638  1.00  0.00     0.210 HD
ENDBRANCH  27  28
BRANCH  27  30
HETATM   30  C10 UNL     1     120.955 103.799  14.133  1.00  0.00     0.203 C
BRANCH  30  31
HETATM   31  O3  UNL     1     120.736 102.616  13.473  1.00  0.00    -0.398 OA
ATOM     32  H3  UNL     1     121.129 102.682  12.611  1.00  0.00     0.209 HD
ENDBRANCH  30  31
ENDBRANCH  27  30
ENDBRANCH  19  27
ENDBRANCH  16  19
TORSDOF 6
ENDMDL