MODEL 1
REMARK VINA RESULT: -8.270908185      0.000      0.000
REMARK  9 active torsions:
REMARK  status: ('A' for Active; 'I' for Inactive)
REMARK    1  A    between atoms: C2_2  and  N1_3
REMARK    2  A    between atoms: C4_8  and  O1_9
REMARK    3  A    between atoms: C5_11  and  O2_12
REMARK    4  A    between atoms: C6_14  and  C7_15
REMARK       I    between atoms: C7_15  and  N3_17
REMARK    5  A    between atoms: N3_17  and  N4_19
REMARK    6  A    between atoms: C8_22  and  O4_23
REMARK    7  A    between atoms: O4_23  and  N5_24
REMARK    8  A    between atoms: N5_24  and  C9_25
REMARK    9  A    between atoms: C9_25  and  C11_28
ROOT
HETATM    1  C9  UNL     1     123.986 101.450  12.472  1.00  0.00     0.283 C
HETATM    2  C10 UNL     1     123.456 100.827  13.682  1.00  0.00     0.141 C
HETATM    3  N6  UNL     1     123.043 100.344  14.647  1.00  0.00    -0.188 NA
ENDROOT
BRANCH   1   4
HETATM    4  N5  UNL     1     123.366 102.251  11.849  1.00  0.00    -0.259 NA
BRANCH   4   5
HETATM    5  O4  UNL     1     122.707 103.102  11.211  1.00  0.00    -0.166 OA
BRANCH   5   6
HETATM    6  C8  UNL     1     122.548 104.489  11.240  1.00  0.00     0.144 C
HETATM    7  C6  UNL     1     123.267 105.290  10.494  1.00  0.00     0.080 C
HETATM    8  C5  UNL     1     122.878 106.693  10.736  1.00  0.00     0.225 C
HETATM    9  C4  UNL     1     121.525 106.597  11.409  1.00  0.00     0.294 C
HETATM   10  N2  UNL     1     120.444 106.419  10.458  1.00  0.00    -0.011 N
HETATM   11  C12 UNL     1     121.609 105.271  12.065  1.00  0.00     0.351 C
HETATM   12  C3  UNL     1     119.489 105.547  11.113  1.00  0.00     0.507 C
ATOM     13  H22 UNL     1     120.753 106.078   9.547  1.00  0.00     0.283 HD
ATOM     14  H21 UNL     1     120.041 107.295  10.128  1.00  0.00     0.283 HD
HETATM   15  N1  UNL     1     120.267 104.727  12.041  1.00  0.00     0.129 N
BRANCH   7  16
HETATM   16  C7  UNL     1     124.326 104.881   9.530  1.00  0.00     0.271 C
HETATM   17  O3  UNL     1     124.256 105.276   8.340  1.00  0.00    -0.266 OA
HETATM   18  N3  UNL     1     125.390 104.074   9.904  1.00  0.00    -0.273 N
ATOM     19  H3  UNL     1     125.459 103.742  10.866  1.00  0.00     0.189 HD
BRANCH  18  20
HETATM   20  N4  UNL     1     126.367 103.710   8.976  1.00  0.00    -0.342 N
ATOM     21  H42 UNL     1     126.420 104.222   8.095  1.00  0.00     0.176 HD
ATOM     22  H41 UNL     1     127.014 102.948   9.175  1.00  0.00     0.176 HD
ENDBRANCH  18  20
ENDBRANCH   7  16
BRANCH   8  23
HETATM   23  O2  UNL     1     122.684 107.412   9.553  1.00  0.00    -0.386 OA
ATOM     24  H2  UNL     1     123.464 107.283   9.026  1.00  0.00     0.210 HD
ENDBRANCH   8  23
BRANCH   9  25
HETATM   25  O1  UNL     1     121.297 107.609  12.303  1.00  0.00    -0.361 OA
ATOM     26  H1  UNL     1     121.786 107.512  13.112  1.00  0.00     0.212 HD
ENDBRANCH   9  25
BRANCH  15  27
HETATM   27  C2  UNL     1     119.707 104.823  13.366  1.00  0.00     0.271 C
HETATM   28  C1  UNL     1     120.523 104.130  14.418  1.00  0.00     0.037 C
ENDBRANCH  15  27
ENDBRANCH   5   6
ENDBRANCH   4   5
ENDBRANCH   1   4
BRANCH   1  29
HETATM   29  C11 UNL     1     125.332 100.993  12.096  1.00  0.00     0.309 C
HETATM   30  N7  UNL     1     126.075 100.075  12.870  1.00  0.00    -0.054 NA
HETATM   31  O5  UNL     1     125.907 101.404  11.042  1.00  0.00    -0.267 OA
ENDBRANCH   1  29
TORSDOF 9
ENDMDL