MODEL 2
REMARK VINA RESULT: -9.180504290      0.756      1.746
REMARK  9 active torsions:
REMARK  status: ('A' for Active; 'I' for Inactive)
REMARK    1  A    between atoms: N1_1  and  C1_4
REMARK    2  A    between atoms: N4_13  and  C4_14
REMARK    3  A    between atoms: C5_16  and  C6_17
REMARK    4  A    between atoms: C6_17  and  N5_18
REMARK    5  A    between atoms: C6_17  and  C7_22
REMARK    6  A    between atoms: C9_26  and  C10_27
REMARK    7  A    between atoms: C10_27  and  C11_29
REMARK    8  A    between atoms: C11_29  and  O7_30
REMARK    9  A    between atoms: C11_29  and  O8_32
ROOT
HETATM    1  C4  UNL     1     123.919 101.922  13.300  1.00  0.00     0.262 C
HETATM    2  O3  UNL     1     122.568 102.290  13.537  1.00  0.00    -0.357 OA
HETATM    3  C5  UNL     1     122.432 103.365  12.628  1.00  0.00     0.166 C
HETATM    4  C8  UNL     1     123.189 103.007  11.398  1.00  0.00     0.051 C
HETATM    5  C9  UNL     1     123.884 101.693  11.839  1.00  0.00     0.113 C
ENDROOT
BRANCH   1   6
HETATM    6  N4  UNL     1     124.299 100.860  14.153  1.00  0.00    -0.104 N
HETATM    7  C1  UNL     1     125.514 100.661  14.679  1.00  0.00     0.688 A
HETATM    8  N2  UNL     1     125.799  99.617  15.486  1.00  0.00    -0.141 N
HETATM    9  C2  UNL     1     124.854  98.728  15.793  1.00  0.00     0.342 A
ATOM     10  H2  UNL     1     126.741  99.508  15.863  1.00  0.00     0.189 HD
HETATM   11  O1  UNL     1     125.110  97.749  16.546  1.00  0.00    -0.246 OA
HETATM   12  N3  UNL     1     123.620  98.882  15.291  1.00  0.00    -0.259 N
HETATM   13  C3  UNL     1     123.352  99.934  14.483  1.00  0.00     0.346 A
ATOM     14  H3  UNL     1     122.886  98.210  15.517  1.00  0.00     0.175 HD
HETATM   15  O2  UNL     1     122.173  99.991  14.064  1.00  0.00    -0.246 OA
BRANCH   7  16
HETATM   16  N1  UNL     1     126.447 101.486  14.397  1.00  0.00    -0.234 N
ATOM     17  H12 UNL     1     127.377 101.122  14.191  1.00  0.00     0.174 HD
ATOM     18  H11 UNL     1     126.231 102.483  14.396  1.00  0.00     0.174 HD
ENDBRANCH   7  16
ENDBRANCH   1   6
BRANCH   5  19
HETATM   19  C10 UNL     1     125.168 101.676  11.134  1.00  0.00     0.189 C
HETATM   20  O6  UNL     1     126.026 100.881  11.437  1.00  0.00    -0.292 OA
BRANCH  19  21
HETATM   21  C11 UNL     1     125.464 102.625  10.030  1.00  0.00     0.326 C
BRANCH  21  22
HETATM   22  O7  UNL     1     126.661 103.311  10.246  1.00  0.00    -0.365 OA
ATOM     23  H7  UNL     1     127.238 103.256   9.494  1.00  0.00     0.213 HD
ENDBRANCH  21  22
BRANCH  21  24
HETATM   24  O8  UNL     1     125.461 101.985   8.787  1.00  0.00    -0.365 OA
ATOM     25  H8  UNL     1     124.690 102.210   8.280  1.00  0.00     0.213 HD
ENDBRANCH  21  24
ENDBRANCH  19  21
ENDBRANCH   5  19
BRANCH   3  26
HETATM   26  C6  UNL     1     120.953 103.561  12.386  1.00  0.00     0.312 C
BRANCH  26  27
HETATM   27  N5  UNL     1     120.624 103.713  11.009  1.00  0.00    -0.063 N
ATOM     28  H53 UNL     1     120.852 102.867  10.486  1.00  0.00     0.275 HD
ATOM     29  H52 UNL     1     119.613 103.724  10.877  1.00  0.00     0.275 HD
ATOM     30  H51 UNL     1     121.055 104.532  10.579  1.00  0.00     0.275 HD
ENDBRANCH  26  27
BRANCH  26  31
HETATM   31  C7  UNL     1     120.581 104.840  13.082  1.00  0.00     0.207 C
HETATM   32  O4  UNL     1     121.032 105.957  12.713  1.00  0.00    -0.646 OA
HETATM   33  O5  UNL     1     119.718 104.856  14.174  1.00  0.00    -0.646 OA
ENDBRANCH  26  31
ENDBRANCH   3  26
TORSDOF 9
ENDMDL