MODEL 2
REMARK VINA RESULT: -9.674414829      2.019      4.330
REMARK  6 active torsions:
REMARK  status: ('A' for Active; 'I' for Inactive)
REMARK    1  A    between atoms: C2_5  and  C3_6
REMARK    2  A    between atoms: C3_6  and  O1_8
REMARK    3  A    between atoms: C4_10  and  C5_11
REMARK    4  A    between atoms: C5_11  and  N4_12
REMARK    5  A    between atoms: N8_23  and  C9_24
REMARK    6  A    between atoms: C10_28  and  N10_29
ROOT
HETATM    1  C1  UNL     1     121.485 104.832   9.889  1.00  0.00     0.164 C
HETATM    2  N1  UNL     1     122.551 105.320  10.723  1.00  0.00    -0.137 NA
HETATM    3  N2  UNL     1     122.224 105.414  12.061  1.00  0.00    -0.296 N
ATOM      4  H2  UNL     1     122.024 106.257  12.598  1.00  0.00     0.183 HD
HETATM    5  C2  UNL     1     122.230 104.017  12.536  1.00  0.00     0.122 C
HETATM    6  C4  UNL     1     123.047 103.316  11.791  1.00  0.00     0.101 C
HETATM    7  N8  UNL     1     123.534 104.289  10.791  1.00  0.00    -0.236 N
ENDROOT
BRANCH   6   8
HETATM    8  C5  UNL     1     123.535 101.976  11.664  1.00  0.00     0.155 C
BRANCH   8   9
HETATM    9  N4  UNL     1     124.072 101.123  12.614  1.00  0.00    -0.213 N
HETATM   10  N5  UNL     1     123.476 100.770  13.760  1.00  0.00    -0.273 N
HETATM   11  C6  UNL     1     124.029 100.018  14.698  1.00  0.00     0.200 A
ATOM     12  H5  UNL     1     122.527 101.105  13.923  1.00  0.00     0.189 HD
HETATM   13  N6  UNL     1     123.365  99.656  15.916  1.00  0.00    -0.075 NA
HETATM   14  C7  UNL     1     125.300  99.556  14.505  1.00  0.00     0.292 A
HETATM   15  O2  UNL     1     125.852  98.834  15.386  1.00  0.00    -0.264 OA
HETATM   16  N7  UNL     1     125.952  99.874  13.377  1.00  0.00    -0.271 N
HETATM   17  C8  UNL     1     125.344 100.641  12.458  1.00  0.00     0.348 A
ATOM     18  H7  UNL     1     126.901  99.536  13.218  1.00  0.00     0.174 HD
HETATM   19  O3  UNL     1     125.977 100.927  11.404  1.00  0.00    -0.245 OA
ENDBRANCH   8   9
ENDBRANCH   6   8
BRANCH   5  20
HETATM   20  C3  UNL     1     121.428 103.654  13.659  1.00  0.00     0.180 C
HETATM   21  N3  UNL     1     121.014 102.403  14.074  1.00  0.00    -0.072 NA
BRANCH  20  22
HETATM   22  O1  UNL     1     121.001 104.608  14.434  1.00  0.00    -0.347 OA
ATOM     23  H1  UNL     1     120.501 104.364  15.204  1.00  0.00     0.219 HD
ENDBRANCH  20  22
ENDBRANCH   5  20
BRANCH   7  24
HETATM   24  C9  UNL     1     124.696 104.348   9.975  1.00  0.00     0.456 C
HETATM   25  N9  UNL     1     125.915 103.742  10.354  1.00  0.00     0.023 N
HETATM   26  C10 UNL     1     125.978 103.252   8.980  1.00  0.00     0.530 C
ATOM     27  H92 UNL     1     126.676 104.280  10.767  1.00  0.00     0.287 HD
ATOM     28  H91 UNL     1     125.977 103.111  11.152  1.00  0.00     0.287 HD
HETATM   29  O4  UNL     1     124.599 103.462   8.876  1.00  0.00    -0.287 OA
BRANCH  26  30
HETATM   30  N10 UNL     1     126.769 104.140   8.177  1.00  0.00    -0.027 N
ATOM     31 3H10 UNL     1     126.332 105.056   8.076  1.00  0.00     0.279 HD
ATOM     32 2H10 UNL     1     127.620 104.433   8.656  1.00  0.00     0.279 HD
ATOM     33 1H10 UNL     1     126.968 103.710   7.273  1.00  0.00     0.279 HD
ENDBRANCH  26  30
ENDBRANCH   7  24
TORSDOF 6
ENDMDL