MODEL 5
REMARK VINA RESULT: -9.312529258      3.357      7.523
REMARK  10 active torsions:
REMARK  status: ('A' for Active; 'I' for Inactive)
REMARK    1  A    between atoms: C3_4  and  C4_5
REMARK    2  A    between atoms: C4_5  and  O1_6
REMARK    3  A    between atoms: C4_5  and  N2_8
REMARK    4  A    between atoms: N2_8  and  N3_10
REMARK    5  A    between atoms: N3_10  and  N4_11
REMARK    6  A    between atoms: N5_14  and  C5_15
REMARK    7  A    between atoms: C7_19  and  C8_20
REMARK    8  A    between atoms: C8_20  and  O2_21
REMARK    9  A    between atoms: C8_20  and  C9_23
REMARK   10  A    between atoms: C9_23  and  O3_24
ROOT
HETATM    1  N1  UNL     1     125.885 102.618  10.000  1.00  0.00    -0.191 NA
HETATM    2  C1  UNL     1     124.932 102.558  10.675  1.00  0.00     0.107 C
HETATM    3  C2  UNL     1     123.800 102.462  11.525  1.00  0.00     0.144 A
HETATM    4  C3  UNL     1     122.736 103.376  11.425  1.00  0.00     0.140 A
HETATM    5  N5  UNL     1     121.729 103.217  12.279  1.00  0.00    -0.088 N
HETATM    6  C10 UNL     1     121.744 102.211  13.205  1.00  0.00     0.348 A
HETATM    7  O4  UNL     1     120.774 102.114  13.977  1.00  0.00    -0.245 OA
HETATM    8  N9  UNL     1     122.749 101.352  13.296  1.00  0.00    -0.273 N
ATOM      9  H9  UNL     1     122.722 100.616  14.001  1.00  0.00     0.173 HD
HETATM   10  C11 UNL     1     123.802 101.442  12.471  1.00  0.00     0.272 A
HETATM   11  O5  UNL     1     124.771 100.625  12.548  1.00  0.00    -0.266 OA
ENDROOT
BRANCH   4  12
HETATM   12  C4  UNL     1     122.769 104.383  10.391  1.00  0.00     0.183 C
BRANCH  12  13
HETATM   13  O1  UNL     1     122.058 104.031   9.337  1.00  0.00    -0.344 OA
ATOM     14  H1  UNL     1     121.895 103.095   9.316  1.00  0.00     0.219 HD
ENDBRANCH  12  13
BRANCH  12  15
HETATM   15  N2  UNL     1     123.411 105.611  10.338  1.00  0.00    -0.262 N
ATOM     16  H2  UNL     1     123.546 106.152  11.192  1.00  0.00     0.186 HD
BRANCH  15  17
HETATM   17  N3  UNL     1     123.882 106.116   9.094  1.00  0.00    -0.028 NA
BRANCH  17  18
HETATM   18  N4  UNL     1     124.688 105.212   8.434  1.00  0.00    -0.329 N
ATOM     19  H42 UNL     1     124.589 104.202   8.535  1.00  0.00     0.174 HD
ATOM     20  H41 UNL     1     125.381 105.672   7.844  1.00  0.00     0.174 HD
ENDBRANCH  17  18
ENDBRANCH  15  17
ENDBRANCH  12  15
ENDBRANCH   4  12
BRANCH   5  21
HETATM   21  C5  UNL     1     120.557 104.042  12.265  1.00  0.00     0.708 A
HETATM   22  N6  UNL     1     120.436 105.178  12.947  1.00  0.00    -0.198 N
HETATM   23  C6  UNL     1     119.301 105.894  12.837  1.00  0.00     0.135 A
ATOM     24  H6  UNL     1     121.195 105.502  13.547  1.00  0.00     0.183 HD
HETATM   25  C7  UNL     1     118.257 105.488  12.037  1.00  0.00     0.073 A
HETATM   26  N7  UNL     1     118.421 104.322  11.353  1.00  0.00    -0.287 N
HETATM   27  N8  UNL     1     119.538 103.631  11.471  1.00  0.00    -0.131 N
ATOM     28  H7  UNL     1     117.676 103.982  10.745  1.00  0.00     0.187 HD
ATOM     29  H8  UNL     1     119.638 102.760  10.949  1.00  0.00     0.205 HD
BRANCH  25  30
HETATM   30  C8  UNL     1     117.006 106.253  11.912  1.00  0.00     0.194 C
BRANCH  30  31
HETATM   31  O2  UNL     1     116.683 106.570  10.603  1.00  0.00    -0.387 OA
ATOM     32  H2  UNL     1     116.925 107.456  10.360  1.00  0.00     0.210 HD
ENDBRANCH  30  31
BRANCH  30  33
HETATM   33  C9  UNL     1     117.063 107.487  12.773  1.00  0.00     0.202 C
BRANCH  33  34
HETATM   34  O3  UNL     1     116.797 108.588  11.934  1.00  0.00    -0.398 OA
ATOM     35  H3  UNL     1     117.378 109.290  12.204  1.00  0.00     0.209 HD
ENDBRANCH  33  34
ENDBRANCH  30  33
ENDBRANCH  25  30
ENDBRANCH   5  21
TORSDOF 10
ENDMDL