MODEL 2
REMARK VINA RESULT: -9.219419606      1.849      2.968
REMARK  8 active torsions:
REMARK  status: ('A' for Active; 'I' for Inactive)
REMARK    1  A    between atoms: C2_2  and  N1_3
REMARK    2  A    between atoms: C2_2  and  C6_20
REMARK       I    between atoms: N1_3  and  C3_5
REMARK    3  A    between atoms: C3_5  and  C4_7
REMARK    4  A    between atoms: C4_7  and  N2_8
REMARK    5  A    between atoms: C4_7  and  C5_12
REMARK       I    between atoms: C5_12  and  N3_14
REMARK    6  A    between atoms: N3_14  and  N4_16
REMARK    7  A    between atoms: N4_16  and  N5_17
REMARK       I    between atoms: C6_20  and  N6_22
REMARK    8  A    between atoms: C9_27  and  O4_28
ROOT
HETATM    1  C1  UNL     1     122.256 107.008  11.120  1.00  0.00     0.042 C
HETATM    2  C2  UNL     1     121.275 105.853  11.281  1.00  0.00     0.173 C
ENDROOT
BRANCH   2   3
HETATM    3  N1  UNL     1     119.967 106.423  11.642  1.00  0.00    -0.346 N
HETATM    4  C3  UNL     1     118.761 105.711  11.358  1.00  0.00     0.258 C
HETATM    5  O1  UNL     1     118.846 104.602  10.802  1.00  0.00    -0.271 OA
ATOM      6  H1  UNL     1     119.920 107.334  12.098  1.00  0.00     0.163 HD
BRANCH   4   7
HETATM    7  C4  UNL     1     117.498 106.354  11.757  1.00  0.00     0.366 C
BRANCH   7   8
HETATM    8  N2  UNL     1     117.267 107.660  11.189  1.00  0.00    -0.058 N
ATOM      9  H23 UNL     1     118.011 108.301  11.468  1.00  0.00     0.275 HD
ATOM     10  H22 UNL     1     117.421 107.636  10.181  1.00  0.00     0.275 HD
ATOM     11  H21 UNL     1     116.356 108.070  11.396  1.00  0.00     0.275 HD
ENDBRANCH   7   8
BRANCH   7  12
HETATM   12  C5  UNL     1     117.396 106.439  13.237  1.00  0.00     0.274 C
HETATM   13  O2  UNL     1     118.355 106.918  13.881  1.00  0.00    -0.269 OA
HETATM   14  N3  UNL     1     116.243 105.984  13.884  1.00  0.00    -0.252 N
ATOM     15  H3  UNL     1     115.505 105.597  13.295  1.00  0.00     0.187 HD
BRANCH  14  16
HETATM   16  N4  UNL     1     116.004 106.009  15.263  1.00  0.00    -0.027 NA
BRANCH  16  17
HETATM   17  N5  UNL     1     116.359 107.205  15.864  1.00  0.00    -0.329 N
ATOM     18  H52 UNL     1     116.539 108.054  15.328  1.00  0.00     0.174 HD
ATOM     19  H51 UNL     1     116.419 107.148  16.881  1.00  0.00     0.174 HD
ENDBRANCH  16  17
ENDBRANCH  14  16
ENDBRANCH   7  12
ENDBRANCH   4   7
ENDBRANCH   2   3
BRANCH   2  20
HETATM   20  C6  UNL     1     121.799 105.017  12.412  1.00  0.00     0.253 C
HETATM   21  O3  UNL     1     121.237 105.236  13.547  1.00  0.00    -0.270 OA
HETATM   22  N6  UNL     1     122.815 104.068  12.283  1.00  0.00    -0.260 N
HETATM   23  C7  UNL     1     123.312 103.318  13.302  1.00  0.00     0.193 A
HETATM   24  C11 UNL     1     123.483 103.669  11.190  1.00  0.00     0.151 A
HETATM   25  N7  UNL     1     124.247 102.491  12.853  1.00  0.00    -0.345 N
HETATM   26  C8  UNL     1     124.396 102.664  11.546  1.00  0.00     0.130 A
ATOM     27  H7  UNL     1     124.769 101.825  13.424  1.00  0.00     0.167 HD
HETATM   28  C9  UNL     1     125.220 102.064  10.614  1.00  0.00     0.175 A
HETATM   29  N8  UNL     1     125.113 102.485   9.338  1.00  0.00    -0.287 N
HETATM   30  C10 UNL     1     124.242 103.444   8.983  1.00  0.00     0.327 A
ATOM     31  H8  UNL     1     125.709 102.064   8.625  1.00  0.00     0.172 HD
HETATM   32  O5  UNL     1     124.221 103.760   7.769  1.00  0.00    -0.247 OA
HETATM   33  N9  UNL     1     123.459 104.006   9.901  1.00  0.00    -0.292 N
ATOM     34  H9  UNL     1     122.807 104.732   9.603  1.00  0.00     0.172 HD
BRANCH  28  35
HETATM   35  O4  UNL     1     126.111 101.075  11.031  1.00  0.00    -0.344 OA
ATOM     36  H4  UNL     1     126.452 101.102  11.918  1.00  0.00     0.219 HD
ENDBRANCH  28  35
ENDBRANCH   2  20
TORSDOF 8
ENDMDL