MODEL 4
REMARK VINA RESULT: -7.628743609      1.490      1.621
REMARK  9 active torsions:
REMARK  status: ('A' for Active; 'I' for Inactive)
REMARK    1  A    between atoms: C2_3  and  O1_4
REMARK    2  A    between atoms: C3_6  and  C4_7
REMARK    3  A    between atoms: C4_7  and  O2_8
REMARK    4  A    between atoms: C4_7  and  O3_10
REMARK    5  A    between atoms: N2_12  and  C5_13
REMARK    6  A    between atoms: C7_16  and  C8_17
REMARK    7  A    between atoms: C9_22  and  C10_23
REMARK    8  A    between atoms: C10_23  and  O6_24
REMARK    9  A    between atoms: C10_23  and  O7_26
ROOT
HETATM    1  C5  UNL     1     122.293 103.669  10.393  1.00  0.00     0.191 C
HETATM    2  C6  UNL     1     122.788 105.080  10.173  1.00  0.00     0.080 C
HETATM    3  N3  UNL     1     124.122 105.512  10.011  1.00  0.00    -0.102 NA
HETATM    4  C7  UNL     1     121.690 105.897  10.115  1.00  0.00     0.128 C
HETATM    5  N4  UNL     1     120.581 105.015  10.219  1.00  0.00    -0.155 NA
HETATM    6  N5  UNL     1     119.707 104.005  10.508  1.00  0.00    -0.121 NA
HETATM    7  C9  UNL     1     120.995 104.025  11.143  1.00  0.00     0.194 A
ENDROOT
BRANCH   1   8
HETATM    8  N2  UNL     1     123.139 102.787  11.050  1.00  0.00    -0.281 N
HETATM    9  C3  UNL     1     124.393 102.483  10.623  1.00  0.00     0.123 A
HETATM   10  C2  UNL     1     124.906 101.580  11.532  1.00  0.00     0.174 A
HETATM   11  N1  UNL     1     124.023 101.329  12.481  1.00  0.00    -0.282 N
HETATM   12  C1  UNL     1     124.191 100.427  13.623  1.00  0.00     0.163 C
HETATM   13  C11 UNL     1     122.942 102.084  12.162  1.00  0.00     0.331 A
HETATM   14  O8  UNL     1     121.943 102.006  12.949  1.00  0.00    -0.246 OA
BRANCH   9  15
HETATM   15  C4  UNL     1     125.204 102.893   9.488  1.00  0.00     0.310 C
BRANCH  15  16
HETATM   16  O2  UNL     1     125.394 101.763   8.651  1.00  0.00    -0.366 OA
ATOM     17  H2  UNL     1     124.946 101.926   7.829  1.00  0.00     0.213 HD
ENDBRANCH  15  16
BRANCH  15  18
HETATM   18  O3  UNL     1     126.385 103.479   9.641  1.00  0.00    -0.366 OA
ATOM     19  H3  UNL     1     126.613 104.282   9.186  1.00  0.00     0.213 HD
ENDBRANCH  15  18
ENDBRANCH   9  15
BRANCH  10  20
HETATM   20  O1  UNL     1     126.184 100.969  11.514  1.00  0.00    -0.344 OA
ATOM     21  H1  UNL     1     126.557 100.601  10.722  1.00  0.00     0.219 HD
ENDBRANCH  10  20
ENDBRANCH   1   8
BRANCH   7  22
HETATM   22  C10 UNL     1     120.926 104.140  12.604  1.00  0.00     0.298 C
BRANCH  22  23
HETATM   23  O6  UNL     1     119.719 103.538  13.050  1.00  0.00    -0.368 OA
ATOM     24  H6  UNL     1     119.086 104.224  13.228  1.00  0.00     0.212 HD
ENDBRANCH  22  23
BRANCH  22  25
HETATM   25  O7  UNL     1     120.758 105.487  13.039  1.00  0.00    -0.368 OA
ATOM     26  H7  UNL     1     120.678 105.557  13.984  1.00  0.00     0.212 HD
ENDBRANCH  22  25
ENDBRANCH   7  22
BRANCH   4  27
HETATM   27  C8  UNL     1     121.768 107.314   9.921  1.00  0.00     0.224 C
HETATM   28  O4  UNL     1     121.550 107.822   8.808  1.00  0.00    -0.643 OA
HETATM   29  O5  UNL     1     122.089 108.135  10.977  1.00  0.00    -0.643 OA
ENDBRANCH   4  27
TORSDOF 9
ENDMDL