MODEL 4
REMARK VINA RESULT: -8.855065640      2.227      4.406
REMARK  9 active torsions:
REMARK  status: ('A' for Active; 'I' for Inactive)
REMARK    1  A    between atoms: N1_1  and  C1_4
REMARK    2  A    between atoms: C5_14  and  N5_15
REMARK       I    between atoms: N5_15  and  C6_17
REMARK    3  A    between atoms: C6_17  and  C7_19
REMARK    4  A    between atoms: C7_19  and  N6_20
REMARK    5  A    between atoms: N7_24  and  C8_25
REMARK    6  A    between atoms: C10_28  and  O3_29
REMARK    7  A    between atoms: C10_28  and  O4_31
REMARK    8  A    between atoms: C11_33  and  O5_34
REMARK    9  A    between atoms: C12_36  and  O6_37
ROOT
HETATM    1  C1  UNL     1     -36.928 -56.084  18.197  1.00  0.00     0.131 A
HETATM    2  N2  UNL     1     -35.833 -56.675  18.696  1.00  0.00    -0.337 N
ATOM      3  H2  UNL     1     -35.769 -56.886  19.692  1.00  0.00     0.168 HD
HETATM    4  C2  UNL     1     -34.811 -56.990  17.861  1.00  0.00     0.183 A
HETATM    5  N3  UNL     1     -34.857 -56.729  16.544  1.00  0.00    -0.336 N
ATOM      6  H3  UNL     1     -34.065 -56.985  15.955  1.00  0.00     0.168 HD
HETATM    7  C3  UNL     1     -35.912 -56.148  15.997  1.00  0.00     0.157 A
HETATM    8  C4  UNL     1     -36.958 -55.825  16.854  1.00  0.00     0.137 A
HETATM    9  N4  UNL     1     -37.893 -55.257  16.084  1.00  0.00    -0.184 N
ATOM     10  H4  UNL     1     -38.795 -54.902  16.402  1.00  0.00     0.184 HD
HETATM   11  C5  UNL     1     -37.438 -55.236  14.821  1.00  0.00     0.690 A
HETATM   12  N7  UNL     1     -36.214 -55.782  14.742  1.00  0.00    -0.151 N
ENDROOT
BRANCH  12  13
HETATM   13  C8  UNL     1     -35.437 -55.921  13.562  1.00  0.00     0.216 C
HETATM   14  C9  UNL     1     -35.658 -57.151  12.794  1.00  0.00     0.217 C
HETATM   15  O2  UNL     1     -36.141 -58.172  13.207  1.00  0.00    -0.289 OA
HETATM   16  C10 UNL     1     -35.168 -56.883  11.425  1.00  0.00     0.254 C
HETATM   17  C11 UNL     1     -34.768 -55.404  11.414  1.00  0.00     0.219 C
HETATM   18  C12 UNL     1     -35.680 -54.856  12.523  1.00  0.00     0.184 C
BRANCH  16  19
HETATM   19  O3  UNL     1     -34.015 -57.625  11.179  1.00  0.00    -0.357 OA
ATOM     20  H3  UNL     1     -33.283 -57.252  11.656  1.00  0.00     0.213 HD
ENDBRANCH  16  19
BRANCH  16  21
HETATM   21  O4  UNL     1     -36.100 -57.070  10.443  1.00  0.00    -0.357 OA
ATOM     22  H4  UNL     1     -35.737 -57.267   9.587  1.00  0.00     0.213 HD
ENDBRANCH  16  21
BRANCH  17  23
HETATM   23  O5  UNL     1     -35.071 -54.782  10.235  1.00  0.00    -0.387 OA
ATOM     24  H5  UNL     1     -35.801 -54.180  10.313  1.00  0.00     0.210 HD
ENDBRANCH  17  23
BRANCH  18  25
HETATM   25  O6  UNL     1     -35.281 -53.601  12.928  1.00  0.00    -0.390 OA
ATOM     26  H6  UNL     1     -35.378 -52.941  12.252  1.00  0.00     0.210 HD
ENDBRANCH  18  25
ENDBRANCH  12  13
BRANCH  11  27
HETATM   27  N5  UNL     1     -38.186 -54.696  13.729  1.00  0.00    -0.158 N
HETATM   28  C6  UNL     1     -39.459 -55.182  13.411  1.00  0.00     0.261 C
HETATM   29  O1  UNL     1     -39.972 -56.117  14.094  1.00  0.00    -0.271 OA
ATOM     30  H5  UNL     1     -37.784 -53.943  13.171  1.00  0.00     0.187 HD
BRANCH  28  31
HETATM   31  C7  UNL     1     -40.200 -54.595  12.270  1.00  0.00     0.332 C
BRANCH  31  32
HETATM   32  N6  UNL     1     -40.250 -55.540  11.188  1.00  0.00    -0.071 N
ATOM     33  H63 UNL     1     -39.777 -56.414  11.419  1.00  0.00     0.274 HD
ATOM     34  H62 UNL     1     -41.189 -55.914  11.047  1.00  0.00     0.274 HD
ATOM     35  H61 UNL     1     -39.875 -55.112  10.342  1.00  0.00     0.274 HD
ENDBRANCH  31  32
ENDBRANCH  28  31
ENDBRANCH  11  27
BRANCH   1  36
HETATM   36  N1  UNL     1     -37.903 -55.777  18.965  1.00  0.00    -0.383 N
ATOM     37  H12 UNL     1     -37.753 -55.438  19.915  1.00  0.00     0.157 HD
ATOM     38  H11 UNL     1     -38.864 -55.869  18.637  1.00  0.00     0.157 HD
ENDBRANCH   1  36
TORSDOF 9
ENDMDL