MODEL 3
REMARK VINA RESULT: -8.104511748      2.308      3.999
REMARK  10 active torsions:
REMARK  status: ('A' for Active; 'I' for Inactive)
REMARK    1  A    between atoms: N1_1  and  C1_4
REMARK    2  A    between atoms: N3_9  and  C3_10
REMARK    3  A    between atoms: C5_13  and  O3_14
REMARK    4  A    between atoms: C5_13  and  C6_16
REMARK    5  A    between atoms: C6_16  and  O4_17
REMARK    6  A    between atoms: C6_16  and  C7_19
REMARK    7  A    between atoms: C8_22  and  O6_23
REMARK    8  A    between atoms: C9_27  and  C10_28
REMARK    9  A    between atoms: C10_28  and  O7_29
REMARK   10  A    between atoms: C10_28  and  O8_31
ROOT
HETATM    1  C1  UNL     1     -33.971 -57.502  16.595  1.00  0.00     0.132 A
HETATM    2  N2  UNL     1     -33.219 -57.391  15.484  1.00  0.00    -0.292 N
ATOM      3  H2  UNL     1     -32.242 -57.684  15.470  1.00  0.00     0.172 HD
HETATM    4  C2  UNL     1     -33.815 -56.877  14.393  1.00  0.00     0.343 A
HETATM    5  O1  UNL     1     -33.076 -56.784  13.357  1.00  0.00    -0.245 OA
HETATM    6  N3  UNL     1     -35.094 -56.481  14.367  1.00  0.00    -0.233 N
HETATM    7  N5  UNL     1     -35.797 -56.606  15.472  1.00  0.00    -0.290 N
ATOM      8  H5  UNL     1     -36.773 -56.308  15.463  1.00  0.00     0.187 HD
HETATM    9  C9  UNL     1     -35.293 -57.107  16.614  1.00  0.00     0.124 A
ENDROOT
BRANCH   6  10
HETATM   10  C3  UNL     1     -35.605 -55.949  13.128  1.00  0.00     0.171 C
HETATM   11  C4  UNL     1     -36.929 -55.271  13.424  1.00  0.00     0.202 C
HETATM   12  O2  UNL     1     -37.485 -55.186  12.151  1.00  0.00    -0.348 OA
HETATM   13  C5  UNL     1     -37.206 -56.354  11.493  1.00  0.00     0.225 C
HETATM   14  C8  UNL     1     -36.070 -57.044  12.188  1.00  0.00     0.210 C
BRANCH  13  15
HETATM   15  O3  UNL     1     -36.834 -56.045  10.181  1.00  0.00    -0.361 OA
ATOM     16  H3  UNL     1     -37.434 -56.481   9.588  1.00  0.00     0.213 HD
ENDBRANCH  13  15
BRANCH  13  17
HETATM   17  C6  UNL     1     -38.471 -57.203  11.487  1.00  0.00     0.272 C
BRANCH  17  18
HETATM   18  O4  UNL     1     -38.435 -58.153  10.498  1.00  0.00    -0.381 OA
ATOM     19  H4  UNL     1     -39.064 -58.847  10.659  1.00  0.00     0.210 HD
ENDBRANCH  17  18
BRANCH  17  20
HETATM   20  C7  UNL     1     -39.628 -56.294  11.395  1.00  0.00     0.265 C
HETATM   21  N4  UNL     1     -40.521 -56.156  12.484  1.00  0.00    -0.060 NA
HETATM   22  O5  UNL     1     -39.811 -55.646  10.347  1.00  0.00    -0.274 OA
ENDBRANCH  17  20
ENDBRANCH  13  17
BRANCH  14  23
HETATM   23  O6  UNL     1     -35.027 -57.302  11.310  1.00  0.00    -0.388 OA
ATOM     24  H6  UNL     1     -34.990 -58.243  11.186  1.00  0.00     0.210 HD
ENDBRANCH  14  23
ENDBRANCH   6  10
BRANCH   9  25
HETATM   25  C10 UNL     1     -36.146 -57.224  17.844  1.00  0.00     0.310 C
BRANCH  25  26
HETATM   26  O7  UNL     1     -35.627 -56.405  18.864  1.00  0.00    -0.366 OA
ATOM     27  H7  UNL     1     -36.138 -55.607  18.927  1.00  0.00     0.213 HD
ENDBRANCH  25  26
BRANCH  25  28
HETATM   28  O8  UNL     1     -36.234 -58.519  18.288  1.00  0.00    -0.366 OA
ATOM     29  H8  UNL     1     -35.409 -58.981  18.205  1.00  0.00     0.213 HD
ENDBRANCH  25  28
ENDBRANCH   9  25
BRANCH   1  30
HETATM   30  N1  UNL     1     -33.487 -57.986  17.700  1.00  0.00    -0.384 N
ATOM     31  H12 UNL     1     -32.726 -58.660  17.613  1.00  0.00     0.157 HD
ATOM     32  H11 UNL     1     -33.850 -57.706  18.611  1.00  0.00     0.157 HD
ENDBRANCH   1  30
TORSDOF 10
ENDMDL