MODEL 3
REMARK VINA RESULT: -8.954848504      2.935      4.027
REMARK  8 active torsions:
REMARK  status: ('A' for Active; 'I' for Inactive)
REMARK    1  A    between atoms: N1_1  and  C1_4
REMARK    2  A    between atoms: C2_7  and  C3_8
REMARK    3  A    between atoms: C5_16  and  C6_17
REMARK    4  A    between atoms: C6_17  and  O3_18
REMARK    5  A    between atoms: C6_17  and  C7_20
REMARK    6  A    between atoms: C7_20  and  O4_21
REMARK    7  A    between atoms: C7_20  and  C8_23
REMARK    8  A    between atoms: C9_27  and  O5_28
ROOT
HETATM    1  C1  UNL     1     -34.582 -57.375  17.636  1.00  0.00     0.146 C
HETATM    2  N2  UNL     1     -35.678 -57.275  18.449  1.00  0.00    -0.322 N
ATOM      3  H2  UNL     1     -35.548 -57.569  19.416  1.00  0.00     0.169 HD
HETATM    4  C2  UNL     1     -36.907 -56.835  18.125  1.00  0.00     0.177 C
HETATM    5  N4  UNL     1     -37.214 -56.127  17.018  1.00  0.00    -0.290 N
ATOM      6  H4  UNL     1     -38.160 -55.745  17.004  1.00  0.00     0.172 HD
HETATM    7  C4  UNL     1     -36.474 -55.842  15.928  1.00  0.00     0.334 C
HETATM    8  O2  UNL     1     -36.891 -54.931  15.223  1.00  0.00    -0.246 OA
HETATM    9  N5  UNL     1     -35.333 -56.416  15.497  1.00  0.00    -0.242 N
HETATM   10  C5  UNL     1     -34.884 -56.380  14.223  1.00  0.00     0.093 A
HETATM   11  C10 UNL     1     -33.677 -57.118  14.301  1.00  0.00     0.122 A
HETATM   12  N7  UNL     1     -33.450 -57.546  15.529  1.00  0.00    -0.346 N
ATOM     13  H7  UNL     1     -32.650 -58.098  15.842  1.00  0.00     0.167 HD
HETATM   14  C11 UNL     1     -34.469 -57.119  16.287  1.00  0.00     0.161 A
ENDROOT
BRANCH  10  15
HETATM   15  C6  UNL     1     -35.500 -55.788  13.066  1.00  0.00     0.105 C
BRANCH  15  16
HETATM   16  O3  UNL     1     -35.038 -54.496  12.722  1.00  0.00    -0.360 OA
ATOM     17  H3  UNL     1     -34.550 -54.042  13.399  1.00  0.00     0.217 HD
ENDBRANCH  15  16
BRANCH  15  18
HETATM   18  C7  UNL     1     -35.971 -56.563  11.913  1.00  0.00     0.233 C
BRANCH  18  19
HETATM   19  O4  UNL     1     -36.429 -57.868  12.348  1.00  0.00    -0.384 OA
ATOM     20  H4  UNL     1     -35.703 -58.480  12.357  1.00  0.00     0.210 HD
ENDBRANCH  18  19
BRANCH  18  21
HETATM   21  C8  UNL     1     -35.063 -56.886  10.789  1.00  0.00     0.365 C
HETATM   22  N6  UNL     1     -35.491 -56.303   9.527  1.00  0.00     0.004 N
HETATM   23  C9  UNL     1     -34.056 -56.417   9.231  1.00  0.00     0.472 C
ATOM     24  H62 UNL     1     -36.223 -56.700   8.938  1.00  0.00     0.286 HD
ATOM     25  H61 UNL     1     -36.016 -55.432   9.454  1.00  0.00     0.286 HD
HETATM   26  O6  UNL     1     -33.865 -56.209  10.636  1.00  0.00    -0.302 OA
BRANCH  23  27
HETATM   27  O5  UNL     1     -33.668 -57.657   8.797  1.00  0.00    -0.349 OA
ATOM     28  H5  UNL     1     -32.735 -57.741   8.642  1.00  0.00     0.214 HD
ENDBRANCH  23  27
ENDBRANCH  18  21
ENDBRANCH  15  18
ENDBRANCH  10  15
BRANCH   1  29
HETATM   29  N1  UNL     1     -33.479 -57.767  18.196  1.00  0.00    -0.382 N
ATOM     30  H12 UNL     1     -33.475 -57.683  19.213  1.00  0.00     0.157 HD
ATOM     31  H11 UNL     1     -32.749 -58.111  17.573  1.00  0.00     0.157 HD
ENDBRANCH   1  29
BRANCH   4  32
HETATM   32  C3  UNL     1     -37.993 -57.156  19.055  1.00  0.00     0.299 C
HETATM   33  N3  UNL     1     -37.716 -57.837  20.261  1.00  0.00    -0.054 NA
HETATM   34  O1  UNL     1     -39.185 -56.843  18.814  1.00  0.00    -0.268 OA
ENDBRANCH   4  32
TORSDOF 8
ENDMDL