MODEL 2
REMARK VINA RESULT: -9.696450854      3.026      5.833
REMARK  6 active torsions:
REMARK  status: ('A' for Active; 'I' for Inactive)
REMARK    1  A    between atoms: C3_4  and  O2_5
REMARK    2  A    between atoms: O2_5  and  S1_6
REMARK    3  A    between atoms: C5_11  and  O6_12
REMARK    4  A    between atoms: O6_12  and  C6_13
REMARK    5  A    between atoms: C7_17  and  O7_18
REMARK    6  A    between atoms: C8_20  and  O8_21
ROOT
HETATM    1  O1  UNL     1     -34.150 -55.534   9.847  1.00  0.00    -0.268 OA
HETATM    2  C1  UNL     1     -34.559 -56.109  10.893  1.00  0.00     0.250 C
HETATM    3  C2  UNL     1     -35.903 -56.470  10.824  1.00  0.00     0.112 C
HETATM    4  C3  UNL     1     -36.669 -57.106  11.790  1.00  0.00     0.100 C
HETATM    5  C4  UNL     1     -36.226 -57.422  13.075  1.00  0.00     0.081 C
HETATM    6  C5  UNL     1     -34.926 -57.581  13.515  1.00  0.00     0.141 C
HETATM    7  C9  UNL     1     -33.799 -56.891  13.080  1.00  0.00     0.281 C
HETATM    8  O9  UNL     1     -32.810 -56.832  13.877  1.00  0.00    -0.265 OA
HETATM    9  N4  UNL     1     -33.673 -56.284  11.889  1.00  0.00    -0.288 N
ATOM     10  H4  UNL     1     -32.750 -55.888  11.710  1.00  0.00     0.172 HD
ENDROOT
BRANCH   6  11
HETATM   11  O6  UNL     1     -34.662 -58.507  14.486  1.00  0.00    -0.320 OA
BRANCH  11  12
HETATM   12  C6  UNL     1     -35.338 -58.688  15.702  1.00  0.00     0.271 C
HETATM   13  N1  UNL     1     -35.037 -60.035  16.151  1.00  0.00    -0.094 NA
HETATM   14  N2  UNL     1     -35.353 -60.216  17.499  1.00  0.00    -0.035 NA
HETATM   15  N3  UNL     1     -34.498 -59.407  18.255  1.00  0.00    -0.095 NA
HETATM   16  C7  UNL     1     -34.995 -58.038  18.104  1.00  0.00     0.261 C
HETATM   17  C8  UNL     1     -34.785 -57.649  16.663  1.00  0.00     0.210 C
BRANCH  16  18
HETATM   18  O7  UNL     1     -36.320 -57.936  18.491  1.00  0.00    -0.376 OA
ATOM     19  H7  UNL     1     -36.513 -58.512  19.222  1.00  0.00     0.211 HD
ENDBRANCH  16  18
BRANCH  17  20
HETATM   20  O8  UNL     1     -35.341 -56.416  16.417  1.00  0.00    -0.388 OA
ATOM     21  H8  UNL     1     -35.705 -56.048  17.213  1.00  0.00     0.210 HD
ENDBRANCH  17  20
ENDBRANCH  11  12
ENDBRANCH   6  11
BRANCH   4  22
HETATM   22  O2  UNL     1     -37.962 -57.465  11.500  1.00  0.00    -0.214 OA
BRANCH  22  23
HETATM   23  S1  UNL     1     -39.258 -56.403  11.761  1.00  0.00     0.256 S
HETATM   24  O3  UNL     1     -39.637 -56.481  13.200  1.00  0.00    -0.572 OA
HETATM   25  O4  UNL     1     -40.440 -56.727  10.890  1.00  0.00    -0.572 OA
HETATM   26  O5  UNL     1     -38.750 -54.854  11.378  1.00  0.00    -0.572 OA
ENDBRANCH  22  23
ENDBRANCH   4  22
TORSDOF 6
ENDMDL