MODEL 3
REMARK VINA RESULT: -9.416020734      2.549      6.378
REMARK  6 active torsions:
REMARK  status: ('A' for Active; 'I' for Inactive)
REMARK       I    between atoms: N1_1  and  C1_5
REMARK       I    between atoms: C1_5  and  N2_6
REMARK       I    between atoms: C1_5  and  N3_10
REMARK       I    between atoms: N3_10  and  C2_12
REMARK    1  A    between atoms: C2_12  and  C3_14
REMARK    2  A    between atoms: C4_18  and  O2_19
REMARK    3  A    between atoms: C5_21  and  O3_22
REMARK    4  A    between atoms: C6_24  and  N5_25
REMARK    5  A    between atoms: C7_26  and  N6_27
REMARK    6  A    between atoms: N6_27  and  O4_29
ROOT
HETATM    1  C3  UNL     1     -36.790 -55.225  14.065  1.00  0.00     0.419 C
HETATM    2  N4  UNL     1     -37.758 -56.265  13.799  1.00  0.00    -0.011 N
ATOM      3  H41 UNL     1     -37.289 -57.157  13.644  1.00  0.00     0.284 HD
ATOM      4  H42 UNL     1     -38.182 -56.131  12.881  1.00  0.00     0.284 HD
HETATM    5  C4  UNL     1     -38.765 -56.398  14.799  1.00  0.00     0.355 C
HETATM    6  C5  UNL     1     -38.133 -56.048  16.161  1.00  0.00     0.223 C
HETATM    7  C6  UNL     1     -36.708 -56.413  16.039  1.00  0.00     0.270 C
HETATM    8  O7  UNL     1     -36.030 -55.497  15.202  1.00  0.00    -0.323 OA
ENDROOT
BRANCH   1   9
HETATM    9  C2  UNL     1     -35.819 -55.257  12.911  1.00  0.00     0.277 C
HETATM   10  N3  UNL     1     -34.466 -55.620  13.204  1.00  0.00    -0.308 N
HETATM   11  C1  UNL     1     -33.492 -55.668  12.137  1.00  0.00     0.482 C
ATOM     12  H3  UNL     1     -34.191 -55.843  14.161  1.00  0.00     0.166 HD
HETATM   13  N1  UNL     1     -32.360 -54.828  12.364  1.00  0.00    -0.033 N
HETATM   14  N2  UNL     1     -33.026 -57.044  11.995  1.00  0.00    -0.033 N
ATOM     15  H13 UNL     1     -31.798 -55.136  13.158  1.00  0.00     0.278 HD
ATOM     16  H12 UNL     1     -31.648 -54.928  11.641  1.00  0.00     0.278 HD
ATOM     17  H11 UNL     1     -32.685 -53.867  12.464  1.00  0.00     0.278 HD
ATOM     18  H23 UNL     1     -32.314 -57.143  11.272  1.00  0.00     0.278 HD
ATOM     19  H22 UNL     1     -32.464 -57.351  12.789  1.00  0.00     0.278 HD
ATOM     20  H21 UNL     1     -33.835 -57.644  11.833  1.00  0.00     0.278 HD
HETATM   21  O1  UNL     1     -36.151 -54.984  11.738  1.00  0.00    -0.269 OA
ENDBRANCH   1   9
BRANCH   5  22
HETATM   22  O2  UNL     1     -39.858 -55.578  14.639  1.00  0.00    -0.368 OA
ATOM     23  H2  UNL     1     -40.687 -56.028  14.528  1.00  0.00     0.212 HD
ENDBRANCH   5  22
BRANCH   7  24
HETATM   24  N5  UNL     1     -35.949 -56.666  17.201  1.00  0.00    -0.253 N
HETATM   25  C7  UNL     1     -34.783 -57.339  17.028  1.00  0.00     0.138 A
HETATM   26  C8  UNL     1     -33.958 -57.643  18.092  1.00  0.00     0.125 A
HETATM   27  C9  UNL     1     -34.314 -57.258  19.375  1.00  0.00     0.252 A
HETATM   28  O5  UNL     1     -33.573 -57.526  20.376  1.00  0.00    -0.268 OA
HETATM   29  N7  UNL     1     -35.471 -56.595  19.512  1.00  0.00    -0.275 N
HETATM   30  C10 UNL     1     -36.271 -56.305  18.445  1.00  0.00     0.333 A
ATOM     31  H7  UNL     1     -35.763 -56.298  20.443  1.00  0.00     0.173 HD
HETATM   32  O6  UNL     1     -37.332 -55.675  18.723  1.00  0.00    -0.246 OA
BRANCH  25  33
HETATM   33  N6  UNL     1     -34.337 -57.774  15.747  1.00  0.00    -0.253 N
ATOM     34  H6  UNL     1     -34.850 -58.522  15.282  1.00  0.00     0.196 HD
BRANCH  33  35
HETATM   35  O4  UNL     1     -33.353 -57.284  15.171  1.00  0.00    -0.288 OA
ATOM     36  H4  UNL     1     -33.163 -56.353  15.170  1.00  0.00     0.244 HD
ENDBRANCH  33  35
ENDBRANCH  25  33
ENDBRANCH   7  24
BRANCH   6  37
HETATM   37  O3  UNL     1     -38.357 -54.676  16.297  1.00  0.00    -0.387 OA
ATOM     38  H3  UNL     1     -39.011 -54.482  15.636  1.00  0.00     0.210 HD
ENDBRANCH   6  37
TORSDOF 6
ENDMDL