MODEL 2
REMARK VINA RESULT: -8.153264325      2.101      3.625
REMARK  9 active torsions:
REMARK  status: ('A' for Active; 'I' for Inactive)
REMARK    1  A    between atoms: N1_1  and  N2_4
REMARK       I    between atoms: N2_4  and  C1_6
REMARK    2  A    between atoms: C1_6  and  C2_8
REMARK    3  A    between atoms: N3_10  and  C4_11
REMARK    4  A    between atoms: C5_13  and  C6_14
REMARK    5  A    between atoms: C6_14  and  O3_15
REMARK    6  A    between atoms: C8_18  and  N4_19
REMARK    7  A    between atoms: C9_23  and  O4_24
REMARK    8  A    between atoms: C9_23  and  C10_26
REMARK    9  A    between atoms: N5_31  and  N6_32
ROOT
HETATM    1  C4  UNL     1     -35.659 -57.118  13.158  1.00  0.00     0.280 C
HETATM    2  O2  UNL     1     -36.987 -57.281  12.765  1.00  0.00    -0.355 OA
HETATM    3  C5  UNL     1     -36.963 -57.469  11.383  1.00  0.00     0.150 C
HETATM    4  C7  UNL     1     -36.765 -56.106  10.776  1.00  0.00     0.071 C
HETATM    5  C8  UNL     1     -35.427 -55.593  11.174  1.00  0.00     0.235 C
HETATM    6  C9  UNL     1     -35.024 -55.886  12.576  1.00  0.00     0.218 C
ENDROOT
BRANCH   1   7
HETATM    7  N3  UNL     1     -35.647 -57.102  14.604  1.00  0.00    -0.275 N
HETATM    8  C3  UNL     1     -34.854 -57.863  15.381  1.00  0.00     0.136 A
HETATM    9  C2  UNL     1     -35.130 -57.565  16.718  1.00  0.00     0.145 A
HETATM   10  N5  UNL     1     -36.090 -56.625  16.673  1.00  0.00    -0.205 N
HETATM   11  C11 UNL     1     -36.407 -56.340  15.390  1.00  0.00     0.350 A
HETATM   12  O7  UNL     1     -37.287 -55.482  15.058  1.00  0.00    -0.244 OA
BRANCH   9  13
HETATM   13  C1  UNL     1     -34.501 -58.161  17.878  1.00  0.00     0.289 C
HETATM   14  N2  UNL     1     -33.188 -57.795  18.250  1.00  0.00    -0.271 N
ATOM     15  H2  UNL     1     -32.699 -57.104  17.680  1.00  0.00     0.189 HD
HETATM   16  O1  UNL     1     -35.127 -59.002  18.552  1.00  0.00    -0.264 OA
BRANCH  14  17
HETATM   17  N1  UNL     1     -32.526 -58.327  19.352  1.00  0.00    -0.342 N
ATOM     18  H12 UNL     1     -31.819 -57.742  19.799  1.00  0.00     0.176 HD
ATOM     19  H11 UNL     1     -32.712 -59.258  19.724  1.00  0.00     0.176 HD
ENDBRANCH  14  17
ENDBRANCH   9  13
BRANCH  10  20
HETATM   20  N6  UNL     1     -36.648 -56.054  17.806  1.00  0.00    -0.334 N
ATOM     21  H62 UNL     1     -37.543 -56.296  18.230  1.00  0.00     0.177 HD
ATOM     22  H61 UNL     1     -36.195 -55.311  18.338  1.00  0.00     0.177 HD
ENDBRANCH  10  20
ENDBRANCH   1   7
BRANCH   6  23
HETATM   23  O4  UNL     1     -35.281 -54.750  13.347  1.00  0.00    -0.373 OA
ATOM     24  H4  UNL     1     -36.076 -54.307  13.076  1.00  0.00     0.211 HD
ENDBRANCH   6  23
BRANCH   6  25
HETATM   25  C10 UNL     1     -33.550 -56.097  12.599  1.00  0.00     0.216 C
HETATM   26  O5  UNL     1     -32.775 -55.106  12.753  1.00  0.00    -0.646 OA
HETATM   27  O6  UNL     1     -32.970 -57.332  12.461  1.00  0.00    -0.646 OA
ENDBRANCH   6  25
BRANCH   3  28
HETATM   28  C6  UNL     1     -38.201 -58.162  10.878  1.00  0.00     0.196 C
BRANCH  28  29
HETATM   29  O3  UNL     1     -39.208 -57.178  10.817  1.00  0.00    -0.398 OA
ATOM     30  H3  UNL     1     -40.035 -57.638  10.904  1.00  0.00     0.209 HD
ENDBRANCH  28  29
ENDBRANCH   3  28
BRANCH   5  31
HETATM   31  N4  UNL     1     -35.396 -54.148  10.912  1.00  0.00    -0.071 N
ATOM     32  H43 UNL     1     -34.448 -53.779  10.855  1.00  0.00     0.274 HD
ATOM     33  H42 UNL     1     -35.693 -53.913   9.965  1.00  0.00     0.274 HD
ATOM     34  H41 UNL     1     -35.957 -53.684  11.627  1.00  0.00     0.274 HD
ENDBRANCH   5  31
TORSDOF 9
ENDMDL