MODEL 5
REMARK VINA RESULT: -8.513566775      1.119      1.436
REMARK  8 active torsions:
REMARK  status: ('A' for Active; 'I' for Inactive)
REMARK    1  A    between atoms: C2_2  and  N1_3
REMARK    2  A    between atoms: C3_10  and  O1_11
REMARK    3  A    between atoms: O1_11  and  N3_12
REMARK    4  A    between atoms: N3_12  and  N4_13
REMARK    5  A    between atoms: N4_13  and  N5_15
REMARK    6  A    between atoms: C5_20  and  N7_21
REMARK    7  A    between atoms: C9_33  and  N11_34
REMARK    8  A    between atoms: C10_38  and  O3_39
ROOT
HETATM    1  N5  UNL     1     -34.055 -56.988  12.189  1.00  0.00    -0.260 N
ATOM      2  H5  UNL     1     -33.764 -57.657  11.475  1.00  0.00     0.191 HD
HETATM    3  C4  UNL     1     -35.215 -56.445  12.053  1.00  0.00     0.130 C
HETATM    4  N6  UNL     1     -36.108 -56.711  10.988  1.00  0.00    -0.333 N
ATOM      5  H6  UNL     1     -35.796 -57.325  10.236  1.00  0.00     0.164 HD
HETATM    6  C5  UNL     1     -37.452 -56.153  10.913  1.00  0.00     0.393 C
HETATM    7  N8  UNL     1     -37.857 -55.603  12.197  1.00  0.00    -0.295 N
HETATM    8  C6  UNL     1     -38.971 -54.792  12.517  1.00  0.00     0.196 C
HETATM    9  N9  UNL     1     -40.070 -54.407  11.681  1.00  0.00    -0.063 NA
HETATM   10  N10 UNL     1     -38.887 -54.403  13.742  1.00  0.00    -0.299 N
ATOM     11  H10 UNL     1     -39.573 -53.807  14.206  1.00  0.00     0.171 HD
HETATM   12  C7  UNL     1     -37.713 -54.912  14.361  1.00  0.00     0.249 C
HETATM   13  O2  UNL     1     -37.248 -54.647  15.503  1.00  0.00    -0.271 OA
HETATM   14  C8  UNL     1     -37.104 -55.840  13.411  1.00  0.00     0.221 C
HETATM   15  C9  UNL     1     -35.652 -55.471  13.082  1.00  0.00     0.283 C
ENDROOT
BRANCH   1  16
HETATM   16  N4  UNL     1     -33.179 -56.739  13.214  1.00  0.00    -0.147 N
ATOM     17  H4  UNL     1     -32.345 -56.212  12.956  1.00  0.00     0.226 HD
BRANCH  16  18
HETATM   18  N3  UNL     1     -33.248 -57.033  14.310  1.00  0.00    -0.169 NA
BRANCH  18  19
HETATM   19  O1  UNL     1     -33.326 -57.356  15.506  1.00  0.00    -0.152 OA
BRANCH  19  20
HETATM   20  C3  UNL     1     -34.502 -57.672  16.227  1.00  0.00     0.403 C
HETATM   21  N2  UNL     1     -35.145 -56.498  16.785  1.00  0.00    -0.006 N
HETATM   22  C2  UNL     1     -35.417 -57.248  17.972  1.00  0.00     0.313 C
ATOM     23  H22 UNL     1     -35.901 -56.032  16.282  1.00  0.00     0.283 HD
ATOM     24  H21 UNL     1     -34.646 -55.610  16.836  1.00  0.00     0.283 HD
HETATM   25  C1  UNL     1     -36.739 -57.965  17.892  1.00  0.00     0.082 C
HETATM   26  C10 UNL     1     -34.250 -58.152  17.637  1.00  0.00     0.242 C
BRANCH  22  27
HETATM   27  N1  UNL     1     -35.231 -56.464  19.184  1.00  0.00    -0.042 N
ATOM     28  H13 UNL     1     -35.012 -55.495  18.951  1.00  0.00     0.277 HD
ATOM     29  H12 UNL     1     -36.123 -56.332  19.662  1.00  0.00     0.277 HD
ATOM     30  H11 UNL     1     -34.536 -56.842  19.827  1.00  0.00     0.277 HD
ENDBRANCH  22  27
BRANCH  26  31
HETATM   31  O3  UNL     1     -33.031 -57.745  18.139  1.00  0.00    -0.387 OA
ATOM     32  H3  UNL     1     -32.400 -57.466  17.487  1.00  0.00     0.210 HD
ENDBRANCH  26  31
ENDBRANCH  19  20
ENDBRANCH  18  19
ENDBRANCH  16  18
ENDBRANCH   1  16
BRANCH  15  33
HETATM   33  N11 UNL     1     -35.601 -54.113  12.555  1.00  0.00    -0.066 N
ATOM     34 3H11 UNL     1     -36.269 -53.976  11.796  1.00  0.00     0.275 HD
ATOM     35 2H11 UNL     1     -35.981 -53.436  13.215  1.00  0.00     0.275 HD
ATOM     36 1H11 UNL     1     -34.651 -53.875  12.272  1.00  0.00     0.275 HD
ENDBRANCH  15  33
BRANCH   6  37
HETATM   37  N7  UNL     1     -38.340 -57.257  10.597  1.00  0.00    -0.040 N
ATOM     38  H73 UNL     1     -38.520 -57.357   9.598  1.00  0.00     0.279 HD
ATOM     39  H72 UNL     1     -37.913 -58.173  10.741  1.00  0.00     0.279 HD
ATOM     40  H71 UNL     1     -39.186 -57.115  11.148  1.00  0.00     0.279 HD
ENDBRANCH   6  37
TORSDOF 8
ENDMDL