MODEL 3
REMARK VINA RESULT: -8.445301781      2.036      3.927
REMARK  10 active torsions:
REMARK  status: ('A' for Active; 'I' for Inactive)
REMARK    1  A    between atoms: O1_2  and  N1_3
REMARK    2  A    between atoms: N1_3  and  C2_5
REMARK    3  A    between atoms: C3_8  and  N3_9
REMARK    4  A    between atoms: N5_15  and  C5_17
REMARK    5  A    between atoms: C6_19  and  O3_20
REMARK    6  A    between atoms: C6_19  and  C7_22
REMARK    7  A    between atoms: C7_22  and  O4_23
REMARK    8  A    between atoms: C8_26  and  C9_27
REMARK    9  A    between atoms: C9_27  and  N6_28
REMARK   10  A    between atoms: N7_33  and  O6_35
ROOT
HETATM    1  C5  UNL     1     -36.275 -56.033  13.220  1.00  0.00     0.295 C
HETATM    2  O2  UNL     1     -35.638 -54.793  13.276  1.00  0.00    -0.300 OA
HETATM    3  C6  UNL     1     -36.407 -53.711  12.993  1.00  0.00     0.305 C
HETATM    4  O5  UNL     1     -37.159 -53.725  11.861  1.00  0.00    -0.318 OA
HETATM    5  C8  UNL     1     -37.932 -54.860  11.656  1.00  0.00     0.205 C
HETATM    6  C10 UNL     1     -37.227 -56.093  12.077  1.00  0.00     0.089 C
HETATM    7  N7  UNL     1     -37.402 -57.214  11.493  1.00  0.00    -0.270 N
ATOM      8  H7  UNL     1     -36.866 -57.999  11.862  1.00  0.00     0.193 HD
ENDROOT
BRANCH   1   9
HETATM    9  N5  UNL     1     -36.866 -56.314  14.473  1.00  0.00    -0.193 N
HETATM   10  C4  UNL     1     -36.353 -56.706  15.566  1.00  0.00     0.709 A
HETATM   11  N4  UNL     1     -35.036 -56.920  15.653  1.00  0.00    -0.022 N
HETATM   12  N8  UNL     1     -37.164 -56.910  16.658  1.00  0.00    -0.020 N
HETATM   13  C3  UNL     1     -34.517 -57.338  16.834  1.00  0.00     0.705 A
ATOM     14  H4  UNL     1     -34.433 -56.769  14.846  1.00  0.00     0.203 HD
HETATM   15  N2  UNL     1     -35.329 -57.531  17.889  1.00  0.00    -0.020 N
HETATM   16  C2  UNL     1     -36.654 -57.324  17.825  1.00  0.00     0.731 A
ATOM     17  H2  UNL     1     -34.924 -57.847  18.769  1.00  0.00     0.203 HD
ATOM     18  H8  UNL     1     -38.167 -56.743  16.579  1.00  0.00     0.203 HD
ATOM     19  H5  UNL     1     -37.876 -56.179  14.504  1.00  0.00     0.180 HD
BRANCH  13  20
HETATM   20  N3  UNL     1     -33.242 -57.535  16.886  1.00  0.00    -0.234 N
ATOM     21  H32 UNL     1     -32.915 -58.501  16.883  1.00  0.00     0.174 HD
ATOM     22  H31 UNL     1     -32.565 -56.774  16.930  1.00  0.00     0.174 HD
ENDBRANCH  13  20
BRANCH  16  23
HETATM   23  N1  UNL     1     -37.383 -57.526  18.878  1.00  0.00    -0.096 N
ATOM     24  H1  UNL     1     -36.921 -57.566  19.787  1.00  0.00     0.213 HD
BRANCH  23  25
HETATM   25  O1  UNL     1     -38.732 -57.689  18.833  1.00  0.00    -0.271 OA
HETATM   26  C1  UNL     1     -39.533 -57.697  20.002  1.00  0.00     0.238 C
ENDBRANCH  23  25
ENDBRANCH  16  23
ENDBRANCH   1   9
BRANCH   3  27
HETATM   27  O3  UNL     1     -37.212 -53.374  14.106  1.00  0.00    -0.342 OA
ATOM     28  H3  UNL     1     -37.324 -52.432  14.160  1.00  0.00     0.215 HD
ENDBRANCH   3  27
BRANCH   3  29
HETATM   29  C7  UNL     1     -35.439 -52.524  12.873  1.00  0.00     0.266 C
BRANCH  29  30
HETATM   30  O4  UNL     1     -36.192 -51.369  13.027  1.00  0.00    -0.393 OA
ATOM     31  H4  UNL     1     -36.002 -51.028  13.894  1.00  0.00     0.209 HD
ENDBRANCH  29  30
ENDBRANCH   3  29
BRANCH   5  32
HETATM   32  C9  UNL     1     -39.285 -54.718  12.293  1.00  0.00     0.267 C
BRANCH  32  33
HETATM   33  N6  UNL     1     -40.330 -55.339  11.535  1.00  0.00    -0.077 N
ATOM     34  H63 UNL     1     -40.074 -55.409  10.551  1.00  0.00     0.274 HD
ATOM     35  H62 UNL     1     -40.402 -56.331  11.759  1.00  0.00     0.274 HD
ATOM     36  H61 UNL     1     -41.231 -54.875  11.644  1.00  0.00     0.274 HD
ENDBRANCH  32  33
ENDBRANCH   5  32
BRANCH   7  37
HETATM   37  O6  UNL     1     -38.209 -57.488  10.446  1.00  0.00    -0.290 OA
ATOM     38  H6  UNL     1     -39.119 -57.763  10.465  1.00  0.00     0.244 HD
ENDBRANCH   7  37
TORSDOF 10
ENDMDL