MODEL 2
REMARK VINA RESULT: -8.555664782      1.987      3.988
REMARK  11 active torsions:
REMARK  status: ('A' for Active; 'I' for Inactive)
REMARK    1  A    between atoms: N3_6  and  C3_7
REMARK    2  A    between atoms: C5_9  and  N4_10
REMARK    3  A    between atoms: C6_14  and  N5_15
REMARK    4  A    between atoms: C7_19  and  O1_20
REMARK    5  A    between atoms: O1_20  and  C8_21
REMARK    6  A    between atoms: C8_21  and  C9_22
REMARK    7  A    between atoms: C9_22  and  N6_23
REMARK    8  A    between atoms: C9_22  and  C10_27
REMARK    9  A    between atoms: C10_27  and  O2_28
REMARK   10  A    between atoms: C10_27  and  O3_30
REMARK   11  A    between atoms: C11_32  and  N7_33
ROOT
HETATM    1  C3  UNL     1     -36.435 -55.365  14.022  1.00  0.00     0.123 C
HETATM    2  C4  UNL     1     -35.307 -54.682  13.273  1.00  0.00     0.062 C
HETATM    3  C5  UNL     1     -35.998 -53.720  12.332  1.00  0.00     0.218 C
HETATM    4  C6  UNL     1     -37.116 -54.348  11.593  1.00  0.00     0.244 C
HETATM    5  C7  UNL     1     -37.214 -55.852  11.690  1.00  0.00     0.186 C
HETATM    6  C11 UNL     1     -36.990 -56.391  13.059  1.00  0.00     0.237 C
ENDROOT
BRANCH   5   7
HETATM    7  O1  UNL     1     -36.399 -56.512  10.833  1.00  0.00    -0.379 OA
BRANCH   7   8
HETATM    8  C8  UNL     1     -35.436 -57.328  11.267  1.00  0.00     0.206 C
BRANCH   8   9
HETATM    9  C9  UNL     1     -34.108 -57.143  10.580  1.00  0.00     0.261 C
BRANCH   9  10
HETATM   10  N6  UNL     1     -33.125 -56.485  11.399  1.00  0.00    -0.068 N
ATOM     11  H63 UNL     1     -33.096 -55.486  11.197  1.00  0.00     0.275 HD
ATOM     12  H62 UNL     1     -33.428 -56.453  12.372  1.00  0.00     0.275 HD
ATOM     13  H61 UNL     1     -32.194 -56.895  11.324  1.00  0.00     0.275 HD
ENDBRANCH   9  10
BRANCH   9  14
HETATM   14  C10 UNL     1     -34.266 -56.276   9.322  1.00  0.00     0.286 C
BRANCH  14  15
HETATM   15  O2  UNL     1     -33.970 -54.976   9.690  1.00  0.00    -0.369 OA
ATOM     16  H2  UNL     1     -33.909 -54.964  10.638  1.00  0.00     0.212 HD
ENDBRANCH  14  15
BRANCH  14  17
HETATM   17  O3  UNL     1     -33.369 -56.686   8.356  1.00  0.00    -0.369 OA
ATOM     18  H3  UNL     1     -33.049 -57.557   8.562  1.00  0.00     0.212 HD
ENDBRANCH  14  17
ENDBRANCH   9  14
ENDBRANCH   8   9
ENDBRANCH   7   8
ENDBRANCH   5   7
BRANCH   4  19
HETATM   19  N5  UNL     1     -38.354 -53.810  12.106  1.00  0.00    -0.070 N
ATOM     20  H53 UNL     1     -38.211 -53.170  12.888  1.00  0.00     0.274 HD
ATOM     21  H52 UNL     1     -38.791 -53.149  11.465  1.00  0.00     0.274 HD
ATOM     22  H51 UNL     1     -38.966 -54.591  12.344  1.00  0.00     0.274 HD
ENDBRANCH   4  19
BRANCH   6  23
HETATM   23  N7  UNL     1     -38.274 -56.911  13.559  1.00  0.00    -0.070 N
ATOM     24  H73 UNL     1     -38.165 -57.410  14.442  1.00  0.00     0.274 HD
ATOM     25  H72 UNL     1     -38.889 -56.164  13.883  1.00  0.00     0.274 HD
ATOM     26  H71 UNL     1     -38.719 -57.490  12.847  1.00  0.00     0.274 HD
ENDBRANCH   6  23
BRANCH   3  27
HETATM   27  N4  UNL     1     -36.442 -52.526  13.010  1.00  0.00    -0.073 N
ATOM     28  H43 UNL     1     -36.589 -51.759  12.354  1.00  0.00     0.274 HD
ATOM     29  H42 UNL     1     -37.397 -52.628  13.354  1.00  0.00     0.274 HD
ATOM     30  H41 UNL     1     -35.806 -52.255  13.760  1.00  0.00     0.274 HD
ENDBRANCH   3  27
BRANCH   1  31
HETATM   31  N3  UNL     1     -35.864 -56.010  15.171  1.00  0.00    -0.332 N
HETATM   32  C2  UNL     1     -34.665 -56.792  15.163  1.00  0.00     0.252 A
HETATM   33  N2  UNL     1     -34.326 -57.287  16.464  1.00  0.00    -0.348 N
HETATM   34  C1  UNL     1     -34.971 -57.112  17.541  1.00  0.00     0.191 A
ATOM     35  H2  UNL     1     -33.473 -57.842  16.531  1.00  0.00     0.163 HD
HETATM   36  N1  UNL     1     -34.521 -57.664  18.773  1.00  0.00    -0.063 NA
HETATM   37  N9  UNL     1     -36.174 -56.339  17.527  1.00  0.00    -0.305 N
HETATM   38  C12 UNL     1     -36.567 -55.838  16.410  1.00  0.00     0.194 A
ATOM     39  H9  UNL     1     -36.708 -56.188  18.383  1.00  0.00     0.171 HD
HETATM   40  N8  UNL     1     -37.782 -55.070  16.457  1.00  0.00    -0.063 NA
ENDBRANCH   1  31
TORSDOF 11
ENDMDL