MODEL 4
REMARK VINA RESULT: -8.841604550      2.263      5.157
REMARK  7 active torsions:
REMARK  status: ('A' for Active; 'I' for Inactive)
REMARK    1  A    between atoms: C3_7  and  N2_8
REMARK    2  A    between atoms: N2_8  and  N3_9
REMARK    3  A    between atoms: N3_9  and  C4_11
REMARK    4  A    between atoms: C7_20  and  C8_21
REMARK    5  A    between atoms: C8_21  and  C9_22
REMARK    6  A    between atoms: C8_21  and  C10_25
REMARK    7  A    between atoms: C9_22  and  O3_23
ROOT
HETATM    1  O1  UNL     1     -34.262 -59.355  17.925  1.00  0.00    -0.247 OA
HETATM    2  C1  UNL     1     -34.878 -58.564  17.170  1.00  0.00     0.324 C
HETATM    3  N1  UNL     1     -35.469 -57.465  17.855  1.00  0.00    -0.276 N
ATOM      4  H1  UNL     1     -35.311 -57.429  18.862  1.00  0.00     0.173 HD
HETATM    5  C2  UNL     1     -36.262 -56.403  17.303  1.00  0.00     0.265 C
HETATM    6  O2  UNL     1     -36.970 -55.719  18.056  1.00  0.00    -0.269 OA
HETATM    7  C3  UNL     1     -36.269 -56.080  15.827  1.00  0.00     0.287 C
HETATM    8  N6  UNL     1     -36.676 -57.256  15.153  1.00  0.00    -0.374 N
ATOM      9  H6  UNL     1     -37.664 -57.452  14.993  1.00  0.00     0.157 HD
HETATM   10  C7  UNL     1     -35.669 -58.159  14.705  1.00  0.00     0.196 C
HETATM   11  N9  UNL     1     -34.933 -58.810  15.768  1.00  0.00    -0.321 N
ATOM     12  H9  UNL     1     -34.347 -59.586  15.457  1.00  0.00     0.166 HD
ENDROOT
BRANCH  10  13
HETATM   13  C8  UNL     1     -34.763 -57.610  13.630  1.00  0.00     0.118 C
BRANCH  13  14
HETATM   14  C9  UNL     1     -33.562 -56.897  14.205  1.00  0.00     0.180 C
BRANCH  14  15
HETATM   15  O3  UNL     1     -32.877 -56.091  13.360  1.00  0.00    -0.400 OA
ATOM     16  H3  UNL     1     -32.373 -55.391  13.757  1.00  0.00     0.209 HD
ENDBRANCH  14  15
ENDBRANCH  13  14
BRANCH  13  17
HETATM   17  C10 UNL     1     -35.508 -56.810  12.639  1.00  0.00     0.083 C
HETATM   18  N7  UNL     1     -36.176 -57.313  11.629  1.00  0.00    -0.378 N
HETATM   19  C11 UNL     1     -36.779 -56.261  10.866  1.00  0.00     0.140 C
ATOM     20  H7  UNL     1     -36.255 -58.308  11.418  1.00  0.00     0.160 HD
HETATM   21  C12 UNL     1     -36.131 -54.969  11.313  1.00  0.00     0.140 C
HETATM   22  N8  UNL     1     -35.613 -55.398  12.622  1.00  0.00    -0.378 N
ATOM     23  H8  UNL     1     -35.370 -54.777  13.394  1.00  0.00     0.160 HD
ENDBRANCH  13  17
ENDBRANCH  10  13
BRANCH   7  24
HETATM   24  N2  UNL     1     -37.252 -55.033  15.619  1.00  0.00    -0.103 NA
BRANCH  24  25
HETATM   25  N3  UNL     1     -38.527 -55.561  15.465  1.00  0.00    -0.273 N
ATOM     26  H3  UNL     1     -38.991 -56.038  16.237  1.00  0.00     0.185 HD
BRANCH  25  27
HETATM   27  C4  UNL     1     -39.169 -55.423  14.206  1.00  0.00     0.187 C
HETATM   28  N4  UNL     1     -39.634 -56.401  13.497  1.00  0.00    -0.360 N
HETATM   29  C5  UNL     1     -40.224 -55.946  12.279  1.00  0.00     0.142 C
ATOM     30  H4  UNL     1     -39.584 -57.382  13.776  1.00  0.00     0.162 HD
HETATM   31  C6  UNL     1     -40.241 -54.454  12.405  1.00  0.00     0.142 C
HETATM   32  N5  UNL     1     -39.392 -54.188  13.549  1.00  0.00    -0.360 N
ATOM     33  H5  UNL     1     -39.022 -53.279  13.829  1.00  0.00     0.162 HD
ENDBRANCH  25  27
ENDBRANCH  24  25
ENDBRANCH   7  24
TORSDOF 7
ENDMDL