MODEL 4
REMARK VINA RESULT: -8.777464010      3.600      6.953
REMARK  16 active torsions:
REMARK  status: ('A' for Active; 'I' for Inactive)
REMARK    1  A    between atoms: C2_2  and  C3_3
REMARK    2  A    between atoms: C2_2  and  C13_17
REMARK    3  A    between atoms: C3_3  and  C4_4
REMARK    4  A    between atoms: C4_4  and  C5_5
REMARK    5  A    between atoms: C5_5  and  C6_6
REMARK    6  A    between atoms: C6_6  and  O1_7
REMARK    7  A    between atoms: O1_7  and  C7_8
REMARK    8  A    between atoms: C7_8  and  C8_10
REMARK    9  A    between atoms: C9_11  and  C10_12
REMARK   10  A    between atoms: C11_13  and  C12_14
REMARK   11  A    between atoms: C16_20  and  O5_21
REMARK   12  A    between atoms: O5_21  and  C17_22
REMARK   13  A    between atoms: C17_22  and  C18_24
REMARK   14  A    between atoms: C18_24  and  C19_25
REMARK   15  A    between atoms: C20_26  and  C22_28
REMARK   16  A    between atoms: C23_29  and  C24_30
ROOT
HETATM    1  C13 UNL     1     -48.950  -2.591  57.207  1.00  0.00     0.150 C
HETATM    2  C14 UNL     1     -49.763  -2.135  56.045  1.00  0.00     0.046 C
HETATM    3  C15 UNL     1     -51.159  -2.555  56.534  1.00  0.00     0.047 C
HETATM    4  C16 UNL     1     -52.260  -1.891  55.812  1.00  0.00     0.139 C
HETATM    5  C27 UNL     1     -53.229  -1.152  56.696  1.00  0.00     0.037 C
HETATM    6  C28 UNL     1     -52.576  -0.244  57.682  1.00  0.00    -0.014 C
HETATM    7  C29 UNL     1     -52.341   1.148  57.081  1.00  0.00     0.010 C
HETATM    8  C30 UNL     1     -51.340  -0.781  58.311  1.00  0.00     0.037 C
HETATM    9  C31 UNL     1     -51.034  -2.208  57.981  1.00  0.00     0.129 C
HETATM   10  O7  UNL     1     -49.739  -2.479  58.340  1.00  0.00    -0.376 OA
ENDROOT
BRANCH   1  11
HETATM   11  C2  UNL     1     -47.614  -2.003  57.305  1.00  0.00    -0.061 C
HETATM   12  C1  UNL     1     -46.928  -1.715  56.213  1.00  0.00     0.017 C
BRANCH  11  13
HETATM   13  C3  UNL     1     -46.956  -1.704  58.617  1.00  0.00     0.036 C
BRANCH  13  14
HETATM   14  C4  UNL     1     -46.005  -2.837  59.029  1.00  0.00     0.006 C
BRANCH  14  15
HETATM   15  C5  UNL     1     -45.243  -2.462  60.250  1.00  0.00     0.027 C
BRANCH  15  16
HETATM   16  C6  UNL     1     -44.216  -1.402  60.116  1.00  0.00     0.179 C
BRANCH  16  17
HETATM   17  O1  UNL     1     -42.925  -1.759  60.207  1.00  0.00    -0.318 OA
BRANCH  17  18
HETATM   18  C7  UNL     1     -42.071  -2.201  61.136  1.00  0.00     0.282 C
HETATM   19  O2  UNL     1     -42.244  -1.769  62.339  1.00  0.00    -0.260 OA
BRANCH  18  20
HETATM   20  C8  UNL     1     -40.998  -3.114  60.850  1.00  0.00     0.082 C
HETATM   21  C9  UNL     1     -41.082  -4.269  60.268  1.00  0.00     0.006 C
BRANCH  21  22
HETATM   22  C10 UNL     1     -42.243  -4.954  59.754  1.00  0.00     0.007 C
HETATM   23  C11 UNL     1     -43.102  -5.548  60.596  1.00  0.00     0.084 C
BRANCH  23  24
HETATM   24  C12 UNL     1     -44.260  -6.231  60.076  1.00  0.00     0.198 C
HETATM   25  O3  UNL     1     -44.122  -7.175  59.236  1.00  0.00    -0.645 OA
HETATM   26  O4  UNL     1     -45.541  -5.877  60.477  1.00  0.00    -0.645 OA
ENDBRANCH  23  24
ENDBRANCH  21  22
ENDBRANCH  18  20
ENDBRANCH  17  18
ENDBRANCH  16  17
ENDBRANCH  15  16
ENDBRANCH  14  15
ENDBRANCH  13  14
ENDBRANCH  11  13
ENDBRANCH   1  11
BRANCH   4  27
HETATM   27  O5  UNL     1     -53.032  -2.880  55.129  1.00  0.00    -0.315 OA
BRANCH  27  28
HETATM   28  C17 UNL     1     -53.005  -3.050  53.769  1.00  0.00     0.262 C
HETATM   29  O6  UNL     1     -52.426  -4.061  53.306  1.00  0.00    -0.265 OA
BRANCH  28  30
HETATM   30  C18 UNL     1     -53.661  -2.026  52.916  1.00  0.00     0.139 C
BRANCH  30  31
HETATM   31  C19 UNL     1     -52.611  -1.360  52.132  1.00  0.00    -0.001 C
HETATM   32  C20 UNL     1     -52.365  -0.084  52.339  1.00  0.00    -0.012 C
HETATM   33  C21 UNL     1     -53.141   0.666  53.353  1.00  0.00     0.058 C
BRANCH  32  34
HETATM   34  C22 UNL     1     -51.337   0.532  51.556  1.00  0.00    -0.072 C
HETATM   35  C23 UNL     1     -50.457   1.039  50.907  1.00  0.00    -0.097 C
BRANCH  35  36
HETATM   36  C24 UNL     1     -49.362   1.640  50.123  1.00  0.00     0.065 A
HETATM   37  C25 UNL     1     -48.490   0.675  49.303  1.00  0.00     0.018 A
HETATM   38  C26 UNL     1     -47.966   1.328  50.554  1.00  0.00     0.018 A
ENDBRANCH  35  36
ENDBRANCH  32  34
ENDBRANCH  30  31
ENDBRANCH  28  30
ENDBRANCH  27  28
ENDBRANCH   4  27
TORSDOF 16
ENDMDL