MODEL 3
REMARK VINA RESULT: -7.394872484      1.966      3.025
REMARK  12 active torsions:
REMARK  status: ('A' for Active; 'I' for Inactive)
REMARK    1  A    between atoms: C15_16  and  C17_18
REMARK    2  A    between atoms: C17_18  and  O2_19
REMARK    3  A    between atoms: O2_19  and  C18_20
REMARK    4  A    between atoms: C18_20  and  C19_22
REMARK    5  A    between atoms: C19_22  and  C20_23
REMARK    6  A    between atoms: C20_23  and  C21_24
REMARK    7  A    between atoms: C21_24  and  C22_25
REMARK    8  A    between atoms: C22_25  and  C23_26
REMARK    9  A    between atoms: C23_26  and  C24_27
REMARK   10  A    between atoms: C24_27  and  C25_28
REMARK   11  A    between atoms: C26_30  and  C28_32
REMARK   12  A    between atoms: C28_32  and  O5_33
ROOT
HETATM    1  C1  UNL     1     -58.215   3.796  60.236  1.00  0.00     0.024 C
HETATM    2  C2  UNL     1     -58.088   2.340  60.631  1.00  0.00     0.021 C
HETATM    3  C3  UNL     1     -58.591   1.394  59.597  1.00  0.00     0.018 C
HETATM    4  C4  UNL     1     -57.644   1.007  58.498  1.00  0.00     0.007 C
HETATM    5  C5  UNL     1     -56.203   1.361  58.885  1.00  0.00     0.002 C
HETATM    6  C6  UNL     1     -56.148   0.952  60.308  1.00  0.00    -0.004 C
HETATM    7  C7  UNL     1     -54.759   0.511  60.609  1.00  0.00     0.006 C
HETATM    8  C8  UNL     1     -54.657  -0.767  59.748  1.00  0.00     0.007 C
HETATM    9  C9  UNL     1     -54.493  -0.396  58.264  1.00  0.00     0.009 C
HETATM   10  C10 UNL     1     -55.163   0.857  57.942  1.00  0.00    -0.018 C
HETATM   11  C11 UNL     1     -55.971   0.782  56.616  1.00  0.00     0.020 C
HETATM   12  C12 UNL     1     -54.255   2.007  57.660  1.00  0.00    -0.013 C
HETATM   13  C13 UNL     1     -53.209   2.045  56.861  1.00  0.00     0.048 C
HETATM   14  C14 UNL     1     -52.739   0.906  56.080  1.00  0.00     0.160 C
HETATM   15  O1  UNL     1     -52.411   1.127  54.889  1.00  0.00    -0.292 OA
HETATM   16  C15 UNL     1     -52.594  -0.526  56.526  1.00  0.00     0.052 C
HETATM   17  C16 UNL     1     -53.072  -1.473  55.453  1.00  0.00     0.027 C
HETATM   18  C26 UNL     1     -53.124  -0.797  57.895  1.00  0.00    -0.002 C
HETATM   19  C27 UNL     1     -52.033  -0.383  58.852  1.00  0.00     0.019 C
HETATM   20  C29 UNL     1     -56.718   2.027  61.158  1.00  0.00     0.006 C
HETATM   21  C30 UNL     1     -56.833   1.647  62.606  1.00  0.00     0.013 C
HETATM   22  C31 UNL     1     -58.113   2.309  63.045  1.00  0.00     0.079 C
HETATM   23  C32 UNL     1     -58.955   2.186  61.844  1.00  0.00     0.135 C
HETATM   24  O6  UNL     1     -60.164   1.989  61.875  1.00  0.00    -0.297 OA
ENDROOT
BRANCH  16  25
HETATM   25  C17 UNL     1     -51.085  -0.655  56.513  1.00  0.00     0.197 C
BRANCH  25  26
HETATM   26  O2  UNL     1     -50.810  -1.955  55.912  1.00  0.00    -0.320 OA
BRANCH  26  27
HETATM   27  C18 UNL     1     -49.589  -2.569  56.179  1.00  0.00     0.258 C
HETATM   28  O3  UNL     1     -49.053  -3.201  55.248  1.00  0.00    -0.265 OA
BRANCH  27  29
HETATM   29  C19 UNL     1     -48.934  -2.485  57.504  1.00  0.00     0.111 C
BRANCH  29  30
HETATM   30  C20 UNL     1     -47.547  -1.934  57.450  1.00  0.00     0.010 C
BRANCH  30  31
HETATM   31  C21 UNL     1     -46.784  -2.255  58.708  1.00  0.00     0.000 C
BRANCH  31  32
HETATM   32  C22 UNL     1     -45.294  -2.072  58.546  1.00  0.00     0.000 C
BRANCH  32  33
HETATM   33  C23 UNL     1     -44.695  -1.388  59.752  1.00  0.00     0.007 C
BRANCH  33  34
HETATM   34  C24 UNL     1     -43.467  -2.144  60.196  1.00  0.00     0.069 C
BRANCH  34  35
HETATM   35  C25 UNL     1     -43.622  -3.611  60.174  1.00  0.00     0.231 C
HETATM   36  O4  UNL     1     -42.700  -4.402  60.186  1.00  0.00    -0.307 OA
ENDBRANCH  34  35
ENDBRANCH  33  34
ENDBRANCH  32  33
ENDBRANCH  31  32
ENDBRANCH  30  31
ENDBRANCH  29  30
ENDBRANCH  27  29
ENDBRANCH  26  27
ENDBRANCH  25  26
ENDBRANCH  16  25
BRANCH  18  37
HETATM   37  C28 UNL     1     -53.175  -2.344  57.994  1.00  0.00     0.175 C
BRANCH  37  38
HETATM   38  O5  UNL     1     -52.137  -2.946  58.605  1.00  0.00    -0.400 OA
ATOM     39  H5  UNL     1     -52.343  -3.505  59.345  1.00  0.00     0.209 HD
ENDBRANCH  37  38
ENDBRANCH  18  37
TORSDOF 12
ENDMDL