MODEL 3
REMARK VINA RESULT: -7.435280664      1.230      3.234
REMARK  12 active torsions:
REMARK  status: ('A' for Active; 'I' for Inactive)
REMARK    1  A    between atoms: C2_2  and  C3_3
REMARK       I    between atoms: C3_3  and  N1_5
REMARK    2  A    between atoms: N1_5  and  C4_7
REMARK    3  A    between atoms: C6_9  and  C7_10
REMARK    4  A    between atoms: C7_10  and  C9_12
REMARK    5  A    between atoms: C9_12  and  C10_13
REMARK    6  A    between atoms: C10_13  and  C11_14
REMARK    7  A    between atoms: C18_22  and  C19_23
REMARK    8  A    between atoms: C19_23  and  C20_24
REMARK    9  A    between atoms: C26_32  and  O5_33
REMARK   10  A    between atoms: O5_33  and  C27_34
REMARK   11  A    between atoms: C27_34  and  C28_36
REMARK   12  A    between atoms: C28_36  and  C30_38
ROOT
HETATM    1  C4  UNL     1     -52.060  -0.975  56.153  1.00  0.00     0.134 C
HETATM    2  C5  UNL     1     -51.094  -0.282  57.031  1.00  0.00     0.038 C
HETATM    3  C6  UNL     1     -51.606   0.315  58.333  1.00  0.00     0.022 C
HETATM    4  C15 UNL     1     -50.690  -0.607  59.053  1.00  0.00     0.030 C
HETATM    5  C16 UNL     1     -50.331  -1.357  57.796  1.00  0.00     0.058 C
HETATM    6  C17 UNL     1     -51.113  -2.570  57.531  1.00  0.00     0.176 C
HETATM    7  O2  UNL     1     -51.313  -3.482  58.283  1.00  0.00    -0.294 OA
HETATM    8  C18 UNL     1     -51.601  -2.433  56.144  1.00  0.00     0.155 C
HETATM    9  O3  UNL     1     -50.510  -2.511  55.213  1.00  0.00    -0.300 OA
HETATM   10  C24 UNL     1     -49.213  -2.901  55.510  1.00  0.00     0.262 C
HETATM   11  O4  UNL     1     -48.536  -3.375  54.564  1.00  0.00    -0.265 OA
HETATM   12  C25 UNL     1     -48.574  -2.800  56.840  1.00  0.00     0.144 C
HETATM   13  C26 UNL     1     -48.878  -1.443  57.490  1.00  0.00     0.157 C
ENDROOT
BRANCH   3  14
HETATM   14  C7  UNL     1     -53.035   0.208  58.557  1.00  0.00    -0.084 C
HETATM   15  C8  UNL     1     -53.919   0.980  57.972  1.00  0.00     0.014 C
BRANCH  14  16
HETATM   16  C9  UNL     1     -53.566  -0.850  59.486  1.00  0.00     0.037 C
BRANCH  16  17
HETATM   17  C10 UNL     1     -54.697  -1.618  58.812  1.00  0.00     0.031 C
BRANCH  17  18
HETATM   18  C11 UNL     1     -54.496  -3.055  59.140  1.00  0.00    -0.024 C
HETATM   19  C12 UNL     1     -55.125  -4.010  58.493  1.00  0.00    -0.091 C
HETATM   20  C13 UNL     1     -54.889  -5.436  58.860  1.00  0.00     0.042 C
HETATM   21  C14 UNL     1     -56.067  -3.642  57.402  1.00  0.00     0.042 C
ENDBRANCH  17  18
ENDBRANCH  16  17
ENDBRANCH  14  16
ENDBRANCH   3  14
BRANCH   1  22
HETATM   22  N1  UNL     1     -52.114  -0.458  54.802  1.00  0.00    -0.349 N
HETATM   23  C3  UNL     1     -53.217   0.057  54.137  1.00  0.00     0.240 C
HETATM   24  O1  UNL     1     -54.334   0.117  54.690  1.00  0.00    -0.269 OA
ATOM     25  H1  UNL     1     -51.239  -0.474  54.278  1.00  0.00     0.163 HD
BRANCH  23  26
HETATM   26  C2  UNL     1     -53.089   0.538  52.773  1.00  0.00     0.064 C
HETATM   27  C1  UNL     1     -52.340  -0.049  51.864  1.00  0.00     0.017 C
ENDBRANCH  23  26
ENDBRANCH   1  22
BRANCH   8  28
HETATM   28  C19 UNL     1     -52.709  -3.357  55.764  1.00  0.00     0.076 C
BRANCH  28  29
HETATM   29  C20 UNL     1     -52.480  -3.845  54.355  1.00  0.00    -0.021 C
HETATM   30  C21 UNL     1     -53.439  -3.796  53.451  1.00  0.00    -0.091 C
HETATM   31  C22 UNL     1     -53.195  -4.277  52.082  1.00  0.00     0.042 C
HETATM   32  C23 UNL     1     -54.759  -3.252  53.823  1.00  0.00     0.042 C
ENDBRANCH  28  29
ENDBRANCH   8  28
BRANCH  13  33
HETATM   33  O5  UNL     1     -48.050  -1.411  58.653  1.00  0.00    -0.314 OA
BRANCH  33  34
HETATM   34  C27 UNL     1     -46.701  -1.706  58.601  1.00  0.00     0.263 C
HETATM   35  O6  UNL     1     -46.150  -1.602  57.470  1.00  0.00    -0.265 OA
BRANCH  34  36
HETATM   36  C28 UNL     1     -45.891  -2.121  59.747  1.00  0.00     0.081 C
HETATM   37  C29 UNL     1     -45.535  -3.588  59.658  1.00  0.00     0.020 C
BRANCH  36  38
HETATM   38  C30 UNL     1     -44.606  -1.338  59.907  1.00  0.00     0.010 C
HETATM   39  C31 UNL     1     -43.590  -2.298  60.527  1.00  0.00     0.006 C
ENDBRANCH  36  38
ENDBRANCH  34  36
ENDBRANCH  33  34
ENDBRANCH  13  33
TORSDOF 12
ENDMDL