MODEL 4
REMARK VINA RESULT: -7.762782848      1.691      2.850
REMARK  11 active torsions:
REMARK  status: ('A' for Active; 'I' for Inactive)
REMARK    1  A    between atoms: O1_2  and  C2_3
REMARK    2  A    between atoms: C2_3  and  C3_4
REMARK    3  A    between atoms: C3_4  and  N1_5
REMARK    4  A    between atoms: C3_4  and  C26_35
REMARK       I    between atoms: N1_5  and  C4_7
REMARK    5  A    between atoms: C4_7  and  C5_9
REMARK    6  A    between atoms: C9_13  and  C10_14
REMARK    7  A    between atoms: C10_14  and  N2_15
REMARK    8  A    between atoms: C12_19  and  N4_20
REMARK    9  A    between atoms: N4_20  and  C14_22
REMARK   10  A    between atoms: C14_22  and  C15_23
REMARK   11  A    between atoms: C15_23  and  C16_24
ROOT
HETATM    1  C5  UNL     1     -54.462  -3.369  59.237  1.00  0.00     0.044 C
HETATM    2  C6  UNL     1     -54.881  -4.534  58.347  1.00  0.00     0.026 C
HETATM    3  C7  UNL     1     -52.942  -3.241  59.118  1.00  0.00     0.020 C
HETATM    4  C8  UNL     1     -52.596  -3.255  57.662  1.00  0.00     0.007 C
HETATM    5  C9  UNL     1     -53.315  -2.098  56.989  1.00  0.00     0.006 C
HETATM    6  C22 UNL     1     -54.079  -1.268  57.950  1.00  0.00     0.016 C
HETATM    7  C23 UNL     1     -55.091  -2.122  58.752  1.00  0.00    -0.031 C
HETATM    8  C24 UNL     1     -55.647  -1.187  59.783  1.00  0.00     0.016 C
HETATM    9  C25 UNL     1     -56.219  -2.433  57.793  1.00  0.00     0.016 C
ENDROOT
BRANCH   5  10
HETATM   10  C10 UNL     1     -52.266  -1.300  56.271  1.00  0.00     0.157 C
BRANCH  10  11
HETATM   11  N2  UNL     1     -50.931  -1.434  56.775  1.00  0.00    -0.258 N
HETATM   12  N3  UNL     1     -50.122  -2.214  56.035  1.00  0.00    -0.305 N
HETATM   13  C11 UNL     1     -48.846  -2.418  56.374  1.00  0.00     0.137 A
ATOM     14  H3  UNL     1     -50.490  -2.659  55.195  1.00  0.00     0.186 HD
HETATM   15  C12 UNL     1     -48.345  -1.820  57.502  1.00  0.00     0.056 A
HETATM   16  C20 UNL     1     -49.143  -1.016  58.286  1.00  0.00     0.107 A
HETATM   17  C21 UNL     1     -50.446  -0.848  57.879  1.00  0.00     0.264 A
HETATM   18  O3  UNL     1     -51.184  -0.120  58.586  1.00  0.00    -0.267 OA
BRANCH  15  19
HETATM   19  N4  UNL     1     -46.983  -1.984  57.945  1.00  0.00    -0.364 N
HETATM   20  C13 UNL     1     -45.967  -1.646  56.990  1.00  0.00     0.155 C
BRANCH  19  21
HETATM   21  C14 UNL     1     -46.753  -2.461  59.247  1.00  0.00     0.064 C
BRANCH  21  22
HETATM   22  C15 UNL     1     -45.630  -3.413  59.379  1.00  0.00     0.049 C
BRANCH  22  23
HETATM   23  C16 UNL     1     -44.534  -3.066  60.319  1.00  0.00    -0.010 C
HETATM   24  C17 UNL     1     -43.120  -3.306  59.862  1.00  0.00     0.005 C
HETATM   25  C18 UNL     1     -42.747  -2.018  60.605  1.00  0.00     0.001 C
HETATM   26  C19 UNL     1     -44.185  -1.563  60.326  1.00  0.00     0.005 C
ENDBRANCH  22  23
ENDBRANCH  21  22
ENDBRANCH  19  21
ENDBRANCH  15  19
ENDBRANCH  10  11
ENDBRANCH   5  10
BRANCH   1  27
HETATM   27  C4  UNL     1     -54.747  -3.793  60.605  1.00  0.00     0.227 C
HETATM   28  N1  UNL     1     -55.930  -4.515  60.868  1.00  0.00    -0.353 N
ATOM     29  H1  UNL     1     -56.559  -4.723  60.092  1.00  0.00     0.163 HD
HETATM   30  O2  UNL     1     -53.988  -3.546  61.555  1.00  0.00    -0.273 OA
BRANCH  28  31
HETATM   31  C3  UNL     1     -56.291  -4.978  62.201  1.00  0.00     0.112 C
BRANCH  31  32
HETATM   32  C2  UNL     1     -56.922  -6.307  62.082  1.00  0.00     0.192 C
BRANCH  32  33
HETATM   33  O1  UNL     1     -56.207  -7.243  61.344  1.00  0.00    -0.394 OA
HETATM   34  C1  UNL     1     -56.555  -8.538  61.645  1.00  0.00     0.201 C
ENDBRANCH  32  33
ENDBRANCH  31  32
BRANCH  31  35
HETATM   35  C26 UNL     1     -57.070  -3.900  62.901  1.00  0.00     0.010 C
HETATM   36  C27 UNL     1     -58.544  -3.991  62.810  1.00  0.00     0.007 C
HETATM   37  C28 UNL     1     -59.301  -4.334  64.035  1.00  0.00     0.000 C
HETATM   38  C29 UNL     1     -58.740  -3.728  65.286  1.00  0.00     0.000 C
HETATM   39  C30 UNL     1     -57.297  -4.192  65.395  1.00  0.00     0.000 C
HETATM   40  C31 UNL     1     -56.530  -3.588  64.270  1.00  0.00     0.007 C
ENDBRANCH  31  35
ENDBRANCH  28  31
ENDBRANCH   1  27
TORSDOF 11
ENDMDL