MODEL 4
REMARK VINA RESULT: -5.975519092      2.436      4.477
REMARK  11 active torsions:
REMARK  status: ('A' for Active; 'I' for Inactive)
REMARK    1  A    between atoms: O1_1  and  C1_3
REMARK    2  A    between atoms: C1_3  and  C2_4
REMARK    3  A    between atoms: C2_4  and  C3_5
REMARK    4  A    between atoms: C5_8  and  C6_9
REMARK    5  A    between atoms: C7_10  and  C8_11
REMARK    6  A    between atoms: C8_11  and  C9_12
REMARK    7  A    between atoms: C9_12  and  C10_13
REMARK    8  A    between atoms: C10_13  and  C11_14
REMARK    9  A    between atoms: C11_14  and  C12_15
REMARK   10  A    between atoms: C12_15  and  N2_16
REMARK   11  A    between atoms: N3_32  and  C26_33
ROOT
HETATM    1  C6  UNL     1     -51.120  -2.040  56.572  1.00  0.00     0.004 A
HETATM    2  C7  UNL     1     -51.166  -2.648  55.308  1.00  0.00    -0.004 A
HETATM    3  S1  UNL     1     -49.538  -2.947  54.963  1.00  0.00    -0.093 SA
HETATM    4  C17 UNL     1     -48.824  -2.324  56.366  1.00  0.00     0.016 A
HETATM    5  C18 UNL     1     -47.483  -2.258  56.790  1.00  0.00     0.019 A
HETATM    6  C19 UNL     1     -47.175  -1.721  58.023  1.00  0.00     0.001 A
HETATM    7  C20 UNL     1     -48.229  -1.277  58.767  1.00  0.00     0.001 A
HETATM    8  C21 UNL     1     -49.527  -1.344  58.350  1.00  0.00     0.014 A
HETATM    9  C22 UNL     1     -49.875  -1.885  57.097  1.00  0.00    -0.006 A
ENDROOT
BRANCH   1  10
HETATM   10  C5  UNL     1     -52.406  -1.740  57.275  1.00  0.00     0.104 C
HETATM   11  N1  UNL     1     -52.901  -2.598  58.210  1.00  0.00    -0.363 N
HETATM   12  C4  UNL     1     -53.227  -3.952  58.049  1.00  0.00     0.115 C
HETATM   13  C23 UNL     1     -53.558  -1.946  59.332  1.00  0.00     0.133 C
HETATM   14  C3  UNL     1     -54.672  -4.298  58.090  1.00  0.00     0.029 C
HETATM   15  N3  UNL     1     -55.564  -3.258  57.696  1.00  0.00    -0.358 N
HETATM   16  C25 UNL     1     -55.926  -2.392  58.740  1.00  0.00     0.066 C
HETATM   17  C24 UNL     1     -54.853  -1.331  58.983  1.00  0.00     0.065 C
BRANCH  14  18
HETATM   18  C2  UNL     1     -55.156  -5.049  59.288  1.00  0.00     0.084 C
BRANCH  18  19
HETATM   19  C1  UNL     1     -55.337  -6.524  59.119  1.00  0.00     0.170 C
BRANCH  19  20
HETATM   20  O1  UNL     1     -54.253  -7.250  58.781  1.00  0.00    -0.400 OA
ATOM     21  H1  UNL     1     -53.530  -6.792  58.368  1.00  0.00     0.209 HD
ENDBRANCH  19  20
ENDBRANCH  18  19
ENDBRANCH  14  18
BRANCH  15  22
HETATM   22  C26 UNL     1     -56.519  -3.713  56.775  1.00  0.00     0.089 C
HETATM   23  C27 UNL     1     -56.090  -4.838  55.882  1.00  0.00     0.026 C
HETATM   24  C28 UNL     1     -55.553  -4.410  54.535  1.00  0.00     0.002 C
HETATM   25  C29 UNL     1     -56.428  -3.414  53.825  1.00  0.00     0.000 C
HETATM   26  C30 UNL     1     -56.455  -2.196  54.757  1.00  0.00     0.002 C
HETATM   27  C31 UNL     1     -57.239  -2.677  55.957  1.00  0.00     0.026 C
ENDBRANCH  15  22
ENDBRANCH   1  10
BRANCH   2  28
HETATM   28  C8  UNL     1     -52.395  -2.932  54.516  1.00  0.00     0.047 C
BRANCH  28  29
HETATM   29  C9  UNL     1     -52.186  -2.398  53.123  1.00  0.00     0.005 C
BRANCH  29  30
HETATM   30  C10 UNL     1     -52.141  -0.920  53.001  1.00  0.00     0.002 C
BRANCH  30  31
HETATM   31  C11 UNL     1     -53.256  -0.224  53.723  1.00  0.00     0.030 C
BRANCH  31  32
HETATM   32  C12 UNL     1     -52.784   0.846  54.621  1.00  0.00     0.272 C
BRANCH  32  33
HETATM   33  N2  UNL     1     -53.883   1.746  55.023  1.00  0.00     0.092 N
HETATM   34  C13 UNL     1     -53.316   2.790  55.824  1.00  0.00     0.298 C
HETATM   35  C14 UNL     1     -53.075   2.436  57.263  1.00  0.00     0.198 C
HETATM   36  O2  UNL     1     -54.223   1.972  57.898  1.00  0.00    -0.388 OA
HETATM   37  C15 UNL     1     -55.263   1.848  56.994  1.00  0.00     0.198 C
HETATM   38  C16 UNL     1     -54.823   0.990  55.842  1.00  0.00     0.298 C
ENDBRANCH  32  33
ENDBRANCH  31  32
ENDBRANCH  30  31
ENDBRANCH  29  30
ENDBRANCH  28  29
ENDBRANCH   2  28
TORSDOF 11
ENDMDL