MODEL 4
REMARK VINA RESULT: -7.015281998      3.003      6.461
REMARK  13 active torsions:
REMARK  status: ('A' for Active; 'I' for Inactive)
REMARK    1  A    between atoms: C2_2  and  C3_3
REMARK    2  A    between atoms: C2_2  and  C6_7
REMARK    3  A    between atoms: C3_3  and  C5_5
REMARK    4  A    between atoms: C7_9  and  O3_10
REMARK    5  A    between atoms: C16_21  and  C17_22
REMARK    6  A    between atoms: C17_22  and  C18_23
REMARK    7  A    between atoms: C18_23  and  C19_24
REMARK    8  A    between atoms: C20_25  and  C21_26
REMARK    9  A    between atoms: C28_33  and  C29_34
REMARK   10  A    between atoms: C29_34  and  C30_35
REMARK   11  A    between atoms: C31_36  and  C32_37
REMARK   12  A    between atoms: C32_37  and  C33_38
REMARK   13  A    between atoms: C33_38  and  N1_39
ROOT
HETATM    1  C6  UNL     1     -52.173  -0.496  52.938  1.00  0.00     0.162 C
HETATM    2  O2  UNL     1     -52.389   0.928  52.949  1.00  0.00    -0.350 OA
HETATM    3  C7  UNL     1     -53.668   1.256  53.397  1.00  0.00     0.270 C
HETATM    4  C9  UNL     1     -53.908   0.749  54.788  1.00  0.00     0.102 C
HETATM    5  C10 UNL     1     -54.687   1.551  55.710  1.00  0.00     0.167 C
HETATM    6  O4  UNL     1     -55.137   2.802  55.312  1.00  0.00    -0.347 OA
HETATM    7  C11 UNL     1     -55.454   3.516  56.457  1.00  0.00     0.158 C
HETATM    8  C12 UNL     1     -56.715   2.933  57.048  1.00  0.00     0.078 C
HETATM    9  C13 UNL     1     -55.595   4.965  56.082  1.00  0.00     0.078 C
HETATM   10  O5  UNL     1     -54.349   3.248  57.246  1.00  0.00    -0.348 OA
HETATM   11  C14 UNL     1     -54.118   1.847  57.055  1.00  0.00     0.159 C
HETATM   12  C15 UNL     1     -52.683   1.584  57.230  1.00  0.00     0.074 C
HETATM   13  C16 UNL     1     -52.256   0.327  56.573  1.00  0.00    -0.045 C
HETATM   14  C27 UNL     1     -52.536   0.206  55.209  1.00  0.00    -0.054 C
HETATM   15  C28 UNL     1     -52.364  -1.023  54.338  1.00  0.00     0.052 C
ENDROOT
BRANCH  13  16
HETATM   16  C17 UNL     1     -51.977  -0.790  57.573  1.00  0.00     0.063 C
BRANCH  16  17
HETATM   17  C18 UNL     1     -50.782  -0.848  58.015  1.00  0.00    -0.128 C
BRANCH  17  18
HETATM   18  C19 UNL     1     -49.471  -0.919  58.509  1.00  0.00     0.056 C
HETATM   19  C20 UNL     1     -48.585  -1.695  57.764  1.00  0.00     0.019 C
BRANCH  19  20
HETATM   20  C21 UNL     1     -47.221  -1.805  58.232  1.00  0.00    -0.036 A
HETATM   21  C22 UNL     1     -46.247  -1.674  57.270  1.00  0.00     0.011 A
HETATM   22  C23 UNL     1     -44.911  -1.814  57.590  1.00  0.00     0.001 A
HETATM   23  C24 UNL     1     -44.527  -2.101  58.845  1.00  0.00     0.000 A
HETATM   24  C25 UNL     1     -45.471  -2.254  59.870  1.00  0.00     0.001 A
HETATM   25  C26 UNL     1     -46.818  -2.090  59.493  1.00  0.00     0.011 A
ENDBRANCH  19  20
ENDBRANCH  17  18
ENDBRANCH  16  17
ENDBRANCH  13  16
BRANCH  15  26
HETATM   26  C29 UNL     1     -51.137  -1.817  54.778  1.00  0.00     0.038 C
BRANCH  26  27
HETATM   27  C30 UNL     1     -51.213  -3.243  54.579  1.00  0.00    -0.030 C
HETATM   28  C31 UNL     1     -52.216  -4.060  55.028  1.00  0.00    -0.029 C
BRANCH  28  29
HETATM   29  C32 UNL     1     -53.376  -3.512  55.734  1.00  0.00     0.054 C
BRANCH  29  30
HETATM   30  C33 UNL     1     -53.828  -4.526  56.759  1.00  0.00     0.233 C
BRANCH  30  31
HETATM   31  N1  UNL     1     -53.177  -4.319  58.019  1.00  0.00    -0.079 N
ATOM     32  H13 UNL     1     -53.791  -3.851  58.686  1.00  0.00     0.274 HD
ATOM     33  H12 UNL     1     -53.042  -5.197  58.519  1.00  0.00     0.274 HD
ATOM     34  H11 UNL     1     -52.297  -3.815  57.904  1.00  0.00     0.274 HD
ENDBRANCH  30  31
ENDBRANCH  29  30
ENDBRANCH  28  29
ENDBRANCH  26  27
ENDBRANCH  15  26
BRANCH   3  35
HETATM   35  O3  UNL     1     -53.721   2.635  53.304  1.00  0.00    -0.365 OA
HETATM   36  C8  UNL     1     -53.100   3.195  52.245  1.00  0.00     0.204 C
ENDBRANCH   3  35
BRANCH   1  37
HETATM   37  C2  UNL     1     -52.897  -1.076  51.831  1.00  0.00    -0.050 C
HETATM   38  C1  UNL     1     -52.674  -0.747  50.534  1.00  0.00     0.017 C
BRANCH  37  39
HETATM   39  C3  UNL     1     -53.863  -2.264  51.875  1.00  0.00     0.073 C
HETATM   40  C4  UNL     1     -55.074  -2.093  51.003  1.00  0.00     0.022 C
BRANCH  39  41
HETATM   41  C5  UNL     1     -53.107  -3.477  51.350  1.00  0.00     0.239 C
HETATM   42  O1  UNL     1     -53.376  -4.570  51.813  1.00  0.00    -0.306 OA
ENDBRANCH  39  41
ENDBRANCH  37  39
ENDBRANCH   1  37
TORSDOF 13
ENDMDL