MODEL 4
REMARK VINA RESULT: -7.845309759      0.703      1.524
REMARK  12 active torsions:
REMARK  status: ('A' for Active; 'I' for Inactive)
REMARK    1  A    between atoms: C2_2  and  O1_3
REMARK    2  A    between atoms: O1_3  and  C3_4
REMARK    3  A    between atoms: C3_4  and  C4_5
REMARK    4  A    between atoms: C4_5  and  C5_6
REMARK    5  A    between atoms: C5_6  and  N1_7
REMARK    6  A    between atoms: N1_7  and  C6_8
REMARK    7  A    between atoms: N1_7  and  C31_36
REMARK    8  A    between atoms: C6_8  and  C7_9
REMARK    9  A    between atoms: C8_10  and  C10_12
REMARK   10  A    between atoms: C11_13  and  C12_14
REMARK   11  A    between atoms: C31_36  and  C32_37
REMARK   12  A    between atoms: C32_37  and  O5_38
ROOT
HETATM    1  C12 UNL     1     -52.260  -2.166  57.196  1.00  0.00    -0.014 C
HETATM    2  C13 UNL     1     -52.593  -3.301  58.171  1.00  0.00     0.021 C
HETATM    3  C14 UNL     1     -52.772  -2.639  55.832  1.00  0.00    -0.006 C
HETATM    4  C15 UNL     1     -52.036  -3.813  55.284  1.00  0.00     0.011 C
HETATM    5  C16 UNL     1     -54.226  -2.857  55.924  1.00  0.00     0.006 C
HETATM    6  C17 UNL     1     -55.055  -1.789  56.512  1.00  0.00     0.017 C
HETATM    7  C18 UNL     1     -54.430  -0.983  57.606  1.00  0.00     0.014 C
HETATM    8  C19 UNL     1     -54.899  -1.548  58.941  1.00  0.00     0.023 C
HETATM    9  C20 UNL     1     -55.023   0.371  57.573  1.00  0.00     0.067 C
HETATM   10  C21 UNL     1     -54.442   1.511  57.305  1.00  0.00     0.025 C
HETATM   11  C22 UNL     1     -55.146   2.833  57.305  1.00  0.00     0.126 C
HETATM   12  C23 UNL     1     -56.571   2.741  57.607  1.00  0.00     0.165 C
HETATM   13  O2  UNL     1     -57.216   3.717  57.884  1.00  0.00    -0.294 OA
HETATM   14  C24 UNL     1     -57.267   1.428  57.580  1.00  0.00     0.120 C
HETATM   15  C25 UNL     1     -58.377   1.471  58.605  1.00  0.00     0.055 C
HETATM   16  C26 UNL     1     -57.923   1.169  56.240  1.00  0.00     0.055 C
HETATM   17  O3  UNL     1     -56.408   0.366  57.885  1.00  0.00    -0.336 OA
HETATM   18  C27 UNL     1     -53.021   1.461  56.982  1.00  0.00     0.159 C
HETATM   19  O4  UNL     1     -52.287   2.465  57.138  1.00  0.00    -0.293 OA
HETATM   20  C28 UNL     1     -52.531   0.151  56.465  1.00  0.00     0.095 C
HETATM   21  C29 UNL     1     -52.921  -0.891  57.508  1.00  0.00    -0.013 C
HETATM   22  C30 UNL     1     -52.469  -0.328  58.834  1.00  0.00     0.018 C
ENDROOT
BRANCH   1  23
HETATM   23  C11 UNL     1     -50.793  -2.145  57.172  1.00  0.00    -0.016 C
HETATM   24  C10 UNL     1     -49.846  -2.544  57.954  1.00  0.00     0.003 C
BRANCH  24  25
HETATM   25  C8  UNL     1     -48.406  -2.339  57.565  1.00  0.00    -0.061 C
HETATM   26  C7  UNL     1     -47.490  -2.300  58.471  1.00  0.00     0.024 C
HETATM   27  C9  UNL     1     -48.148  -2.211  56.128  1.00  0.00     0.048 C
BRANCH  26  28
HETATM   28  C6  UNL     1     -46.030  -2.121  58.246  1.00  0.00     0.090 C
BRANCH  28  29
HETATM   29  N1  UNL     1     -45.223  -2.370  59.359  1.00  0.00    -0.368 N
BRANCH  29  30
HETATM   30  C5  UNL     1     -45.386  -3.424  60.216  1.00  0.00     0.065 C
BRANCH  30  31
HETATM   31  C4  UNL     1     -45.222  -4.829  59.793  1.00  0.00     0.071 C
BRANCH  31  32
HETATM   32  C3  UNL     1     -44.046  -5.539  60.345  1.00  0.00     0.172 C
BRANCH  32  33
HETATM   33  O1  UNL     1     -42.810  -5.026  59.869  1.00  0.00    -0.391 OA
BRANCH  33  34
HETATM   34  C2  UNL     1     -41.740  -5.734  60.357  1.00  0.00     0.163 C
HETATM   35  C1  UNL     1     -41.636  -5.382  61.853  1.00  0.00     0.033 C
ENDBRANCH  33  34
ENDBRANCH  32  33
ENDBRANCH  31  32
ENDBRANCH  30  31
ENDBRANCH  29  30
BRANCH  29  36
HETATM   36  C31 UNL     1     -44.297  -1.328  59.722  1.00  0.00     0.153 C
BRANCH  36  37
HETATM   37  C32 UNL     1     -43.394  -1.871  60.817  1.00  0.00     0.184 C
BRANCH  37  38
HETATM   38  O5  UNL     1     -42.129  -2.205  60.333  1.00  0.00    -0.399 OA
ATOM     39  H5  UNL     1     -41.616  -2.682  60.976  1.00  0.00     0.209 HD
ENDBRANCH  37  38
ENDBRANCH  36  37
ENDBRANCH  29  36
ENDBRANCH  28  29
ENDBRANCH  26  28
ENDBRANCH  24  25
ENDBRANCH   1  23
TORSDOF 12
ENDMDL