MODEL 5
REMARK VINA RESULT: -7.053904169      3.250      5.565
REMARK  12 active torsions:
REMARK  status: ('A' for Active; 'I' for Inactive)
REMARK    1  A    between atoms: C2_2  and  O2_4
REMARK    2  A    between atoms: O2_4  and  C3_5
REMARK    3  A    between atoms: C3_5  and  C4_6
REMARK    4  A    between atoms: C3_5  and  C21_26
REMARK    5  A    between atoms: C4_6  and  C5_7
REMARK    6  A    between atoms: C5_7  and  C6_8
REMARK    7  A    between atoms: C5_7  and  C15_17
REMARK    8  A    between atoms: C7_9  and  C8_10
REMARK       I    between atoms: C15_17  and  N1_19
REMARK    9  A    between atoms: C21_26  and  N3_27
REMARK   10  A    between atoms: C21_26  and  C27_36
REMARK       I    between atoms: N3_27  and  C22_29
REMARK   11  A    between atoms: C22_29  and  O5_31
REMARK   12  A    between atoms: O5_31  and  C23_32
ROOT
HETATM    1  C4  UNL     1     -52.367  -3.518  57.725  1.00  0.00     0.079 C
ENDROOT
BRANCH   1   2
HETATM    2  C3  UNL     1     -51.990  -2.132  57.343  1.00  0.00     0.159 C
BRANCH   2   3
HETATM    3  O2  UNL     1     -51.857  -1.287  58.509  1.00  0.00    -0.314 OA
BRANCH   3   4
HETATM    4  C2  UNL     1     -52.715  -0.273  58.815  1.00  0.00     0.255 C
HETATM    5  C1  UNL     1     -53.819  -0.531  59.773  1.00  0.00     0.126 C
HETATM    6  O1  UNL     1     -52.555   0.851  58.284  1.00  0.00    -0.266 OA
ENDBRANCH   3   4
ENDBRANCH   2   3
BRANCH   2   7
HETATM    7  C21 UNL     1     -50.750  -2.009  56.495  1.00  0.00     0.120 C
BRANCH   7   8
HETATM    8  N3  UNL     1     -49.651  -2.618  57.288  1.00  0.00    -0.329 N
HETATM    9  C22 UNL     1     -48.706  -1.856  57.983  1.00  0.00     0.365 C
HETATM   10  O4  UNL     1     -48.758  -0.612  57.961  1.00  0.00    -0.238 OA
ATOM     11  H3  UNL     1     -49.583  -3.635  57.326  1.00  0.00     0.165 HD
BRANCH   9  12
HETATM   12  O5  UNL     1     -47.710  -2.499  58.695  1.00  0.00    -0.274 OA
BRANCH  12  13
HETATM   13  C23 UNL     1     -46.490  -1.923  59.007  1.00  0.00     0.149 C
HETATM   14  C24 UNL     1     -45.491  -2.618  59.515  1.00  0.00    -0.065 C
HETATM   15  C25 UNL     1     -44.198  -1.941  59.832  1.00  0.00     0.045 C
HETATM   16  C26 UNL     1     -45.588  -4.072  59.797  1.00  0.00     0.045 C
ENDBRANCH  12  13
ENDBRANCH   9  12
ENDBRANCH   7   8
BRANCH   7  17
HETATM   17  C27 UNL     1     -50.753  -2.722  55.196  1.00  0.00     0.003 C
HETATM   18  C28 UNL     1     -51.434  -2.157  54.030  1.00  0.00     0.011 C
HETATM   19  C29 UNL     1     -49.298  -3.034  54.810  1.00  0.00     0.011 C
ENDBRANCH   7  17
ENDBRANCH   2   7
ENDBRANCH   1   2
BRANCH   1  20
HETATM   20  C5  UNL     1     -53.502  -4.190  57.128  1.00  0.00     0.012 C
BRANCH  20  21
HETATM   21  C6  UNL     1     -54.444  -3.764  56.105  1.00  0.00     0.013 C
HETATM   22  C7  UNL     1     -54.932  -4.506  54.965  1.00  0.00     0.007 C
BRANCH  22  23
HETATM   23  C8  UNL     1     -54.166  -4.635  53.725  1.00  0.00    -0.062 C
HETATM   24  C9  UNL     1     -54.403  -3.850  52.695  1.00  0.00    -0.020 C
HETATM   25  C10 UNL     1     -53.740  -3.810  51.336  1.00  0.00     0.027 C
HETATM   26  C11 UNL     1     -53.852  -5.229  50.758  1.00  0.00     0.004 C
HETATM   27  C12 UNL     1     -52.751  -6.075  51.352  1.00  0.00     0.001 C
HETATM   28  C13 UNL     1     -53.322  -6.701  52.630  1.00  0.00     0.005 C
HETATM   29  C14 UNL     1     -53.134  -5.709  53.760  1.00  0.00     0.038 C
ENDBRANCH  22  23
ENDBRANCH  20  21
BRANCH  20  30
HETATM   30  C15 UNL     1     -54.315  -4.860  58.238  1.00  0.00     0.249 C
HETATM   31  O3  UNL     1     -54.691  -4.112  59.210  1.00  0.00    -0.268 OA
HETATM   32  N1  UNL     1     -54.678  -6.188  58.293  1.00  0.00    -0.345 N
HETATM   33  C16 UNL     1     -55.459  -6.676  59.438  1.00  0.00     0.156 C
HETATM   34  C20 UNL     1     -54.353  -7.161  57.302  1.00  0.00     0.156 C
HETATM   35  C17 UNL     1     -56.514  -7.664  58.999  1.00  0.00     0.291 C
HETATM   36  N2  UNL     1     -55.978  -8.743  58.225  1.00  0.00     0.087 N
HETATM   37  C18 UNL     1     -56.099 -10.028  58.887  1.00  0.00     0.310 C
HETATM   38  C19 UNL     1     -54.575  -8.530  57.941  1.00  0.00     0.291 C
ENDBRANCH  20  30
ENDBRANCH   1  20
TORSDOF 12
ENDMDL