MODEL 1
REMARK VINA RESULT: -8.879151177      0.000      0.000
REMARK  14 active torsions:
REMARK  status: ('A' for Active; 'I' for Inactive)
REMARK    1  A    between atoms: O1_2  and  C2_3
REMARK    2  A    between atoms: C2_3  and  C3_4
REMARK    3  A    between atoms: C3_4  and  C4_5
REMARK    4  A    between atoms: C4_5  and  C6_7
REMARK    5  A    between atoms: C7_8  and  C8_9
REMARK    6  A    between atoms: C9_10  and  C10_11
REMARK    7  A    between atoms: C11_12  and  C12_13
REMARK    8  A    between atoms: C13_14  and  C15_16
REMARK    9  A    between atoms: C16_17  and  C17_18
REMARK   10  A    between atoms: C17_18  and  O2_19
REMARK   11  A    between atoms: C24_28  and  C25_29
REMARK   12  A    between atoms: C25_29  and  N2_30
REMARK       I    between atoms: N2_30  and  C26_32
REMARK   13  A    between atoms: C26_32  and  O5_34
REMARK   14  A    between atoms: O5_34  and  C27_35
ROOT
HETATM    1  C4  UNL     1     -51.120  -1.821  57.597  1.00  0.00    -0.018 C
HETATM    2  C5  UNL     1     -51.157  -0.452  58.267  1.00  0.00     0.057 C
ENDROOT
BRANCH   1   3
HETATM    3  C3  UNL     1     -52.091  -2.555  57.727  1.00  0.00    -0.111 C
BRANCH   3   4
HETATM    4  C2  UNL     1     -53.259  -3.436  57.857  1.00  0.00     0.120 C
HETATM    5  C22 UNL     1     -54.563  -2.640  57.871  1.00  0.00     0.077 C
HETATM    6  C23 UNL     1     -55.312  -2.907  56.607  1.00  0.00     0.172 C
HETATM    7  O3  UNL     1     -55.688  -4.264  56.602  1.00  0.00    -0.384 OA
HETATM    8  C24 UNL     1     -54.567  -5.042  56.384  1.00  0.00     0.143 C
HETATM    9  C31 UNL     1     -53.295  -4.330  56.664  1.00  0.00     0.084 C
BRANCH   4  10
HETATM   10  O1  UNL     1     -53.237  -4.149  59.049  1.00  0.00    -0.373 OA
HETATM   11  C1  UNL     1     -53.833  -3.514  60.101  1.00  0.00     0.204 C
ENDBRANCH   4  10
BRANCH   8  12
HETATM   12  C25 UNL     1     -54.642  -6.359  57.133  1.00  0.00     0.157 C
BRANCH  12  13
HETATM   13  N2  UNL     1     -55.397  -6.239  58.359  1.00  0.00    -0.334 N
HETATM   14  C26 UNL     1     -55.237  -7.146  59.441  1.00  0.00     0.361 C
HETATM   15  O4  UNL     1     -54.410  -8.091  59.336  1.00  0.00    -0.238 OA
ATOM     16  H2  UNL     1     -56.068  -5.476  58.451  1.00  0.00     0.164 HD
BRANCH  14  17
HETATM   17  O5  UNL     1     -55.935  -7.075  60.629  1.00  0.00    -0.294 OA
BRANCH  17  18
HETATM   18  C27 UNL     1     -56.909  -8.048  60.944  1.00  0.00     0.061 C
HETATM   19  C28 UNL     1     -57.534  -8.647  59.705  1.00  0.00     0.046 C
HETATM   20  C29 UNL     1     -58.005  -7.503  61.811  1.00  0.00     0.046 C
HETATM   21  C30 UNL     1     -56.225  -9.159  61.701  1.00  0.00     0.046 C
ENDBRANCH  17  18
ENDBRANCH  14  17
ENDBRANCH  12  13
ENDBRANCH   8  12
ENDBRANCH   3   4
ENDBRANCH   1   3
BRANCH   1  22
HETATM   22  C6  UNL     1     -49.902  -2.131  56.840  1.00  0.00     0.015 C
HETATM   23  C7  UNL     1     -48.683  -2.151  57.144  1.00  0.00     0.001 C
BRANCH  23  24
HETATM   24  C8  UNL     1     -47.964  -1.887  58.349  1.00  0.00     0.000 C
HETATM   25  C9  UNL     1     -46.603  -1.987  58.315  1.00  0.00     0.000 C
BRANCH  25  26
HETATM   26  C10 UNL     1     -45.788  -1.741  59.482  1.00  0.00     0.000 C
HETATM   27  C11 UNL     1     -45.268  -2.701  60.220  1.00  0.00     0.001 C
BRANCH  27  28
HETATM   28  C12 UNL     1     -45.446  -4.098  59.959  1.00  0.00     0.007 C
HETATM   29  C13 UNL     1     -44.540  -5.048  60.122  1.00  0.00    -0.062 C
HETATM   30  C14 UNL     1     -44.914  -6.467  59.791  1.00  0.00     0.048 C
BRANCH  29  31
HETATM   31  C15 UNL     1     -43.213  -4.768  60.611  1.00  0.00     0.006 C
HETATM   32  C16 UNL     1     -42.513  -3.716  60.196  1.00  0.00     0.015 C
BRANCH  32  33
HETATM   33  C17 UNL     1     -41.146  -3.433  60.703  1.00  0.00     0.137 C
HETATM   34  C19 UNL     1     -41.064  -3.911  62.138  1.00  0.00     0.317 C
HETATM   35  N1  UNL     1     -41.344  -2.626  62.685  1.00  0.00     0.103 N
HETATM   36  C20 UNL     1     -42.317  -1.730  62.137  1.00  0.00     0.312 A
HETATM   37  C21 UNL     1     -41.112  -2.047  61.308  1.00  0.00     0.291 A
BRANCH  33  38
HETATM   38  O2  UNL     1     -40.094  -3.750  59.888  1.00  0.00    -0.377 OA
HETATM   39  C18 UNL     1     -40.412  -4.762  59.018  1.00  0.00     0.203 C
ENDBRANCH  33  38
ENDBRANCH  32  33
ENDBRANCH  29  31
ENDBRANCH  27  28
ENDBRANCH  25  26
ENDBRANCH  23  24
ENDBRANCH   1  22
TORSDOF 14
ENDMDL