MODEL 4
REMARK VINA RESULT: -6.179424253      1.874      3.240
REMARK  16 active torsions:
REMARK  status: ('A' for Active; 'I' for Inactive)
REMARK    1  A    between atoms: C2_2  and  C3_3
REMARK    2  A    between atoms: C3_3  and  C4_4
REMARK    3  A    between atoms: C4_4  and  O2_6
REMARK    4  A    between atoms: O2_6  and  C5_7
REMARK    5  A    between atoms: C7_9  and  C8_10
REMARK    6  A    between atoms: C8_10  and  O3_11
REMARK    7  A    between atoms: O3_11  and  N1_12
REMARK    8  A    between atoms: N1_12  and  C9_13
REMARK    9  A    between atoms: N1_12  and  C10_15
REMARK   10  A    between atoms: C10_15  and  C11_16
REMARK   11  A    between atoms: C19_25  and  C20_26
REMARK   12  A    between atoms: C20_26  and  C21_27
REMARK   13  A    between atoms: C21_27  and  N2_28
REMARK   14  A    between atoms: N2_28  and  C23_30
REMARK   15  A    between atoms: C23_30  and  N3_32
REMARK   16  A    between atoms: N3_32  and  C24_34
ROOT
HETATM    1  C5  UNL     1     -49.660  -2.088  57.944  1.00  0.00     0.145 C
HETATM    2  C6  UNL     1     -50.231  -0.730  58.095  1.00  0.00     0.078 C
HETATM    3  C7  UNL     1     -51.724  -0.728  57.566  1.00  0.00     0.111 C
HETATM    4  O5  UNL     1     -51.589  -1.161  56.262  1.00  0.00    -0.362 OA
HETATM    5  C14 UNL     1     -51.172  -2.451  56.091  1.00  0.00     0.064 C
HETATM    6  C15 UNL     1     -52.365  -3.278  55.626  1.00  0.00     0.046 C
HETATM    7  C16 UNL     1     -50.124  -2.509  55.029  1.00  0.00     0.046 C
HETATM    8  C17 UNL     1     -50.730  -3.048  57.411  1.00  0.00     0.072 C
HETATM    9  C18 UNL     1     -51.864  -2.927  58.340  1.00  0.00    -0.011 C
HETATM   10  C19 UNL     1     -52.407  -1.655  58.426  1.00  0.00    -0.045 C
ENDROOT
BRANCH  10  11
HETATM   11  C20 UNL     1     -53.469  -1.516  59.415  1.00  0.00     0.057 C
BRANCH  11  12
HETATM   12  C21 UNL     1     -53.892  -2.751  60.148  1.00  0.00     0.129 C
BRANCH  12  13
HETATM   13  N2  UNL     1     -55.368  -2.893  60.036  1.00  0.00    -0.362 N
HETATM   14  C22 UNL     1     -56.146  -3.208  61.226  1.00  0.00     0.152 C
BRANCH  13  15
HETATM   15  C23 UNL     1     -55.997  -2.722  58.781  1.00  0.00     0.170 C
HETATM   16  S1  UNL     1     -57.315  -1.769  58.649  1.00  0.00    -0.041 SA
BRANCH  15  17
HETATM   17  N3  UNL     1     -55.507  -3.365  57.630  1.00  0.00    -0.359 N
ATOM     18  H3  UNL     1     -54.973  -2.818  56.955  1.00  0.00     0.162 HD
BRANCH  17  19
HETATM   19  C24 UNL     1     -55.728  -4.769  57.362  1.00  0.00     0.021 C
HETATM   20  C25 UNL     1     -56.912  -5.310  58.120  1.00  0.00     0.037 C
HETATM   21  C26 UNL     1     -54.483  -5.542  57.760  1.00  0.00     0.037 C
HETATM   22  C27 UNL     1     -55.937  -4.928  55.886  1.00  0.00     0.037 C
ENDBRANCH  17  19
ENDBRANCH  15  17
ENDBRANCH  13  15
ENDBRANCH  12  13
ENDBRANCH  11  12
ENDBRANCH  10  11
BRANCH   3  23
HETATM   23  C8  UNL     1     -52.137   0.717  57.493  1.00  0.00     0.244 C
BRANCH  23  24
HETATM   24  O3  UNL     1     -53.081   1.006  56.611  1.00  0.00    -0.273 OA
BRANCH  24  25
HETATM   25  N1  UNL     1     -54.339   1.229  56.846  1.00  0.00    -0.233 N
BRANCH  25  26
HETATM   26  C9  UNL     1     -55.258   0.258  56.232  1.00  0.00     0.376 C
HETATM   27  O4  UNL     1     -54.924  -0.901  55.961  1.00  0.00    -0.281 OA
ENDBRANCH  25  26
BRANCH  25  28
HETATM   28  C10 UNL     1     -55.003   2.301  57.517  1.00  0.00     0.162 C
BRANCH  28  29
HETATM   29  C11 UNL     1     -54.763   2.527  58.951  1.00  0.00    -0.002 C
HETATM   30  C12 UNL     1     -55.116   3.859  59.527  1.00  0.00     0.011 C
HETATM   31  C13 UNL     1     -55.581   1.498  59.780  1.00  0.00     0.011 C
ENDBRANCH  28  29
ENDBRANCH  25  28
ENDBRANCH  24  25
ENDBRANCH  23  24
ENDBRANCH   3  23
BRANCH   1  32
HETATM   32  O2  UNL     1     -48.563  -2.198  57.073  1.00  0.00    -0.315 OA
BRANCH  32  33
HETATM   33  C4  UNL     1     -47.250  -1.909  57.479  1.00  0.00     0.259 C
HETATM   34  O1  UNL     1     -46.497  -1.437  56.619  1.00  0.00    -0.265 OA
BRANCH  33  35
HETATM   35  C3  UNL     1     -46.920  -2.203  58.890  1.00  0.00     0.111 C
BRANCH  35  36
HETATM   36  C2  UNL     1     -45.458  -2.556  58.989  1.00  0.00     0.005 C
HETATM   37  C1  UNL     1     -44.697  -1.496  59.725  1.00  0.00     0.005 C
ENDBRANCH  35  36
ENDBRANCH  33  35
ENDBRANCH  32  33
ENDBRANCH   1  32
TORSDOF 16
ENDMDL