MODEL 4
REMARK VINA RESULT: -4.780458381      2.941      4.668
REMARK  5 active torsions:
REMARK  status: ('A' for Active; 'I' for Inactive)
REMARK    1  A    between atoms: N1_1  and  C1_5
REMARK    2  A    between atoms: C1_5  and  C2_6
REMARK    3  A    between atoms: C2_6  and  C3_7
REMARK    4  A    between atoms: C3_7  and  N2_8
REMARK    5  A    between atoms: C6_11  and  N3_12
ROOT
HETATM    1  N2  UNL     1      10.043  15.684  16.335  1.00  0.00    -0.391 N
HETATM    2  C4  UNL     1       9.072  14.687  16.323  1.00  0.00     0.124 C
HETATM    3  C5  UNL     1       9.123  14.163  14.870  1.00  0.00     0.046 C
HETATM    4  C6  UNL     1       9.352  15.420  14.098  1.00  0.00     0.103 C
HETATM    5  C8  UNL     1      10.210  16.250  15.024  1.00  0.00     0.147 C
ENDROOT
BRANCH   1   6
HETATM    6  C3  UNL     1      10.255  16.534  17.429  1.00  0.00     0.060 C
BRANCH   6   7
HETATM    7  C2  UNL     1      11.599  16.672  18.022  1.00  0.00     0.071 C
BRANCH   7   8
HETATM    8  C1  UNL     1      11.764  17.348  19.324  1.00  0.00     0.234 C
BRANCH   8   9
HETATM    9  N1  UNL     1      12.172  18.745  18.992  1.00  0.00    -0.079 N
ATOM     10  H13 UNL     1      12.601  19.245  19.771  1.00  0.00     0.274 HD
ATOM     11  H12 UNL     1      12.971  18.802  18.361  1.00  0.00     0.274 HD
ATOM     12  H11 UNL     1      11.329  19.192  18.630  1.00  0.00     0.274 HD
ENDBRANCH   8   9
ENDBRANCH   7   8
ENDBRANCH   6   7
ENDBRANCH   1   6
BRANCH   4  13
HETATM   13  N3  UNL     1       8.122  16.085  13.811  1.00  0.00    -0.361 N
HETATM   14  C7  UNL     1       7.744  16.249  12.592  1.00  0.00     0.197 C
HETATM   15  N4  UNL     1       6.508  16.921  12.386  1.00  0.00    -0.067 NA
HETATM   16  N5  UNL     1       8.479  15.801  11.473  1.00  0.00    -0.067 NA
ATOM     17  H3  UNL     1       7.541  16.431  14.575  1.00  0.00     0.162 HD
ENDBRANCH   4  13
TORSDOF 5
ENDMDL