MODEL 1
REMARK VINA RESULT: -5.657663742      0.000      0.000
REMARK  6 active torsions:
REMARK  status: ('A' for Active; 'I' for Inactive)
REMARK    1  A    between atoms: N1_1  and  N2_4
REMARK    2  A    between atoms: N2_4  and  N3_6
REMARK    3  A    between atoms: C6_13  and  N4_14
REMARK    4  A    between atoms: N4_14  and  C7_16
REMARK    5  A    between atoms: C7_16  and  C8_17
REMARK    6  A    between atoms: C8_17  and  O1_18
ROOT
HETATM    1  N3  UNL     1       8.961  14.746  16.481  1.00  0.00    -0.293 N
ATOM      2  H3  UNL     1       8.415  15.302  15.824  1.00  0.00     0.188 HD
HETATM    3  C1  UNL     1       8.841  13.614  16.098  1.00  0.00     0.027 C
HETATM    4  C2  UNL     1       9.464  12.432  16.744  1.00  0.00     0.056 C
HETATM    5  C3  UNL     1       9.341  11.155  16.003  1.00  0.00     0.006 C
HETATM    6  C4  UNL     1       9.187  11.221  14.540  1.00  0.00     0.003 C
HETATM    7  C5  UNL     1       9.043  12.638  13.979  1.00  0.00     0.031 C
HETATM    8  C6  UNL     1       7.994  13.329  14.820  1.00  0.00     0.124 C
ENDROOT
BRANCH   1   9
HETATM    9  N2  UNL     1       9.456  15.629  17.344  1.00  0.00    -0.249 N
ATOM     10  H2  UNL     1       9.359  15.400  18.333  1.00  0.00     0.207 HD
BRANCH   9  11
HETATM   11  N1  UNL     1      10.050  16.753  17.068  1.00  0.00    -0.331 N
ATOM     12  H12 UNL     1       9.544  17.592  17.349  1.00  0.00     0.178 HD
ATOM     13  H11 UNL     1      10.952  16.879  16.610  1.00  0.00     0.178 HD
ENDBRANCH   9  11
ENDBRANCH   1   9
BRANCH   8  14
HETATM   14  N4  UNL     1       7.480  14.545  14.363  1.00  0.00    -0.410 N
ATOM     15  H4  UNL     1       6.752  15.010  14.906  1.00  0.00     0.154 HD
BRANCH  14  16
HETATM   16  C7  UNL     1       7.938  15.148  13.171  1.00  0.00     0.140 C
BRANCH  16  17
HETATM   17  C8  UNL     1       8.200  16.612  13.360  1.00  0.00     0.183 C
BRANCH  17  18
HETATM   18  O1  UNL     1       8.675  17.069  14.528  1.00  0.00    -0.399 OA
ATOM     19  H1  UNL     1       8.521  17.969  14.789  1.00  0.00     0.209 HD
ENDBRANCH  17  18
ENDBRANCH  16  17
ENDBRANCH  14  16
ENDBRANCH   8  14
TORSDOF 6
ENDMDL