MODEL 5
REMARK VINA RESULT: -4.416817961      2.067      3.862
REMARK  6 active torsions:
REMARK  status: ('A' for Active; 'I' for Inactive)
REMARK    1  A    between atoms: N1_2  and  C2_3
REMARK    2  A    between atoms: C2_3  and  C3_4
REMARK    3  A    between atoms: C3_4  and  N2_5
REMARK    4  A    between atoms: C6_11  and  N3_12
REMARK    5  A    between atoms: C6_11  and  C7_16
REMARK    6  A    between atoms: C7_16  and  C8_17
ROOT
HETATM    1  C1  UNL     1      12.387  19.368  20.318  1.00  0.00     0.272 C
HETATM    2  N1  UNL     1      12.579  17.946  20.300  1.00  0.00    -0.067 N
HETATM    3  C4  UNL     1      11.965  17.318  21.479  1.00  0.00     0.239 C
HETATM    4  C5  UNL     1      13.031  17.312  22.541  1.00  0.00     0.068 C
HETATM    5  C6  UNL     1      14.348  17.510  21.826  1.00  0.00     0.153 C
HETATM    6  C9  UNL     1      13.979  17.663  20.378  1.00  0.00     0.275 C
ENDROOT
BRANCH   5   7
HETATM    7  N3  UNL     1      14.951  18.694  22.298  1.00  0.00    -0.068 N
ATOM      8  H33 UNL     1      15.965  18.686  22.184  1.00  0.00     0.275 HD
ATOM      9  H32 UNL     1      14.748  19.497  21.704  1.00  0.00     0.275 HD
ATOM     10  H31 UNL     1      14.670  18.845  23.267  1.00  0.00     0.275 HD
ENDBRANCH   5   7
BRANCH   5  11
HETATM   11  C7  UNL     1      15.200  16.270  21.982  1.00  0.00     0.084 C
BRANCH  11  12
HETATM   12  C8  UNL     1      15.451  15.663  20.653  1.00  0.00     0.055 C
HETATM   13  N4  UNL     1      15.964  14.503  20.500  1.00  0.00    -0.411 N
ATOM     14  H42 UNL     1      16.208  13.983  21.344  1.00  0.00     0.155 HD
ATOM     15  H41 UNL     1      16.137  14.085  19.586  1.00  0.00     0.155 HD
ENDBRANCH  11  12
ENDBRANCH   5  11
BRANCH   2  16
HETATM   16  C2  UNL     1      11.980  17.302  19.159  1.00  0.00     0.264 C
BRANCH  16  17
HETATM   17  C3  UNL     1      10.478  17.215  19.253  1.00  0.00     0.257 C
BRANCH  17  18
HETATM   18  N2  UNL     1       9.882  16.781  18.005  1.00  0.00    -0.078 N
ATOM     19  H23 UNL     1      10.002  15.778  17.865  1.00  0.00     0.274 HD
ATOM     20  H22 UNL     1       8.864  16.816  18.049  1.00  0.00     0.274 HD
ATOM     21  H21 UNL     1      10.237  17.312  17.209  1.00  0.00     0.274 HD
ENDBRANCH  17  18
ENDBRANCH  16  17
ENDBRANCH   2  16
TORSDOF 6
ENDMDL