MODEL 4
REMARK VINA RESULT: -5.845425501      3.020      3.900
REMARK  6 active torsions:
REMARK  status: ('A' for Active; 'I' for Inactive)
REMARK    1  A    between atoms: N1_2  and  N5_10
REMARK    2  A    between atoms: N2_3  and  C2_5
REMARK    3  A    between atoms: C2_5  and  N3_6
REMARK    4  A    between atoms: N3_6  and  N4_7
REMARK    5  A    between atoms: N5_10  and  C3_12
REMARK    6  A    between atoms: N6_13  and  N7_15
ROOT
HETATM    1  N5  UNL     1       9.478  15.135  14.857  1.00  0.00    -0.279 N
ATOM      2  H5  UNL     1      10.061  15.581  14.149  1.00  0.00     0.189 HD
ENDROOT
BRANCH   1   3
HETATM    3  N1  UNL     1       8.417  14.298  14.502  1.00  0.00    -0.236 N
HETATM    4  C1  UNL     1       8.300  13.040  15.200  1.00  0.00     0.200 C
HETATM    5  N2  UNL     1       7.569  14.604  13.601  1.00  0.00    -0.267 N
ATOM      6  H2  UNL     1       6.803  13.975  13.361  1.00  0.00     0.190 HD
BRANCH   5   7
HETATM    7  C2  UNL     1       7.727  15.855  12.941  1.00  0.00     0.318 C
BRANCH   7   8
HETATM    8  N3  UNL     1       8.284  15.926  11.819  1.00  0.00    -0.327 NA
BRANCH   8   9
HETATM    9  N4  UNL     1       8.653  16.299  10.703  1.00  0.00    -0.279 N
ATOM     10  H42 UNL     1       7.966  17.051  10.643  1.00  0.00     0.191 HD
ATOM     11  H41 UNL     1       9.147  16.389   9.816  1.00  0.00     0.191 HD
ENDBRANCH   8   9
ENDBRANCH   7   8
ENDBRANCH   5   7
ENDBRANCH   1   3
BRANCH   1  12
HETATM   12  C3  UNL     1       9.710  15.338  16.244  1.00  0.00     0.215 C
HETATM   13  N6  UNL     1       9.846  16.553  16.658  1.00  0.00    -0.293 N
ATOM     14  H6  UNL     1       9.790  17.341  16.014  1.00  0.00     0.187 HD
BRANCH  13  15
HETATM   15  N7  UNL     1      10.073  16.747  18.023  1.00  0.00    -0.275 N
HETATM   16  C4  UNL     1      11.242  17.130  18.387  1.00  0.00     0.215 C
HETATM   17  N8  UNL     1      11.472  17.327  19.772  1.00  0.00    -0.065 NA
HETATM   18  N9  UNL     1      12.282  17.356  17.458  1.00  0.00    -0.065 NA
ATOM     19  H7  UNL     1       9.333  16.589  18.708  1.00  0.00     0.189 HD
ENDBRANCH  13  15
ENDBRANCH   1  12
TORSDOF 6
ENDMDL