MODEL 4
REMARK VINA RESULT: -5.455069385      2.663      3.273
REMARK  5 active torsions:
REMARK  status: ('A' for Active; 'I' for Inactive)
REMARK    1  A    between atoms: C3_3  and  C4_4
REMARK    2  A    between atoms: C4_4  and  N1_5
REMARK    3  A    between atoms: N1_5  and  C5_7
REMARK    4  A    between atoms: C5_7  and  C6_9
REMARK    5  A    between atoms: C6_9  and  N2_10
ROOT
HETATM    1  C1  UNL     1       9.500   9.200  12.943  1.00  0.00     0.012 C
HETATM    2  C2  UNL     1       9.729   9.901  13.898  1.00  0.00    -0.116 C
HETATM    3  C3  UNL     1      10.004  10.755  15.084  1.00  0.00     0.112 C
ENDROOT
BRANCH   3   4
HETATM    4  C4  UNL     1       8.657  11.155  15.625  1.00  0.00     0.132 C
BRANCH   4   5
HETATM    5  N1  UNL     1       8.743  12.506  16.121  1.00  0.00    -0.382 N
ATOM      6  H1  UNL     1       9.002  12.633  17.099  1.00  0.00     0.160 HD
BRANCH   5   7
HETATM    7  C5  UNL     1       8.495  13.664  15.359  1.00  0.00     0.091 C
HETATM    8  S1  UNL     1       7.124  13.811  14.501  1.00  0.00    -0.064 SA
BRANCH   7   9
HETATM    9  C6  UNL     1       9.484  14.789  15.344  1.00  0.00     0.191 C
BRANCH   9  10
HETATM   10  N2  UNL     1       9.641  15.368  16.646  1.00  0.00    -0.360 N
HETATM   11  C7  UNL     1      10.341  16.360  16.994  1.00  0.00     0.197 C
HETATM   12  N3  UNL     1      10.384  16.814  18.361  1.00  0.00    -0.067 NA
HETATM   13  N4  UNL     1      11.114  17.065  16.045  1.00  0.00    -0.067 NA
ATOM     14  H2  UNL     1       9.114  14.916  17.394  1.00  0.00     0.162 HD
ENDBRANCH   9  10
ENDBRANCH   7   9
ENDBRANCH   5   7
ENDBRANCH   4   5
ENDBRANCH   3   4
TORSDOF 5
ENDMDL