MODEL 4
REMARK VINA RESULT: -5.361666712      2.926      3.562
REMARK  5 active torsions:
REMARK  status: ('A' for Active; 'I' for Inactive)
REMARK    1  A    between atoms: N3_4  and  C2_6
REMARK    2  A    between atoms: C2_6  and  C3_7
REMARK    3  A    between atoms: C3_7  and  S1_8
REMARK    4  A    between atoms: S1_8  and  N4_9
REMARK    5  A    between atoms: S1_8  and  C4_12
ROOT
HETATM    1  C3  UNL     1       8.161  13.793  14.724  1.00  0.00     0.104 C
ENDROOT
BRANCH   1   2
HETATM    2  C2  UNL     1       8.918  15.090  14.759  1.00  0.00     0.133 C
BRANCH   2   3
HETATM    3  N3  UNL     1       9.422  15.303  16.096  1.00  0.00    -0.366 N
HETATM    4  C1  UNL     1      10.218  16.280  16.307  1.00  0.00     0.196 C
HETATM    5  N1  UNL     1      10.752  16.547  17.607  1.00  0.00    -0.067 NA
HETATM    6  N2  UNL     1      10.581  17.117  15.231  1.00  0.00    -0.067 NA
ATOM      7  H3  UNL     1       9.147  14.685  16.859  1.00  0.00     0.161 HD
ENDBRANCH   2   3
ENDBRANCH   1   2
BRANCH   1   8
HETATM    8  S1  UNL     1       9.136  12.470  15.396  1.00  0.00    -0.129 SA
BRANCH   8   9
HETATM    9  N4  UNL     1       9.091  12.567  17.095  1.00  0.00    -0.383 NA
ATOM     10  H42 UNL     1       8.315  13.117  17.464  1.00  0.00     0.163 HD
ATOM     11  H41 UNL     1       9.966  12.976  17.423  1.00  0.00     0.163 HD
ENDBRANCH   8   9
BRANCH   8  12
HETATM   12  C4  UNL     1       8.548  10.954  14.745  1.00  0.00     0.057 A
HETATM   13  C5  UNL     1       9.023   9.642  15.236  1.00  0.00     0.017 A
HETATM   14  C6  UNL     1       9.598  10.155  13.974  1.00  0.00     0.017 A
ENDBRANCH   8  12
ENDBRANCH   1   8
TORSDOF 5
ENDMDL