MODEL 1
REMARK VINA RESULT: -5.014284863      0.000      0.000
REMARK  4 active torsions:
REMARK  status: ('A' for Active; 'I' for Inactive)
REMARK       I    between atoms: C1_4  and  N2_5
REMARK       I    between atoms: C1_4  and  N4_12
REMARK    1  A    between atoms: N2_5  and  C2_7
REMARK    2  A    between atoms: C2_7  and  C3_8
REMARK    3  A    between atoms: C3_8  and  N3_9
REMARK    4  A    between atoms: N4_12  and  C6_14
ROOT
HETATM    1  N1  UNL     1       7.905  13.356  15.524  1.00  0.00    -0.235 N
ATOM      2  H11 UNL     1       7.985  12.606  16.211  1.00  0.00     0.174 HD
ATOM      3  H12 UNL     1       7.298  14.157  15.704  1.00  0.00     0.174 HD
HETATM    4  C1  UNL     1       8.580  13.284  14.430  1.00  0.00     0.667 C
HETATM    5  N2  UNL     1       8.468  14.331  13.472  1.00  0.00    -0.225 N
ATOM      6  H2  UNL     1       8.933  14.220  12.571  1.00  0.00     0.177 HD
HETATM    7  N4  UNL     1       9.431  12.162  14.178  1.00  0.00    -0.222 N
ATOM      8  H4  UNL     1      10.327  12.297  13.710  1.00  0.00     0.178 HD
ENDROOT
BRANCH   5   9
HETATM    9  C2  UNL     1       7.728  15.540  13.719  1.00  0.00     0.168 C
BRANCH   9  10
HETATM   10  C3  UNL     1       8.695  16.658  14.013  1.00  0.00     0.292 C
BRANCH  10  11
HETATM   11  N3  UNL     1       9.921  16.088  14.544  1.00  0.00     0.093 N
HETATM   12  C4  UNL     1      11.024  16.950  14.884  1.00  0.00     0.302 A
HETATM   13  C5  UNL     1      10.163  16.360  15.928  1.00  0.00     0.302 A
ENDBRANCH  10  11
ENDBRANCH   9  10
ENDBRANCH   5   9
BRANCH   7  14
HETATM   14  C6  UNL     1       9.029  10.858  14.580  1.00  0.00     0.099 A
HETATM   15  C7  UNL     1       9.982   9.860  15.117  1.00  0.00     0.028 A
HETATM   16  C8  UNL     1       9.566   9.729  13.700  1.00  0.00     0.028 A
ENDBRANCH   7  14
TORSDOF 4
ENDMDL