MODEL 3
REMARK VINA RESULT: -4.544332691      7.779      9.101
REMARK  7 active torsions:
REMARK  status: ('A' for Active; 'I' for Inactive)
REMARK    1  A    between atoms: O1_1  and  C1_3
REMARK    2  A    between atoms: C1_3  and  C2_4
REMARK    3  A    between atoms: C2_4  and  N1_5
REMARK    4  A    between atoms: N1_5  and  C3_6
REMARK    5  A    between atoms: C3_6  and  C4_7
REMARK    6  A    between atoms: C8_11  and  O2_12
REMARK    7  A    between atoms: C9_14  and  O3_15
ROOT
HETATM    1  N1  UNL     1      14.055  17.478  20.728  1.00  0.00    -0.034 N
HETATM    2  C7  UNL     1      14.627  16.308  20.131  1.00  0.00     0.276 C
HETATM    3  C8  UNL     1      15.796  16.326  21.092  1.00  0.00     0.201 C
HETATM    4  C9  UNL     1      15.274  17.663  21.486  1.00  0.00     0.354 C
ENDROOT
BRANCH   1   5
HETATM    5  C2  UNL     1      13.744  18.588  19.921  1.00  0.00     0.266 C
BRANCH   5   6
HETATM    6  C1  UNL     1      13.989  18.445  18.454  1.00  0.00     0.192 C
BRANCH   6   7
HETATM    7  O1  UNL     1      15.186  19.144  18.172  1.00  0.00    -0.399 OA
ATOM      8  H1  UNL     1      15.820  18.876  18.828  1.00  0.00     0.209 HD
ENDBRANCH   6   7
ENDBRANCH   5   6
ENDBRANCH   1   5
BRANCH   1   9
HETATM    9  C3  UNL     1      12.904  17.093  21.534  1.00  0.00     0.245 C
BRANCH   9  10
HETATM   10  C4  UNL     1      11.831  18.152  21.530  1.00  0.00     0.012 A
HETATM   11  C5  UNL     1      10.901  18.080  22.716  1.00  0.00     0.007 A
HETATM   12  C6  UNL     1      10.417  17.752  21.352  1.00  0.00     0.007 A
ENDBRANCH   9  10
ENDBRANCH   1   9
BRANCH   4  13
HETATM   13  O3  UNL     1      16.108  18.680  21.056  1.00  0.00    -0.367 OA
ATOM     14  H3  UNL     1      16.982  18.419  20.789  1.00  0.00     0.212 HD
ENDBRANCH   4  13
BRANCH   3  15
HETATM   15  O2  UNL     1      15.687  15.410  22.119  1.00  0.00    -0.389 OA
ATOM     16  H2  UNL     1      16.520  15.161  22.501  1.00  0.00     0.210 HD
ENDBRANCH   3  15
TORSDOF 7
ENDMDL