MODEL 1
REMARK VINA RESULT: -5.039302127      0.000      0.000
REMARK  5 active torsions:
REMARK  status: ('A' for Active; 'I' for Inactive)
REMARK       I    between atoms: C1_4  and  N3_6
REMARK    1  A    between atoms: N4_9  and  C4_10
REMARK    2  A    between atoms: C4_10  and  C5_11
REMARK    3  A    between atoms: C5_11  and  C6_12
REMARK    4  A    between atoms: C6_12  and  C7_13
REMARK    5  A    between atoms: C7_13  and  N5_14
ROOT
HETATM    1  N1  UNL     1       9.021  16.362  13.281  1.00  0.00    -0.374 N
ATOM      2  H11 UNL     1       8.374  15.722  12.820  1.00  0.00     0.158 HD
ATOM      3  H12 UNL     1       9.358  17.223  12.851  1.00  0.00     0.158 HD
HETATM    4  C1  UNL     1       9.401  16.007  14.479  1.00  0.00     0.185 C
HETATM    5  N2  UNL     1      10.311  16.907  15.127  1.00  0.00    -0.064 NA
HETATM    6  N3  UNL     1       8.936  14.817  15.072  1.00  0.00    -0.338 N
HETATM    7  C2  UNL     1       8.961  14.472  16.471  1.00  0.00     0.147 C
HETATM    8  C3  UNL     1       9.275  12.950  16.376  1.00  0.00     0.143 C
HETATM    9  N4  UNL     1       8.742  12.571  15.161  1.00  0.00    -0.376 N
HETATM   10  C8  UNL     1       8.341  13.713  14.376  1.00  0.00     0.250 C
ENDROOT
BRANCH   9  11
HETATM   11  C4  UNL     1       8.154  11.373  14.823  1.00  0.00     0.060 C
BRANCH  11  12
HETATM   12  C5  UNL     1       8.674  10.184  15.528  1.00  0.00     0.046 C
BRANCH  12  13
HETATM   13  C6  UNL     1       9.347   9.200  14.657  1.00  0.00     0.032 C
BRANCH  13  14
HETATM   14  C7  UNL     1       9.684   9.731  13.277  1.00  0.00     0.230 C
BRANCH  14  15
HETATM   15  N5  UNL     1       9.626   8.663  12.291  1.00  0.00    -0.079 N
ATOM     16  H53 UNL     1      10.373   7.981  12.426  1.00  0.00     0.274 HD
ATOM     17  H52 UNL     1       8.829   8.046  12.445  1.00  0.00     0.274 HD
ATOM     18  H51 UNL     1       9.631   9.047  11.346  1.00  0.00     0.274 HD
ENDBRANCH  14  15
ENDBRANCH  13  14
ENDBRANCH  12  13
ENDBRANCH  11  12
ENDBRANCH   9  11
TORSDOF 5
ENDMDL