MODEL 4
REMARK VINA RESULT: -8.094108930      3.339      4.369
REMARK  4 active torsions:
REMARK  status: ('A' for Active; 'I' for Inactive)
REMARK    1  A    between atoms: C1_2  and  C2_4
REMARK    2  A    between atoms: C4_7  and  N1_8
REMARK    3  A    between atoms: C5_10  and  N2_11
REMARK    4  A    between atoms: C7_13  and  O3_14
ROOT
HETATM    1  N2  UNL     1     -88.665  -3.651   3.003  1.00  0.00    -0.311 N
HETATM    2  C6  UNL     1     -87.595  -4.120   2.143  1.00  0.00     0.165 C
HETATM    3  C7  UNL     1     -87.099  -5.327   2.919  1.00  0.00     0.154 C
HETATM    4  C8  UNL     1     -88.407  -6.007   3.266  1.00  0.00     0.072 C
HETATM    5  C9  UNL     1     -88.281  -6.874   4.497  1.00  0.00     0.025 C
HETATM    6  C10 UNL     1     -87.928  -8.226   3.866  1.00  0.00     0.043 C
HETATM    7  C11 UNL     1     -88.850  -8.290   2.687  1.00  0.00     0.114 C
HETATM    8 CL1  UNL     1     -90.439  -8.876   3.254  1.00  0.00    -0.102 Cl
HETATM    9 CL2  UNL     1     -88.260  -9.423   1.457  1.00  0.00    -0.102 Cl
HETATM   10  C12 UNL     1     -88.907  -6.891   2.168  1.00  0.00     0.064 C
HETATM   11  C13 UNL     1     -89.292  -4.826   3.504  1.00  0.00     0.236 C
HETATM   12  O4  UNL     1     -90.428  -4.794   4.057  1.00  0.00    -0.272 OA
ENDROOT
BRANCH   1  13
HETATM   13  C5  UNL     1     -88.988  -2.290   3.266  1.00  0.00     0.187 C
HETATM   14  N1  UNL     1     -89.423  -1.928   4.398  1.00  0.00    -0.332 N
ATOM     15  H1  UNL     1     -89.534  -2.646   5.114  1.00  0.00     0.168 HD
BRANCH  14  16
HETATM   16  C4  UNL     1     -89.768  -0.591   4.744  1.00  0.00     0.150 A
HETATM   17  S1  UNL     1     -91.099   0.290   4.144  1.00  0.00    -0.063 SA
HETATM   18  C3  UNL     1     -90.849   1.754   4.992  1.00  0.00     0.090 A
HETATM   19  C2  UNL     1     -89.711   1.462   5.715  1.00  0.00     0.118 A
HETATM   20  N3  UNL     1     -89.205   0.275   5.557  1.00  0.00    -0.331 N
ATOM     21  H3  UNL     1     -88.363   0.013   6.070  1.00  0.00     0.168 HD
BRANCH  19  22
HETATM   22  C1  UNL     1     -89.119   2.462   6.610  1.00  0.00     0.227 C
HETATM   23  O1  UNL     1     -89.657   3.573   6.797  1.00  0.00    -0.643 OA
HETATM   24  O2  UNL     1     -87.940   2.190   7.274  1.00  0.00    -0.643 OA
ENDBRANCH  19  22
ENDBRANCH  14  16
ENDBRANCH   1  13
BRANCH   3  25
HETATM   25  O3  UNL     1     -86.513  -4.865   4.082  1.00  0.00    -0.393 OA
ATOM     26  H3  UNL     1     -86.146  -5.614   4.536  1.00  0.00     0.210 HD
ENDBRANCH   3  25
TORSDOF 4
ENDMDL