MODEL 1
REMARK VINA RESULT: -8.894521901      0.000      0.000
REMARK  4 active torsions:
REMARK  status: ('A' for Active; 'I' for Inactive)
REMARK    1  A    between atoms: C1_2  and  O2_3
REMARK       I    between atoms: C1_2  and  N2_16
REMARK    2  A    between atoms: O2_3  and  N1_4
REMARK    3  A    between atoms: C2_6  and  C3_8
REMARK    4  A    between atoms: C3_8  and  O3_9
ROOT
HETATM    1  N1  UNL     1     -88.347  -1.780   3.489  1.00  0.00    -0.250 N
ATOM      2  H1  UNL     1     -88.548  -0.883   3.047  1.00  0.00     0.195 HD
HETATM    3  C2  UNL     1     -88.272  -2.795   2.726  1.00  0.00     0.113 C
HETATM    4 BR1  UNL     1     -88.529  -2.607   0.865  1.00  0.00    -0.031 Br
ENDROOT
BRANCH   1   5
HETATM    5  O2  UNL     1     -88.183  -1.778   4.841  1.00  0.00    -0.180 OA
BRANCH   5   6
HETATM    6  C1  UNL     1     -87.835  -0.650   5.567  1.00  0.00     0.396 C
HETATM    7  O1  UNL     1     -86.710  -0.631   6.124  1.00  0.00    -0.235 OA
HETATM    8  N2  UNL     1     -88.723   0.474   5.686  1.00  0.00    -0.232 N
HETATM    9  C9  UNL     1     -89.925   0.465   5.096  1.00  0.00     0.129 A
HETATM   10  C13 UNL     1     -88.343   1.547   6.401  1.00  0.00     0.256 A
HETATM   11  C10 UNL     1     -90.791   1.536   5.201  1.00  0.00     0.050 A
HETATM   12 CL1  UNL     1     -92.375   1.504   4.413  1.00  0.00    -0.083 Cl
HETATM   13  C11 UNL     1     -90.397   2.636   5.936  1.00  0.00     0.031 A
HETATM   14  C12 UNL     1     -89.165   2.647   6.542  1.00  0.00     0.077 A
HETATM   15  O4  UNL     1     -87.218   1.575   6.964  1.00  0.00    -0.268 OA
ENDBRANCH   5   6
ENDBRANCH   1   5
BRANCH   3  16
HETATM   16  C3  UNL     1     -87.985  -4.126   3.279  1.00  0.00     0.108 C
HETATM   17  C4  UNL     1     -89.223  -4.584   4.023  1.00  0.00     0.045 C
HETATM   18  C5  UNL     1     -88.933  -5.988   4.514  1.00  0.00     0.003 C
HETATM   19  C6  UNL     1     -88.966  -6.859   3.252  1.00  0.00     0.000 C
HETATM   20  C7  UNL     1     -87.772  -6.483   2.435  1.00  0.00     0.003 C
HETATM   21  C8  UNL     1     -87.650  -5.040   2.126  1.00  0.00     0.045 C
BRANCH  16  22
HETATM   22  O3  UNL     1     -86.948  -4.116   4.222  1.00  0.00    -0.383 OA
ATOM     23  H3  UNL     1     -86.111  -3.863   3.850  1.00  0.00     0.211 HD
ENDBRANCH  16  22
ENDBRANCH   3  16
TORSDOF 4
ENDMDL