MODEL 3
REMARK VINA RESULT: -8.629009331      2.866      4.899
REMARK  4 active torsions:
REMARK  status: ('A' for Active; 'I' for Inactive)
REMARK    1  A    between atoms: O1_2  and  C2_3
REMARK    2  A    between atoms: C4_6  and  C5_7
REMARK    3  A    between atoms: N1_11  and  O3_13
REMARK    4  A    between atoms: C13_22  and  O5_24
ROOT
HETATM    1  C5  UNL     1     -88.161  -6.176   2.254  1.00  0.00     0.006 C
HETATM    2  C6  UNL     1     -87.859  -6.729   3.650  1.00  0.00     0.019 C
HETATM    3  C7  UNL     1     -87.513  -7.184   1.331  1.00  0.00     0.070 C
HETATM    4  C8  UNL     1     -86.041  -7.015   1.260  1.00  0.00     0.039 C
HETATM    5  N1  UNL     1     -85.356  -7.969   0.761  1.00  0.00    -0.275 N
ATOM      6  H1  UNL     1     -84.342  -7.871   0.704  1.00  0.00     0.193 HD
HETATM    7  C9  UNL     1     -85.302  -5.821   1.725  1.00  0.00     0.175 C
HETATM    8  C10 UNL     1     -85.448  -4.756   0.660  1.00  0.00     0.120 C
HETATM    9  C11 UNL     1     -86.931  -4.403   0.874  1.00  0.00     0.272 C
HETATM   10  F1  UNL     1     -87.576  -4.821  -0.232  1.00  0.00    -0.203 F
HETATM   11  F2  UNL     1     -86.951  -2.996   0.832  1.00  0.00    -0.203 F
HETATM   12  C12 UNL     1     -87.277  -4.941   2.183  1.00  0.00     0.204 C
HETATM   13  O4  UNL     1     -86.029  -5.272   2.771  1.00  0.00    -0.368 OA
ENDROOT
BRANCH   1  14
HETATM   14  C4  UNL     1     -89.575  -5.929   1.971  1.00  0.00     0.103 C
HETATM   15  C3  UNL     1     -90.214  -4.852   2.786  1.00  0.00     0.164 C
HETATM   16  C2  UNL     1     -91.511  -4.311   2.298  1.00  0.00     0.198 C
HETATM   17  O2  UNL     1     -89.781  -4.376   3.808  1.00  0.00    -0.295 OA
HETATM   18  C16 UNL     1     -92.141  -5.203   1.266  1.00  0.00    -0.012 C
HETATM   19  C15 UNL     1     -91.856  -6.642   1.353  1.00  0.00     0.050 C
HETATM   20  C17 UNL     1     -93.662  -5.024   1.474  1.00  0.00     0.018 C
HETATM   21  C18 UNL     1     -91.897  -4.671  -0.152  1.00  0.00     0.018 C
HETATM   22  C13 UNL     1     -90.562  -7.050   2.029  1.00  0.00     0.066 C
HETATM   23  C14 UNL     1     -90.908  -7.517   3.411  1.00  0.00     0.046 C
BRANCH  16  24
HETATM   24  O1  UNL     1     -91.230  -3.102   1.660  1.00  0.00    -0.382 OA
HETATM   25  C1  UNL     1     -91.740  -2.005   2.379  1.00  0.00     0.202 C
ENDBRANCH  16  24
BRANCH  22  26
HETATM   26  O5  UNL     1     -90.069  -8.128   1.308  1.00  0.00    -0.389 OA
ATOM     27  H5  UNL     1     -90.755  -8.779   1.213  1.00  0.00     0.210 HD
ENDBRANCH  22  26
ENDBRANCH   1  14
BRANCH   5  28
HETATM   28  O3  UNL     1     -85.937  -9.117   0.302  1.00  0.00    -0.290 OA
ATOM     29  H3  UNL     1     -85.476  -9.723  -0.265  1.00  0.00     0.244 HD
ENDBRANCH   5  28
TORSDOF 4
ENDMDL