MODEL 4
REMARK VINA RESULT: -8.595688538      5.809      8.399
REMARK  5 active torsions:
REMARK  status: ('A' for Active; 'I' for Inactive)
REMARK    1  A    between atoms: O1_2  and  C2_3
REMARK    2  A    between atoms: C4_6  and  O2_7
REMARK    3  A    between atoms: C5_9  and  O3_10
REMARK    4  A    between atoms: C10_17  and  C11_18
REMARK    5  A    between atoms: C12_19  and  C14_21
ROOT
HETATM    1  C2  UNL     1     -87.388  -5.636  -1.480  1.00  0.00     0.102 A
HETATM    2  C3  UNL     1     -86.420  -6.375  -2.176  1.00  0.00     0.103 A
HETATM    3 CL1  UNL     1     -85.964  -5.796  -3.752  1.00  0.00    -0.078 Cl
HETATM    4  C4  UNL     1     -85.869  -7.506  -1.610  1.00  0.00     0.124 A
HETATM    5  C5  UNL     1     -86.252  -7.938  -0.359  1.00  0.00     0.107 A
HETATM    6  C6  UNL     1     -87.204  -7.216   0.330  1.00  0.00    -0.009 A
HETATM    7  C7  UNL     1     -87.776  -6.052  -0.244  1.00  0.00     0.022 A
HETATM    8  C8  UNL     1     -88.797  -5.450   0.609  1.00  0.00     0.105 C
HETATM    9  C9  UNL     1     -89.455  -4.194   0.218  1.00  0.00     0.053 C
HETATM   10  O4  UNL     1     -89.841  -6.407   0.650  1.00  0.00    -0.364 OA
HETATM   11  C10 UNL     1     -89.847  -7.036   1.848  1.00  0.00     0.152 C
HETATM   12  C15 UNL     1     -88.471  -6.811   2.456  1.00  0.00     0.044 C
HETATM   13  C16 UNL     1     -87.547  -7.732   1.661  1.00  0.00     0.051 C
HETATM   14  C17 UNL     1     -88.201  -5.396   2.005  1.00  0.00     0.128 C
HETATM   15 CL2  UNL     1     -88.850  -4.143   3.026  1.00  0.00    -0.121 Cl
ENDROOT
BRANCH  11  16
HETATM   16  C11 UNL     1     -90.936  -6.576   2.701  1.00  0.00     0.019 C
HETATM   17  C12 UNL     1     -91.339  -7.194   3.775  1.00  0.00     0.013 C
HETATM   18  C13 UNL     1     -92.485  -6.607   4.574  1.00  0.00     0.055 C
BRANCH  17  19
HETATM   19  C14 UNL     1     -90.760  -8.414   4.272  1.00  0.00     0.204 C
HETATM   20  O5  UNL     1     -91.048  -9.582   3.925  1.00  0.00    -0.644 OA
HETATM   21  O6  UNL     1     -89.752  -8.327   5.259  1.00  0.00    -0.644 OA
ENDBRANCH  17  19
ENDBRANCH  11  16
BRANCH   1  22
HETATM   22  O1  UNL     1     -87.883  -4.537  -2.094  1.00  0.00    -0.353 OA
HETATM   23  C1  UNL     1     -87.237  -3.271  -2.151  1.00  0.00     0.210 C
ENDBRANCH   1  22
BRANCH   5  24
HETATM   24  O3  UNL     1     -85.666  -9.094   0.179  1.00  0.00    -0.357 OA
ATOM     25  H3  UNL     1     -86.161  -9.623   0.793  1.00  0.00     0.217 HD
ENDBRANCH   5  24
BRANCH   4  26
HETATM   26  O2  UNL     1     -84.910  -8.207  -2.343  1.00  0.00    -0.356 OA
ATOM     27  H2  UNL     1     -84.629  -9.054  -2.017  1.00  0.00     0.218 HD
ENDBRANCH   4  26
TORSDOF 5
ENDMDL