MODEL 4
REMARK VINA RESULT: -7.328707830      6.331      9.333
REMARK  4 active torsions:
REMARK  status: ('A' for Active; 'I' for Inactive)
REMARK    1  A    between atoms: O1_1  and  N1_3
REMARK    2  A    between atoms: C1_4  and  C2_5
REMARK    3  A    between atoms: C6_16  and  C7_17
REMARK    4  A    between atoms: C7_17  and  O3_18
ROOT
HETATM    1  N1  UNL     1     -86.753  -5.532  -1.097  1.00  0.00    -0.187 N
HETATM    2  C1  UNL     1     -87.704  -4.660  -1.326  1.00  0.00     0.185 A
HETATM    3  N2  UNL     1     -88.279  -4.982  -2.546  1.00  0.00    -0.280 N
ATOM      4  H2  UNL     1     -89.047  -4.483  -2.995  1.00  0.00     0.188 HD
HETATM    5  N3  UNL     1     -87.661  -6.044  -3.027  1.00  0.00    -0.283 N
ATOM      6  H3  UNL     1     -87.868  -6.508  -3.912  1.00  0.00     0.188 HD
HETATM    7  C6  UNL     1     -86.725  -6.401  -2.165  1.00  0.00     0.161 A
ENDROOT
BRANCH   2   8
HETATM    8  C2  UNL     1     -88.185  -3.484  -0.586  1.00  0.00     0.141 A
HETATM    9  O2  UNL     1     -89.459  -3.325  -0.208  1.00  0.00    -0.298 OA
HETATM   10  C3  UNL     1     -89.666  -2.229   0.419  1.00  0.00     0.123 A
HETATM   11 BR1  UNL     1     -91.305  -1.536   1.161  1.00  0.00    -0.023 Br
HETATM   12  C4  UNL     1     -88.472  -1.570   0.493  1.00  0.00     0.067 A
HETATM   13  C5  UNL     1     -87.523  -2.383  -0.154  1.00  0.00     0.052 A
HETATM   14 BR2  UNL     1     -85.695  -1.875  -0.254  1.00  0.00    -0.048 Br
ENDBRANCH   2   8
BRANCH   1  15
HETATM   15  O1  UNL     1     -85.903  -5.582  -0.030  1.00  0.00    -0.280 OA
ATOM     16  H1  UNL     1     -85.042  -5.980   0.011  1.00  0.00     0.245 HD
ENDBRANCH   1  15
BRANCH   7  17
HETATM   17  C7  UNL     1     -85.797  -7.527  -2.283  1.00  0.00     0.119 C
HETATM   18  C8  UNL     1     -85.862  -8.265  -3.604  1.00  0.00     0.046 C
HETATM   19  C9  UNL     1     -84.331  -8.335  -3.563  1.00  0.00     0.007 C
HETATM   20  C10 UNL     1     -84.363  -7.119  -2.661  1.00  0.00     0.046 C
BRANCH  17  21
HETATM   21  O3  UNL     1     -85.725  -8.370  -1.183  1.00  0.00    -0.382 OA
ATOM     22  H3  UNL     1     -86.238  -8.110  -0.427  1.00  0.00     0.211 HD
ENDBRANCH  17  21
ENDBRANCH   7  17
TORSDOF 4
ENDMDL