MODEL 2
REMARK VINA RESULT: -9.699995480      3.546      5.919
REMARK  4 active torsions:
REMARK  status: ('A' for Active; 'I' for Inactive)
REMARK    1  A    between atoms: O1_2  and  C2_3
REMARK    2  A    between atoms: N1_15  and  O3_17
REMARK    3  A    between atoms: C14_22  and  C15_23
REMARK    4  A    between atoms: C15_23  and  O4_25
ROOT
HETATM    1  C2  UNL     1     -90.103  -7.060   2.539  1.00  0.00     0.179 C
HETATM    2  C3  UNL     1     -91.038  -5.941   2.792  1.00  0.00     0.073 C
HETATM    3  C4  UNL     1     -90.510  -4.864   3.689  1.00  0.00     0.057 C
HETATM    4  C5  UNL     1     -89.267  -4.314   3.048  1.00  0.00     0.179 C
HETATM    5  O2  UNL     1     -89.740  -3.494   1.960  1.00  0.00    -0.327 OA
HETATM    6  C6  UNL     1     -90.246  -2.307   2.506  1.00  0.00     0.083 A
HETATM    7  C7  UNL     1     -91.161  -1.388   2.036  1.00  0.00     0.038 A
HETATM    8  C8  UNL     1     -91.517  -0.270   2.757  1.00  0.00     0.003 A
HETATM    9  C9  UNL     1     -90.918  -0.095   3.995  1.00  0.00     0.001 A
HETATM   10  C10 UNL     1     -90.012  -0.999   4.469  1.00  0.00     0.016 A
HETATM   11  C11 UNL     1     -89.659  -2.122   3.733  1.00  0.00     0.025 A
HETATM   12  C12 UNL     1     -88.755  -3.244   3.945  1.00  0.00     0.086 C
HETATM   13  N1  UNL     1     -87.757  -3.240   4.747  1.00  0.00    -0.269 N
ATOM     14  H1  UNL     1     -87.176  -4.074   4.833  1.00  0.00     0.194 HD
HETATM   15  C13 UNL     1     -88.297  -5.298   2.581  1.00  0.00     0.295 C
HETATM   16  F1  UNL     1     -87.064  -5.058   3.194  1.00  0.00    -0.201 F
HETATM   17  F2  UNL     1     -88.050  -5.085   1.222  1.00  0.00    -0.201 F
HETATM   18  C14 UNL     1     -88.663  -6.766   2.847  1.00  0.00     0.111 C
HETATM   19  C17 UNL     1     -88.179  -7.213   4.186  1.00  0.00     0.026 C
HETATM   20  C18 UNL     1     -89.081  -7.973   5.062  1.00  0.00     0.028 C
HETATM   21  C19 UNL     1     -90.503  -8.102   4.579  1.00  0.00     0.171 C
HETATM   22  O5  UNL     1     -90.538  -8.184   3.211  1.00  0.00    -0.354 OA
ENDROOT
BRANCH  13  23
HETATM   23  O3  UNL     1     -87.461  -2.131   5.488  1.00  0.00    -0.290 OA
ATOM     24  H3  UNL     1     -87.906  -1.307   5.330  1.00  0.00     0.244 HD
ENDBRANCH  13  23
BRANCH  18  25
HETATM   25  C15 UNL     1     -87.826  -7.507   1.815  1.00  0.00     0.134 C
HETATM   26  C16 UNL     1     -88.161  -8.943   1.638  1.00  0.00     0.040 C
BRANCH  25  27
HETATM   27  O4  UNL     1     -86.482  -7.366   2.146  1.00  0.00    -0.395 OA
ATOM     28  H4  UNL     1     -85.956  -7.734   1.446  1.00  0.00     0.210 HD
ENDBRANCH  25  27
ENDBRANCH  18  25
BRANCH   1  29
HETATM   29  O1  UNL     1     -90.210  -7.420   1.180  1.00  0.00    -0.359 OA
HETATM   30  C1  UNL     1     -91.292  -6.815   0.569  1.00  0.00     0.205 C
ENDBRANCH   1  29
TORSDOF 4
ENDMDL