MODEL 3
REMARK VINA RESULT: -8.838903476      1.275      1.342
REMARK  4 active torsions:
REMARK  status: ('A' for Active; 'I' for Inactive)
REMARK    1  A    between atoms: C1_2  and  C2_3
REMARK       I    between atoms: C1_2  and  N1_9
REMARK    2  A    between atoms: N2_12  and  N3_13
REMARK    3  A    between atoms: C8_14  and  O2_15
REMARK    4  A    between atoms: C11_19  and  O3_20
ROOT
HETATM    1  O1  UNL     1     -89.245  -4.319  -0.646  1.00  0.00    -0.267 OA
HETATM    2  C1  UNL     1     -89.082  -4.681   0.582  1.00  0.00     0.262 C
HETATM    3  N1  UNL     1     -89.471  -3.823   1.610  1.00  0.00    -0.344 N
HETATM    4  C6  UNL     1     -89.299  -4.116   2.985  1.00  0.00     0.147 C
HETATM    5  C7  UNL     1     -89.656  -2.969   3.898  1.00  0.00     0.163 C
HETATM    6  N2  UNL     1     -89.489  -1.661   3.337  1.00  0.00    -0.314 N
HETATM    7  C15 UNL     1     -89.260  -1.488   1.924  1.00  0.00     0.163 C
HETATM    8  C16 UNL     1     -90.114  -2.553   1.213  1.00  0.00     0.147 C
ENDROOT
BRANCH   6   9
HETATM    9  N3  UNL     1     -89.560  -0.549   4.233  1.00  0.00    -0.213 N
HETATM   10  C8  UNL     1     -90.585   0.279   4.457  1.00  0.00     0.170 A
HETATM   11  C9  UNL     1     -90.267   1.229   5.414  1.00  0.00     0.005 A
HETATM   12  C10 UNL     1     -88.982   0.979   5.802  1.00  0.00     0.005 A
HETATM   13  C14 UNL     1     -90.811   2.396   6.157  1.00  0.00     0.044 C
HETATM   14  C11 UNL     1     -88.562  -0.130   5.057  1.00  0.00     0.170 A
HETATM   15  C12 UNL     1     -88.539   1.959   6.831  1.00  0.00     0.044 C
HETATM   16  C13 UNL     1     -89.597   3.036   6.746  1.00  0.00     0.009 C
BRANCH  10  17
HETATM   17  O2  UNL     1     -91.819   0.248   3.852  1.00  0.00    -0.344 OA
ATOM     18  H2  UNL     1     -92.321  -0.522   3.615  1.00  0.00     0.219 HD
ENDBRANCH  10  17
BRANCH  14  19
HETATM   19  O3  UNL     1     -87.304  -0.685   5.177  1.00  0.00    -0.344 OA
ATOM     20  H3  UNL     1     -86.692  -0.556   5.892  1.00  0.00     0.219 HD
ENDBRANCH  14  19
ENDBRANCH   6   9
BRANCH   2  21
HETATM   21  C2  UNL     1     -88.489  -5.995   0.849  1.00  0.00     0.094 A
HETATM   22  S1  UNL     1     -89.203  -7.453   1.383  1.00  0.00    -0.095 SA
HETATM   23  C3  UNL     1     -87.832  -8.459   1.433  1.00  0.00     0.052 A
HETATM   24  C4  UNL     1     -86.841  -7.615   1.025  1.00  0.00     0.032 A
HETATM   25  C5  UNL     1     -87.158  -6.354   0.723  1.00  0.00     0.057 A
HETATM   26 CL1  UNL     1     -85.957  -5.129   0.186  1.00  0.00    -0.083 Cl
ENDBRANCH   2  21
TORSDOF 4
ENDMDL