MODEL 2
REMARK VINA RESULT: -9.694389763      4.502      6.038
REMARK  3 active torsions:
REMARK  status: ('A' for Active; 'I' for Inactive)
REMARK    1  A    between atoms: C9_13  and  C10_14
REMARK    2  A    between atoms: C10_14  and  N2_15
REMARK       I    between atoms: N2_15  and  C11_17
REMARK    3  A    between atoms: C11_17  and  C12_19
ROOT
HETATM    1  C12 UNL     1     -89.856  -1.451   3.905  1.00  0.00     0.103 A
HETATM    2  C13 UNL     1     -90.844  -0.501   3.924  1.00  0.00     0.061 A
HETATM    3  C14 UNL     1     -90.627   0.633   4.725  1.00  0.00     0.061 A
HETATM    4 CL1  UNL     1     -91.863   1.869   4.777  1.00  0.00    -0.082 Cl
HETATM    5  C15 UNL     1     -89.456   0.743   5.442  1.00  0.00     0.093 A
HETATM    6 CL2  UNL     1     -89.224   2.179   6.433  1.00  0.00    -0.079 Cl
HETATM    7  C16 UNL     1     -88.480  -0.237   5.399  1.00  0.00     0.138 A
HETATM    8  C17 UNL     1     -87.266  -0.081   6.169  1.00  0.00     0.119 C
HETATM    9  N3  UNL     1     -86.280   0.058   6.775  1.00  0.00    -0.190 NA
HETATM   10  N4  UNL     1     -88.708  -1.297   4.636  1.00  0.00    -0.342 N
ATOM     11  H4  UNL     1     -87.998  -2.028   4.591  1.00  0.00     0.167 HD
ENDROOT
BRANCH   1  12
HETATM   12  C11 UNL     1     -90.019  -2.647   3.098  1.00  0.00     0.268 C
HETATM   13  N2  UNL     1     -90.114  -2.639   1.697  1.00  0.00    -0.353 N
ATOM     14  H2  UNL     1     -90.069  -1.732   1.231  1.00  0.00     0.162 HD
HETATM   15  O2  UNL     1     -90.076  -3.766   3.717  1.00  0.00    -0.266 OA
BRANCH  13  16
HETATM   16  C10 UNL     1     -90.271  -3.799   0.863  1.00  0.00     0.159 C
BRANCH  16  17
HETATM   17  C9  UNL     1     -91.666  -4.266   0.785  1.00  0.00     0.168 C
HETATM   18  C2  UNL     1     -91.866  -5.710   0.942  1.00  0.00    -0.056 C
HETATM   19  C1  UNL     1     -91.040  -6.616   1.364  1.00  0.00     0.017 C
HETATM   20  C3  UNL     1     -93.262  -5.929   0.495  1.00  0.00     0.074 C
HETATM   21  C4  UNL     1     -93.409  -4.797  -0.503  1.00  0.00     0.068 C
HETATM   22  C5  UNL     1     -93.730  -5.299  -1.876  1.00  0.00     0.066 C
HETATM   23  C8  UNL     1     -94.467  -3.805  -0.097  1.00  0.00     0.066 C
HETATM   24  O1  UNL     1     -92.192  -4.104  -0.523  1.00  0.00    -0.368 OA
HETATM   25  C6  UNL     1     -95.117  -5.894  -1.911  1.00  0.00     0.235 C
HETATM   26  N1  UNL     1     -96.047  -4.788  -1.709  1.00  0.00    -0.075 N
HETATM   27  C7  UNL     1     -95.857  -4.239  -0.406  1.00  0.00     0.235 C
ATOM     28  H12 UNL     1     -95.970  -4.082  -2.440  1.00  0.00     0.277 HD
ATOM     29  H11 UNL     1     -97.015  -5.064  -1.873  1.00  0.00     0.277 HD
ENDBRANCH  16  17
ENDBRANCH  13  16
ENDBRANCH   1  12
TORSDOF 3
ENDMDL