MODEL 4
REMARK VINA RESULT: -8.949908219      1.493      1.759
REMARK  4 active torsions:
REMARK  status: ('A' for Active; 'I' for Inactive)
REMARK    1  A    between atoms: C2_2  and  N1_3
REMARK    2  A    between atoms: C3_4  and  O1_5
REMARK    3  A    between atoms: C10_15  and  C11_16
REMARK    4  A    between atoms: C15_23  and  O4_25
ROOT
HETATM    1  N1  UNL     1     -88.507  -3.897   1.295  1.00  0.00    -0.278 N
HETATM    2  C3  UNL     1     -88.379  -5.227   1.143  1.00  0.00     0.173 A
HETATM    3  C4  UNL     1     -87.141  -5.510   0.670  1.00  0.00     0.108 A
HETATM    4  N2  UNL     1     -86.489  -4.318   0.528  1.00  0.00    -0.286 N
HETATM    5  C5  UNL     1     -87.330  -3.371   0.909  1.00  0.00     0.332 A
HETATM    6  O2  UNL     1     -87.060  -2.140   0.908  1.00  0.00    -0.246 OA
HETATM    7  C6  UNL     1     -85.131  -4.428   0.025  1.00  0.00     0.041 C
HETATM    8  C7  UNL     1     -84.509  -3.032   0.183  1.00  0.00     0.039 C
HETATM    9  C8  UNL     1     -84.281  -5.367   0.814  1.00  0.00     0.035 C
HETATM   10  C9  UNL     1     -85.046  -6.633   1.058  1.00  0.00     0.053 C
HETATM   11  C10 UNL     1     -86.339  -6.703   0.285  1.00  0.00     0.167 C
HETATM   12  O3  UNL     1     -86.248  -6.872  -1.029  1.00  0.00    -0.357 OA
HETATM   13  C12 UNL     1     -85.525  -6.097  -1.826  1.00  0.00     0.065 C
HETATM   14  C13 UNL     1     -86.284  -5.987  -3.164  1.00  0.00     0.041 C
HETATM   15  C14 UNL     1     -85.316  -6.018  -4.327  1.00  0.00     0.040 C
HETATM   16  C15 UNL     1     -84.828  -7.460  -4.483  1.00  0.00     0.054 C
HETATM   17  C16 UNL     1     -85.836  -8.257  -5.262  1.00  0.00     0.045 C
HETATM   18  C17 UNL     1     -84.701  -8.013  -3.079  1.00  0.00     0.040 C
HETATM   19  C18 UNL     1     -84.235  -6.849  -2.196  1.00  0.00     0.041 C
HETATM   20  C19 UNL     1     -85.172  -4.728  -1.431  1.00  0.00     0.069 C
ENDROOT
BRANCH  11  21
HETATM   21  C11 UNL     1     -87.094  -7.914   0.860  1.00  0.00     0.393 C
HETATM   22  F1  UNL     1     -86.399  -9.027   0.365  1.00  0.00    -0.211 F
HETATM   23  F2  UNL     1     -87.003  -7.955   2.212  1.00  0.00    -0.211 F
ENDBRANCH  11  21
BRANCH  16  24
HETATM   24  O4  UNL     1     -83.575  -7.470  -5.062  1.00  0.00    -0.390 OA
ATOM     25  H4  UNL     1     -83.630  -7.822  -5.942  1.00  0.00     0.210 HD
ENDBRANCH  16  24
BRANCH   2  26
HETATM   26  O1  UNL     1     -89.344  -6.183   1.418  1.00  0.00    -0.344 OA
ATOM     27  H1  UNL     1     -89.487  -6.618   2.251  1.00  0.00     0.219 HD
ENDBRANCH   2  26
BRANCH   1  28
HETATM   28  C2  UNL     1     -89.679  -3.162   1.780  1.00  0.00     0.131 C
HETATM   29  C1  UNL     1     -89.670  -3.158   3.293  1.00  0.00     0.027 C
ENDBRANCH   1  28
TORSDOF 4
ENDMDL