MODEL 2
REMARK VINA RESULT: -8.036000972      2.941      3.969
REMARK  3 active torsions:
REMARK  status: ('A' for Active; 'I' for Inactive)
REMARK       I    between atoms: C2_2  and  N1_4
REMARK    1  A    between atoms: N1_4  and  C3_6
REMARK    2  A    between atoms: C10_15  and  C11_16
REMARK    3  A    between atoms: C11_16  and  O2_17
ROOT
HETATM    1  C3  UNL     1     -90.012  -2.151   1.452  1.00  0.00     0.105 C
HETATM    2  N2  UNL     1     -90.862  -1.262   0.937  1.00  0.00    -0.348 N
ATOM      3  H2  UNL     1     -90.619  -0.917   0.008  1.00  0.00     0.167 HD
HETATM    4  C4  UNL     1     -92.033  -0.736   1.478  1.00  0.00     0.012 C
HETATM    5  C5  UNL     1     -92.923   0.239   0.803  1.00  0.00     0.068 C
HETATM    6  C6  UNL     1     -92.373  -1.144   2.690  1.00  0.00    -0.042 C
HETATM    7  C7  UNL     1     -93.602  -0.641   3.308  1.00  0.00     0.050 C
HETATM    8  C8  UNL     1     -91.472  -1.956   3.426  1.00  0.00     0.008 C
HETATM    9  C9  UNL     1     -90.379  -2.766   2.699  1.00  0.00     0.110 C
HETATM   10  C10 UNL     1     -89.425  -3.005   3.789  1.00  0.00     0.001 C
HETATM   11  C12 UNL     1     -89.046  -4.387   4.050  1.00  0.00     0.087 C
HETATM   12  N3  UNL     1     -87.980  -4.870   4.599  1.00  0.00    -0.287 N
ATOM     13  H3  UNL     1     -87.238  -4.254   4.930  1.00  0.00     0.178 HD
HETATM   14  C13 UNL     1     -87.871  -6.254   4.728  1.00  0.00     0.182 C
HETATM   15  N4  UNL     1     -87.791  -7.415   4.820  1.00  0.00    -0.172 NA
HETATM   16  S1  UNL     1     -90.412  -5.347   3.438  1.00  0.00    -0.067 SA
HETATM   17  C14 UNL     1     -91.114  -4.082   2.372  1.00  0.00     0.189 C
HETATM   18 CL1  UNL     1     -92.871  -3.933   2.647  1.00  0.00    -0.087 Cl
HETATM   19 CL2  UNL     1     -90.812  -4.614   0.702  1.00  0.00    -0.087 Cl
ENDROOT
BRANCH  10  20
HETATM   20  C11 UNL     1     -88.369  -1.974   4.029  1.00  0.00     0.203 C
BRANCH  20  21
HETATM   21  O2  UNL     1     -87.924  -2.173   5.360  1.00  0.00    -0.397 OA
ATOM     22  H2  UNL     1     -86.995  -1.977   5.357  1.00  0.00     0.209 HD
ENDBRANCH  20  21
ENDBRANCH  10  20
BRANCH   1  23
HETATM   23  N1  UNL     1     -88.968  -2.352   0.527  1.00  0.00    -0.316 N
HETATM   24  C2  UNL     1     -87.793  -1.745   0.244  1.00  0.00     0.218 C
HETATM   25  C1  UNL     1     -86.906  -2.313  -0.902  1.00  0.00     0.117 C
HETATM   26  O1  UNL     1     -87.253  -0.775   0.744  1.00  0.00    -0.274 OA
ATOM     27  H1  UNL     1     -89.140  -3.154  -0.078  1.00  0.00     0.170 HD
ENDBRANCH   1  23
TORSDOF 3
ENDMDL