MODEL 5
REMARK VINA RESULT: -9.115366870      4.171     10.204
REMARK  11 active torsions:
REMARK  status: ('A' for Active; 'I' for Inactive)
REMARK    1  A    between atoms: C2_2  and  N1_5
REMARK    2  A    between atoms: C4_6  and  C5_7
REMARK    3  A    between atoms: C5_7  and  C6_8
REMARK    4  A    between atoms: C8_11  and  C9_12
REMARK    5  A    between atoms: C17_27  and  S1_28
REMARK    6  A    between atoms: S1_28  and  C18_29
REMARK    7  A    between atoms: C18_29  and  C19_30
REMARK    8  A    between atoms: C19_30  and  O3_31
REMARK    9  A    between atoms: C19_30  and  N5_33
REMARK   10  A    between atoms: N5_33  and  C20_35
REMARK   11  A    between atoms: C20_35  and  C21_36
ROOT
HETATM    1  N1  UNL     1      31.159 -34.140  -7.320  1.00  0.00    -0.274 N
HETATM    2  C4  UNL     1      30.022 -33.438  -7.146  1.00  0.00     0.129 A
HETATM    3  N3  UNL     1      29.666 -33.049  -8.417  1.00  0.00    -0.283 N
ATOM      4  H3  UNL     1      28.839 -32.498  -8.646  1.00  0.00     0.188 HD
HETATM    5  N4  UNL     1      30.544 -33.488  -9.296  1.00  0.00    -0.278 N
ATOM      6  H4  UNL     1      30.506 -33.332 -10.303  1.00  0.00     0.189 HD
HETATM    7  C17 UNL     1      31.467 -34.152  -8.668  1.00  0.00     0.166 A
ENDROOT
BRANCH   2   8
HETATM    8  C5  UNL     1      29.328 -33.017  -5.945  1.00  0.00     0.081 C
BRANCH   8   9
HETATM    9  C6  UNL     1      27.901 -32.828  -5.946  1.00  0.00     0.060 A
HETATM   10  C7  UNL     1      26.854 -33.700  -5.893  1.00  0.00     0.173 A
HETATM   11  O1  UNL     1      25.735 -33.022  -6.073  1.00  0.00    -0.304 OA
HETATM   12  C8  UNL     1      25.979 -31.749  -6.242  1.00  0.00     0.161 A
HETATM   13  N2  UNL     1      27.271 -31.603  -6.166  1.00  0.00    -0.336 N
ATOM     14  H2  UNL     1      27.758 -30.712  -6.256  1.00  0.00     0.168 HD
BRANCH  12  15
HETATM   15  C9  UNL     1      24.887 -30.733  -6.476  1.00  0.00     0.152 A
HETATM   16  C10 UNL     1      23.578 -31.047  -6.001  1.00  0.00     0.050 C
HETATM   17  C11 UNL     1      22.267 -30.711  -6.586  1.00  0.00     0.015 C
HETATM   18  C12 UNL     1      21.822 -31.465  -7.863  1.00  0.00     0.080 C
HETATM   19  C13 UNL     1      22.905 -31.465  -8.750  1.00  0.00    -0.183 C
HETATM   20  C14 UNL     1      23.981 -31.534  -9.655  1.00  0.00     0.082 C
HETATM   21  C15 UNL     1      25.251 -30.935  -8.950  1.00  0.00     0.046 C
HETATM   22  C16 UNL     1      24.929 -30.033  -7.841  1.00  0.00     0.167 A
HETATM   23  O2  UNL     1      25.584 -29.624  -6.755  1.00  0.00    -0.360 OA
ENDBRANCH  12  15
ENDBRANCH   8   9
ENDBRANCH   2   8
BRANCH   1  24
HETATM   24  C2  UNL     1      31.945 -34.776  -6.310  1.00  0.00     0.177 C
HETATM   25  C1  UNL     1      31.231 -34.912  -4.968  1.00  0.00     0.076 C
HETATM   26  C3  UNL     1      33.330 -34.186  -6.155  1.00  0.00     0.076 C
HETATM   27  F1  UNL     1      32.166 -36.107  -6.708  1.00  0.00    -0.220 F
ENDBRANCH   1  24
BRANCH   7  28
HETATM   28  S1  UNL     1      32.975 -34.935  -9.308  1.00  0.00    -0.084 SA
BRANCH  28  29
HETATM   29  C18 UNL     1      33.846 -33.743 -10.316  1.00  0.00     0.166 C
BRANCH  29  30
HETATM   30  C19 UNL     1      35.150 -33.243  -9.905  1.00  0.00     0.121 C
BRANCH  30  31
HETATM   31  O3  UNL     1      35.472 -33.187  -8.646  1.00  0.00    -0.349 OA
ATOM     32  H3  UNL     1      35.576 -33.983  -8.137  1.00  0.00     0.219 HD
ENDBRANCH  30  31
BRANCH  30  33
HETATM   33  N5  UNL     1      36.194 -32.783 -10.760  1.00  0.00    -0.371 N
ATOM     34  H5  UNL     1      36.034 -32.753 -11.766  1.00  0.00     0.161 HD
BRANCH  33  35
HETATM   35  C20 UNL     1      37.488 -32.352 -10.235  1.00  0.00     0.153 C
BRANCH  35  36
HETATM   36  C21 UNL     1      38.042 -31.153 -10.944  1.00  0.00     0.139 C
HETATM   37  C22 UNL     1      39.218 -30.522 -10.223  1.00  0.00     0.035 C
HETATM   38  C23 UNL     1      40.428 -31.132 -10.891  1.00  0.00     0.029 C
HETATM   39  C24 UNL     1      39.849 -31.874 -12.046  1.00  0.00     0.168 C
HETATM   40  O4  UNL     1      38.529 -31.571 -12.173  1.00  0.00    -0.384 OA
ENDBRANCH  35  36
ENDBRANCH  33  35
ENDBRANCH  30  33
ENDBRANCH  29  30
ENDBRANCH  28  29
ENDBRANCH   7  28
TORSDOF 11
ENDMDL