MODEL 4
REMARK VINA RESULT: -8.143879497      2.174      5.496
REMARK  10 active torsions:
REMARK  status: ('A' for Active; 'I' for Inactive)
REMARK    1  A    between atoms: O1_2  and  C2_3
REMARK    2  A    between atoms: C2_3  and  C3_4
REMARK    3  A    between atoms: C5_6  and  C6_7
REMARK    4  A    between atoms: C6_7  and  C7_8
REMARK    5  A    between atoms: C7_8  and  C8_9
REMARK    6  A    between atoms: C18_21  and  O4_23
REMARK    7  A    between atoms: C20_25  and  C21_26
REMARK    8  A    between atoms: C21_26  and  O5_27
REMARK    9  A    between atoms: O5_27  and  C22_28
REMARK   10  A    between atoms: C22_28  and  C23_30
ROOT
HETATM    1  C8  UNL     1      28.668 -32.215  -6.059  1.00  0.00     0.125 C
HETATM    2  C9  UNL     1      28.736 -32.679  -7.428  1.00  0.00     0.266 C
HETATM    3  O2  UNL     1      29.820 -32.714  -8.087  1.00  0.00    -0.265 OA
HETATM    4  O3  UNL     1      27.578 -33.099  -8.037  1.00  0.00    -0.320 OA
HETATM    5  C10 UNL     1      26.416 -33.002  -7.294  1.00  0.00     0.191 C
HETATM    6  C11 UNL     1      26.564 -33.587  -5.857  1.00  0.00     0.014 C
HETATM    7  C12 UNL     1      26.642 -35.045  -6.205  1.00  0.00     0.020 C
HETATM    8  C13 UNL     1      25.196 -33.175  -5.344  1.00  0.00     0.017 C
HETATM    9  C14 UNL     1      24.861 -33.361  -3.955  1.00  0.00     0.042 C
HETATM   10  C15 UNL     1      25.851 -33.081  -2.912  1.00  0.00     0.095 C
HETATM   11  C16 UNL     1      25.152 -32.603  -1.653  1.00  0.00     0.049 C
HETATM   12  C17 UNL     1      26.585 -34.370  -2.644  1.00  0.00     0.078 C
HETATM   13  C18 UNL     1      28.026 -34.323  -2.946  1.00  0.00     0.066 C
HETATM   14  C19 UNL     1      28.670 -33.639  -1.719  1.00  0.00     0.046 C
HETATM   15  C20 UNL     1      28.541 -33.738  -4.192  1.00  0.00     0.083 C
HETATM   16  C27 UNL     1      27.696 -32.979  -5.151  1.00  0.00     0.126 C
HETATM   17  O8  UNL     1      27.112 -31.923  -4.402  1.00  0.00    -0.226 OA
HETATM   18  O9  UNL     1      26.834 -32.163  -3.202  1.00  0.00    -0.229 OA
ENDROOT
BRANCH  15  19
HETATM   19  C21 UNL     1      29.447 -34.768  -4.838  1.00  0.00     0.190 C
BRANCH  19  20
HETATM   20  O5  UNL     1      30.773 -34.502  -4.525  1.00  0.00    -0.315 OA
BRANCH  20  21
HETATM   21  C22 UNL     1      31.943 -34.888  -5.058  1.00  0.00     0.317 C
HETATM   22  O6  UNL     1      32.878 -35.215  -4.288  1.00  0.00    -0.257 OA
BRANCH  21  23
HETATM   23  C23 UNL     1      32.187 -34.945  -6.522  1.00  0.00     0.149 A
HETATM   24  C24 UNL     1      33.197 -34.304  -7.207  1.00  0.00     0.045 A
HETATM   25  C25 UNL     1      33.059 -34.626  -8.541  1.00  0.00     0.027 A
HETATM   26  C26 UNL     1      31.967 -35.454  -8.626  1.00  0.00     0.143 A
HETATM   27  O7  UNL     1      31.502 -35.602  -7.417  1.00  0.00    -0.317 OA
ENDBRANCH  21  23
ENDBRANCH  20  21
ENDBRANCH  19  20
ENDBRANCH  15  19
BRANCH  13  28
HETATM   28  O4  UNL     1      28.457 -35.674  -2.820  1.00  0.00    -0.390 OA
ATOM     29  H4  UNL     1      29.367 -35.658  -3.092  1.00  0.00     0.210 HD
ENDBRANCH  13  28
BRANCH   1  30
HETATM   30  C7  UNL     1      28.414 -30.716  -6.037  1.00  0.00     0.021 C
BRANCH  30  31
HETATM   31  C6  UNL     1      27.557 -30.274  -7.175  1.00  0.00     0.028 C
BRANCH  31  32
HETATM   32  C5  UNL     1      26.204 -29.837  -6.917  1.00  0.00    -0.022 C
HETATM   33  C3  UNL     1      25.088 -29.837  -7.605  1.00  0.00    -0.064 C
HETATM   34  C4  UNL     1      24.864 -30.377  -8.962  1.00  0.00     0.045 C
BRANCH  33  35
HETATM   35  C2  UNL     1      23.883 -29.258  -6.898  1.00  0.00     0.200 C
BRANCH  35  36
HETATM   36  O1  UNL     1      23.238 -30.042  -6.070  1.00  0.00    -0.392 OA
HETATM   37  C1  UNL     1      23.150 -29.952  -4.746  1.00  0.00     0.201 C
ENDBRANCH  35  36
ENDBRANCH  33  35
ENDBRANCH  31  32
ENDBRANCH  30  31
ENDBRANCH   1  30
TORSDOF 10
ENDMDL