MODEL 4
REMARK VINA RESULT: -6.570646542     15.143     18.566
REMARK  11 active torsions:
REMARK  status: ('A' for Active; 'I' for Inactive)
REMARK    1  A    between atoms: C2_2  and  O1_3
REMARK    2  A    between atoms: O1_3  and  C3_4
REMARK    3  A    between atoms: C3_4  and  C4_6
REMARK    4  A    between atoms: C4_6  and  C5_7
REMARK    5  A    between atoms: C5_7  and  C6_8
REMARK    6  A    between atoms: C6_8  and  N1_9
REMARK    7  A    between atoms: C6_8  and  C7_13
REMARK    8  A    between atoms: C6_8  and  C9_17
REMARK    9  A    between atoms: C7_13  and  O4_15
REMARK   10  A    between atoms: C9_17  and  C11_19
REMARK   11  A    between atoms: C24_38  and  C25_39
ROOT
HETATM    1  C11 UNL     1      26.845 -33.076  -4.250  1.00  0.00     0.183 C
HETATM    2  O5  UNL     1      26.400 -32.163  -3.311  1.00  0.00    -0.309 OA
HETATM    3  C12 UNL     1      25.259 -31.469  -3.151  1.00  0.00     0.262 C
HETATM    4  O6  UNL     1      24.504 -31.658  -2.143  1.00  0.00    -0.265 OA
HETATM    5  C13 UNL     1      24.788 -30.443  -4.115  1.00  0.00     0.138 C
HETATM    6  C14 UNL     1      23.516 -29.803  -3.670  1.00  0.00    -0.019 C
HETATM    7  C15 UNL     1      22.562 -29.361  -4.466  1.00  0.00     0.001 C
HETATM    8  C16 UNL     1      22.590 -29.424  -5.954  1.00  0.00     0.150 C
HETATM    9  C17 UNL     1      22.233 -27.999  -6.409  1.00  0.00     0.044 C
HETATM   10  O7  UNL     1      21.542 -30.235  -6.455  1.00  0.00    -0.312 OA
HETATM   11  C18 UNL     1      21.663 -31.166  -7.467  1.00  0.00     0.262 C
HETATM   12  O8  UNL     1      20.892 -31.239  -8.461  1.00  0.00    -0.265 OA
HETATM   13  C19 UNL     1      22.773 -32.148  -7.384  1.00  0.00     0.138 C
HETATM   14  C20 UNL     1      23.886 -31.697  -8.264  1.00  0.00    -0.019 C
HETATM   15  C21 UNL     1      25.143 -32.048  -8.149  1.00  0.00    -0.006 C
HETATM   16  C22 UNL     1      25.673 -32.983  -7.086  1.00  0.00     0.100 C
HETATM   17  C23 UNL     1      25.956 -34.282  -7.812  1.00  0.00     0.036 C
HETATM   18  N2  UNL     1      26.858 -32.418  -6.610  1.00  0.00    -0.387 N
ATOM     19  H2  UNL     1      27.387 -31.911  -7.321  1.00  0.00     0.159 HD
HETATM   20  C24 UNL     1      27.398 -32.412  -5.481  1.00  0.00     0.013 C
ENDROOT
BRANCH   1  21
HETATM   21  C9  UNL     1      27.973 -33.953  -3.682  1.00  0.00     0.063 C
HETATM   22  C10 UNL     1      28.060 -35.205  -4.502  1.00  0.00     0.016 C
BRANCH  21  23
HETATM   23  C6  UNL     1      27.782 -34.232  -2.197  1.00  0.00     0.216 C
BRANCH  23  24
HETATM   24  C5  UNL     1      26.458 -34.804  -1.843  1.00  0.00     0.059 C
BRANCH  24  25
HETATM   25  C4  UNL     1      25.953 -34.541  -0.459  1.00  0.00     0.114 C
BRANCH  25  26
HETATM   26  C3  UNL     1      24.559 -34.898  -0.186  1.00  0.00     0.258 C
HETATM   27  O2  UNL     1      24.266 -36.085   0.089  1.00  0.00    -0.265 OA
BRANCH  26  28
HETATM   28  O1  UNL     1      23.535 -33.969  -0.219  1.00  0.00    -0.322 OA
BRANCH  28  29
HETATM   29  C2  UNL     1      22.935 -33.403   0.919  1.00  0.00     0.174 C
HETATM   30  C1  UNL     1      23.216 -31.954   1.128  1.00  0.00     0.034 C
ENDBRANCH  28  29
ENDBRANCH  26  28
ENDBRANCH  25  26
ENDBRANCH  24  25
ENDBRANCH  23  24
BRANCH  23  31
HETATM   31  N1  UNL     1      28.170 -33.049  -1.496  1.00  0.00    -0.060 N
ATOM     32  H13 UNL     1      29.032 -32.679  -1.896  1.00  0.00     0.275 HD
ATOM     33  H12 UNL     1      27.524 -32.291  -1.715  1.00  0.00     0.275 HD
ATOM     34  H11 UNL     1      28.269 -33.135  -0.484  1.00  0.00     0.275 HD
ENDBRANCH  23  31
BRANCH  23  35
HETATM   35  C7  UNL     1      28.878 -35.258  -1.908  1.00  0.00     0.295 C
HETATM   36  O3  UNL     1      28.610 -36.481  -1.820  1.00  0.00    -0.262 OA
BRANCH  35  37
HETATM   37  O4  UNL     1      30.199 -34.891  -1.731  1.00  0.00    -0.325 OA
HETATM   38  C8  UNL     1      31.163 -34.927  -2.749  1.00  0.00     0.213 C
ENDBRANCH  35  37
ENDBRANCH  23  35
ENDBRANCH  21  23
ENDBRANCH   1  21
BRANCH  20  39
HETATM   39  C25 UNL     1      28.702 -31.703  -5.351  1.00  0.00     0.050 C
HETATM   40  C26 UNL     1      29.796 -32.309  -6.203  1.00  0.00     0.011 C
ENDBRANCH  20  39
TORSDOF 11
ENDMDL