MODEL 4
REMARK VINA RESULT: -9.507655933      1.638      2.355
REMARK  10 active torsions:
REMARK  status: ('A' for Active; 'I' for Inactive)
REMARK    1  A    between atoms: O1_2  and  C2_3
REMARK    2  A    between atoms: C2_3  and  C3_4
REMARK    3  A    between atoms: C3_4  and  O2_5
REMARK    4  A    between atoms: O2_5  and  C4_6
REMARK    5  A    between atoms: C4_6  and  C5_8
REMARK    6  A    between atoms: C5_8  and  C6_9
REMARK    7  A    between atoms: C7_10  and  C8_11
REMARK    8  A    between atoms: N1_28  and  C22_29
REMARK    9  A    between atoms: C22_29  and  C23_30
REMARK   10  A    between atoms: C23_30  and  C24_31
ROOT
HETATM    1  C8  UNL     1      26.151 -32.231  -3.577  1.00  0.00     0.007 C
HETATM    2  C9  UNL     1      26.527 -33.384  -2.997  1.00  0.00    -0.046 C
HETATM    3  C10 UNL     1      25.571 -34.119  -2.150  1.00  0.00     0.040 C
HETATM    4  C11 UNL     1      26.285 -35.114  -1.288  1.00  0.00     0.010 C
HETATM    5  C12 UNL     1      27.583 -34.493  -0.793  1.00  0.00     0.047 C
HETATM    6  C13 UNL     1      28.456 -34.467  -2.032  1.00  0.00    -0.005 A
HETATM    7  S1  UNL     1      29.983 -34.950  -2.489  1.00  0.00    -0.093 SA
HETATM    8  C14 UNL     1      29.948 -34.488  -4.145  1.00  0.00     0.018 A
HETATM    9  C15 UNL     1      30.892 -34.596  -5.172  1.00  0.00     0.052 A
HETATM   10  C16 UNL     1      30.602 -34.150  -6.439  1.00  0.00     0.075 A
HETATM   11  C17 UNL     1      29.348 -33.609  -6.604  1.00  0.00     0.071 A
HETATM   12  C18 UNL     1      28.411 -33.494  -5.606  1.00  0.00     0.033 A
HETATM   13  C19 UNL     1      28.701 -33.950  -4.293  1.00  0.00    -0.006 A
HETATM   14  C20 UNL     1      27.902 -33.927  -3.195  1.00  0.00    -0.005 A
HETATM   15  C21 UNL     1      29.310 -33.245  -7.942  1.00  0.00     0.317 A
HETATM   16  O4  UNL     1      28.329 -32.703  -8.521  1.00  0.00    -0.257 OA
HETATM   17  O5  UNL     1      30.467 -33.566  -8.478  1.00  0.00    -0.192 OA
HETATM   18  N1  UNL     1      31.256 -34.105  -7.613  1.00  0.00    -0.248 N
ENDROOT
BRANCH   1  19
HETATM   19  C7  UNL     1      24.843 -31.674  -3.415  1.00  0.00    -0.003 C
HETATM   20  C6  UNL     1      23.914 -31.806  -4.325  1.00  0.00    -0.017 C
BRANCH  20  21
HETATM   21  C5  UNL     1      24.019 -32.510  -5.614  1.00  0.00     0.138 C
BRANCH  21  22
HETATM   22  C4  UNL     1      23.218 -31.708  -6.605  1.00  0.00     0.262 C
HETATM   23  O3  UNL     1      21.960 -31.870  -6.642  1.00  0.00    -0.265 OA
BRANCH  22  24
HETATM   24  O2  UNL     1      23.784 -30.812  -7.467  1.00  0.00    -0.316 OA
BRANCH  24  25
HETATM   25  C3  UNL     1      24.854 -31.032  -8.340  1.00  0.00     0.249 C
BRANCH  25  26
HETATM   26  C2  UNL     1      25.987 -30.106  -8.046  1.00  0.00     0.208 A
HETATM   27  C25 UNL     1      27.043 -29.677  -8.899  1.00  0.00     0.242 A
HETATM   28  O8  UNL     1      25.863 -28.892  -8.827  1.00  0.00    -0.346 OA
BRANCH  26  29
HETATM   29  O1  UNL     1      26.053 -29.742  -6.676  1.00  0.00    -0.356 OA
HETATM   30  C1  UNL     1      27.270 -30.078  -6.109  1.00  0.00     0.205 C
ENDBRANCH  26  29
ENDBRANCH  25  26
ENDBRANCH  24  25
ENDBRANCH  22  24
ENDBRANCH  21  22
ENDBRANCH  20  21
ENDBRANCH   1  19
BRANCH  18  31
HETATM   31  C22 UNL     1      32.627 -34.602  -7.802  1.00  0.00     0.167 C
BRANCH  31  32
HETATM   32  C23 UNL     1      32.897 -34.960  -9.224  1.00  0.00     0.135 C
BRANCH  32  33
HETATM   33  C24 UNL     1      33.779 -33.935  -9.826  1.00  0.00     0.174 C
HETATM   34  O6  UNL     1      33.492 -33.477 -10.954  1.00  0.00    -0.648 OA
HETATM   35  O7  UNL     1      34.916 -33.454  -9.195  1.00  0.00    -0.648 OA
ENDBRANCH  32  33
ENDBRANCH  31  32
ENDBRANCH  18  31
TORSDOF 10
ENDMDL