MODEL 4
REMARK VINA RESULT: -7.757867736      1.858      6.824
REMARK  9 active torsions:
REMARK  status: ('A' for Active; 'I' for Inactive)
REMARK    1  A    between atoms: O1_2  and  C2_3
REMARK    2  A    between atoms: C6_7  and  O2_8
REMARK    3  A    between atoms: C8_10  and  O3_11
REMARK    4  A    between atoms: C9_13  and  O4_14
REMARK    5  A    between atoms: O4_14  and  C10_15
REMARK    6  A    between atoms: C14_19  and  C15_20
REMARK    7  A    between atoms: C19_27  and  O5_28
REMARK    8  A    between atoms: C21_30  and  O6_31
REMARK    9  A    between atoms: C23_33  and  O7_34
ROOT
HETATM    1  C15 UNL     1      27.261 -31.916  -8.908  1.00  0.00     0.082 C
HETATM    2  N1  UNL     1      27.488 -30.667  -8.883  1.00  0.00    -0.308 N
ATOM      3  H1  UNL     1      27.793 -30.255  -9.765  1.00  0.00     0.177 HD
HETATM    4  C16 UNL     1      27.378 -29.797  -7.825  1.00  0.00     0.181 C
HETATM    5  N2  UNL     1      27.295 -29.059  -6.959  1.00  0.00    -0.172 NA
ENDROOT
BRANCH   1   6
HETATM    6  C14 UNL     1      26.818 -32.756  -7.801  1.00  0.00     0.066 C
HETATM    7  C13 UNL     1      27.600 -32.744  -6.554  1.00  0.00     0.041 C
HETATM    8  C9  UNL     1      28.859 -33.639  -6.562  1.00  0.00     0.164 C
HETATM    9  C27 UNL     1      26.729 -33.552  -5.559  1.00  0.00     0.032 C
HETATM   10  C5  UNL     1      28.955 -33.978  -5.126  1.00  0.00     0.014 A
HETATM   11  C4  UNL     1      27.688 -33.980  -4.569  1.00  0.00    -0.039 A
HETATM   12  C6  UNL     1      30.002 -34.326  -4.256  1.00  0.00     0.113 A
HETATM   13  C3  UNL     1      27.491 -34.312  -3.238  1.00  0.00     0.048 A
HETATM   14  C2  UNL     1      28.520 -34.651  -2.405  1.00  0.00     0.104 A
HETATM   15  C8  UNL     1      29.796 -34.657  -2.921  1.00  0.00     0.133 A
HETATM   16  C26 UNL     1      25.740 -32.521  -5.028  1.00  0.00     0.052 C
HETATM   17  C25 UNL     1      24.878 -32.271  -6.221  1.00  0.00    -0.014 A
HETATM   18  C17 UNL     1      25.385 -32.388  -7.491  1.00  0.00    -0.037 A
HETATM   19  C23 UNL     1      23.569 -31.925  -6.005  1.00  0.00     0.111 A
HETATM   20  C18 UNL     1      24.522 -32.145  -8.535  1.00  0.00     0.048 A
HETATM   21  C19 UNL     1      23.198 -31.795  -8.374  1.00  0.00     0.104 A
HETATM   22  C21 UNL     1      22.712 -31.683  -7.081  1.00  0.00     0.135 A
BRANCH   8  23
HETATM   23  O4  UNL     1      29.904 -32.937  -7.005  1.00  0.00    -0.376 OA
BRANCH  23  24
HETATM   24  C10 UNL     1      30.741 -33.408  -7.954  1.00  0.00     0.114 C
HETATM   25  C11 UNL     1      30.030 -33.272  -9.339  1.00  0.00     0.039 C
HETATM   26  C12 UNL     1      31.163 -34.827  -7.911  1.00  0.00     0.039 C
ENDBRANCH  23  24
ENDBRANCH   8  23
BRANCH  14  27
HETATM   27  O1  UNL     1      28.370 -34.991  -1.067  1.00  0.00    -0.353 OA
HETATM   28  C1  UNL     1      27.107 -34.970  -0.435  1.00  0.00     0.210 C
ENDBRANCH  14  27
BRANCH  15  29
HETATM   29  O3  UNL     1      30.871 -34.995  -2.110  1.00  0.00    -0.356 OA
ATOM     30  H3  UNL     1      30.796 -35.718  -1.499  1.00  0.00     0.218 HD
ENDBRANCH  15  29
BRANCH  12  31
HETATM   31  O2  UNL     1      31.329 -34.360  -4.645  1.00  0.00    -0.352 OA
HETATM   32  C7  UNL     1      31.803 -35.671  -5.018  1.00  0.00     0.210 C
ENDBRANCH  12  31
BRANCH  21  33
HETATM   33  O5  UNL     1      22.353 -31.556  -9.459  1.00  0.00    -0.353 OA
HETATM   34  C20 UNL     1      22.922 -31.553 -10.752  1.00  0.00     0.210 C
ENDBRANCH  21  33
BRANCH  22  35
HETATM   35  O6  UNL     1      21.389 -31.333  -6.865  1.00  0.00    -0.351 OA
HETATM   36  C22 UNL     1      21.058 -29.989  -6.576  1.00  0.00     0.210 C
ENDBRANCH  22  35
BRANCH  19  37
HETATM   37  O7  UNL     1      23.021 -31.796  -4.738  1.00  0.00    -0.352 OA
HETATM   38  C24 UNL     1      22.342 -32.828  -4.068  1.00  0.00     0.210 C
ENDBRANCH  19  37
ENDBRANCH   1   6
TORSDOF 9
ENDMDL