MODEL 2
REMARK VINA RESULT: -9.764606836      2.072      4.629
REMARK  10 active torsions:
REMARK  status: ('A' for Active; 'I' for Inactive)
REMARK    1  A    between atoms: C2_2  and  O2_4
REMARK    2  A    between atoms: O2_4  and  C3_5
REMARK    3  A    between atoms: C3_5  and  C4_6
REMARK    4  A    between atoms: C6_8  and  C7_9
REMARK    5  A    between atoms: C7_9  and  C8_10
REMARK    6  A    between atoms: C8_10  and  C9_11
REMARK    7  A    between atoms: C13_15  and  C14_16
REMARK    8  A    between atoms: C20_26  and  O5_27
REMARK    9  A    between atoms: O5_27  and  C21_28
REMARK   10  A    between atoms: C21_28  and  C22_30
ROOT
HETATM    1  C9  UNL     1      28.219 -32.884  -6.640  1.00  0.00    -0.038 C
HETATM    2  C10 UNL     1      28.301 -33.010  -8.141  1.00  0.00     0.015 C
HETATM    3  C11 UNL     1      27.547 -34.044  -5.960  1.00  0.00     0.010 C
HETATM    4  C12 UNL     1      26.652 -33.568  -4.810  1.00  0.00     0.011 C
HETATM    5  C13 UNL     1      25.404 -33.003  -5.487  1.00  0.00     0.060 C
HETATM    6  C20 UNL     1      25.864 -32.202  -6.636  1.00  0.00     0.144 C
HETATM    7  C26 UNL     1      27.268 -31.686  -6.408  1.00  0.00     0.020 C
HETATM    8  C27 UNL     1      27.643 -30.560  -7.339  1.00  0.00     0.013 C
ENDROOT
BRANCH   1   9
HETATM    9  C8  UNL     1      29.545 -32.632  -6.007  1.00  0.00     0.013 C
BRANCH   9  10
HETATM   10  C7  UNL     1      30.227 -33.964  -5.687  1.00  0.00     0.028 C
BRANCH  10  11
HETATM   11  C6  UNL     1      31.694 -33.858  -5.850  1.00  0.00    -0.022 C
HETATM   12  C4  UNL     1      32.440 -34.396  -6.754  1.00  0.00    -0.064 C
HETATM   13  C5  UNL     1      33.937 -34.146  -6.724  1.00  0.00     0.045 C
BRANCH  12  14
HETATM   14  C3  UNL     1      31.970 -35.254  -7.845  1.00  0.00     0.212 C
BRANCH  14  15
HETATM   15  O2  UNL     1      32.768 -35.109  -9.016  1.00  0.00    -0.318 OA
BRANCH  15  16
HETATM   16  C2  UNL     1      32.448 -34.160  -9.967  1.00  0.00     0.255 C
HETATM   17  C1  UNL     1      31.040 -33.706 -10.189  1.00  0.00     0.126 C
HETATM   18  O1  UNL     1      33.407 -33.684 -10.651  1.00  0.00    -0.266 OA
ENDBRANCH  15  16
ENDBRANCH  14  15
ENDBRANCH  12  14
ENDBRANCH  10  11
ENDBRANCH   9  10
ENDBRANCH   1   9
BRANCH   6  19
HETATM   19  O5  UNL     1      24.994 -31.202  -7.105  1.00  0.00    -0.310 OA
BRANCH  19  20
HETATM   20  C21 UNL     1      24.596 -31.047  -8.422  1.00  0.00     0.317 C
HETATM   21  O6  UNL     1      25.420 -30.611  -9.263  1.00  0.00    -0.257 OA
BRANCH  20  22
HETATM   22  C22 UNL     1      23.258 -31.368  -8.895  1.00  0.00     0.149 A
HETATM   23  C23 UNL     1      22.917 -31.475 -10.219  1.00  0.00     0.045 A
HETATM   24  C24 UNL     1      21.588 -31.786 -10.288  1.00  0.00     0.027 A
HETATM   25  C25 UNL     1      21.146 -31.861  -8.998  1.00  0.00     0.143 A
HETATM   26  O7  UNL     1      22.172 -31.606  -8.204  1.00  0.00    -0.317 OA
ENDBRANCH  20  22
ENDBRANCH  19  20
ENDBRANCH   6  19
BRANCH   5  27
HETATM   27  C14 UNL     1      24.486 -32.405  -4.500  1.00  0.00     0.155 C
HETATM   28  C15 UNL     1      24.529 -33.186  -3.182  1.00  0.00     0.058 C
HETATM   29  O3  UNL     1      25.038 -31.148  -4.142  1.00  0.00    -0.261 OA
HETATM   30  N1  UNL     1      24.528 -30.123  -4.805  1.00  0.00    -0.270 N
HETATM   31  C16 UNL     1      23.171 -29.943  -5.181  1.00  0.00     0.032 C
ATOM     32  H1  UNL     1      25.178 -29.385  -5.073  1.00  0.00     0.194 HD
HETATM   33  C17 UNL     1      22.610 -28.600  -5.520  1.00  0.00     0.070 C
HETATM   34  C18 UNL     1      22.422 -31.038  -5.215  1.00  0.00     0.080 C
HETATM   35  C19 UNL     1      23.076 -32.292  -4.863  1.00  0.00     0.188 C
HETATM   36  O4  UNL     1      22.354 -33.319  -4.883  1.00  0.00    -0.290 OA
ENDBRANCH   5  27
TORSDOF 10
ENDMDL