MODEL 1
REMARK VINA RESULT: -9.009530604      0.000      0.000
REMARK  14 active torsions:
REMARK  status: ('A' for Active; 'I' for Inactive)
REMARK    1  A    between atoms: C2_2  and  O1_4
REMARK    2  A    between atoms: O1_4  and  C4_5
REMARK    3  A    between atoms: C4_5  and  C5_7
REMARK    4  A    between atoms: C7_9  and  O3_10
REMARK    5  A    between atoms: O3_10  and  C8_11
REMARK    6  A    between atoms: C8_11  and  C9_13
REMARK    7  A    between atoms: C9_13  and  C10_14
REMARK    8  A    between atoms: C15_19  and  C16_20
REMARK    9  A    between atoms: C16_20  and  O5_21
REMARK   10  A    between atoms: O5_21  and  C17_22
REMARK   11  A    between atoms: C17_22  and  C18_24
REMARK   12  A    between atoms: C22_28  and  O7_29
REMARK   13  A    between atoms: C22_28  and  C23_31
REMARK   14  A    between atoms: C23_31  and  C24_33
ROOT
HETATM    1  C5  UNL     1      26.623 -32.893  -6.244  1.00  0.00     0.130 C
HETATM    2  C6  UNL     1      27.196 -34.120  -5.510  1.00  0.00     0.055 C
HETATM    3  C7  UNL     1      28.332 -33.660  -4.606  1.00  0.00     0.161 C
HETATM    4  C14 UNL     1      29.369 -33.127  -5.515  1.00  0.00    -0.049 C
HETATM    5  C15 UNL     1      30.551 -33.604  -5.786  1.00  0.00     0.005 C
HETATM    6  C21 UNL     1      28.892 -31.837  -6.207  1.00  0.00     0.083 C
HETATM    7  C22 UNL     1      27.698 -32.285  -7.084  1.00  0.00     0.135 C
ENDROOT
BRANCH   3   8
HETATM    8  O3  UNL     1      28.693 -34.640  -3.711  1.00  0.00    -0.311 OA
BRANCH   8   9
HETATM    9  C8  UNL     1      28.753 -34.453  -2.335  1.00  0.00     0.260 C
HETATM   10  O4  UNL     1      29.698 -35.028  -1.737  1.00  0.00    -0.265 OA
BRANCH   9  11
HETATM   11  C9  UNL     1      27.795 -33.645  -1.578  1.00  0.00     0.119 C
BRANCH  11  12
HETATM   12  C10 UNL     1      26.544 -34.424  -1.319  1.00  0.00    -0.043 C
HETATM   13  C11 UNL     1      25.497 -33.925  -2.318  1.00  0.00     0.015 C
HETATM   14  C12 UNL     1      26.698 -35.901  -1.521  1.00  0.00     0.015 C
HETATM   15  C13 UNL     1      25.998 -34.197   0.075  1.00  0.00     0.015 C
ENDBRANCH  11  12
ENDBRANCH   9  11
ENDBRANCH   8   9
ENDBRANCH   3   8
BRANCH   1  16
HETATM   16  C4  UNL     1      25.548 -33.437  -7.086  1.00  0.00     0.266 C
HETATM   17  O2  UNL     1      25.752 -34.464  -7.769  1.00  0.00    -0.265 OA
BRANCH  16  18
HETATM   18  O1  UNL     1      24.279 -32.841  -7.158  1.00  0.00    -0.316 OA
BRANCH  18  19
HETATM   19  C2  UNL     1      23.783 -32.202  -5.999  1.00  0.00     0.123 C
HETATM   20  C1  UNL     1      22.675 -31.225  -6.397  1.00  0.00     0.040 C
HETATM   21  C3  UNL     1      23.206 -33.192  -5.012  1.00  0.00     0.040 C
ENDBRANCH  18  19
ENDBRANCH  16  18
ENDBRANCH   1  16
BRANCH   5  22
HETATM   22  C16 UNL     1      31.244 -34.798  -5.303  1.00  0.00     0.206 C
BRANCH  22  23
HETATM   23  O5  UNL     1      32.263 -35.222  -6.173  1.00  0.00    -0.317 OA
BRANCH  23  24
HETATM   24  C17 UNL     1      32.080 -35.685  -7.450  1.00  0.00     0.262 C
HETATM   25  O6  UNL     1      31.435 -36.752  -7.616  1.00  0.00    -0.265 OA
BRANCH  24  26
HETATM   26  C18 UNL     1      32.612 -34.981  -8.650  1.00  0.00     0.077 C
HETATM   27  C19 UNL     1      31.510 -34.131  -9.296  1.00  0.00     0.020 C
HETATM   28  C20 UNL     1      33.829 -34.158  -8.345  1.00  0.00     0.020 C
ENDBRANCH  24  26
ENDBRANCH  23  24
ENDBRANCH  22  23
ENDBRANCH   5  22
BRANCH   7  29
HETATM   29  O7  UNL     1      28.250 -33.377  -7.802  1.00  0.00    -0.381 OA
ATOM     30  H7  UNL     1      28.570 -32.993  -8.610  1.00  0.00     0.211 HD
ENDBRANCH   7  29
BRANCH   7  31
HETATM   31  C23 UNL     1      27.302 -31.213  -7.996  1.00  0.00     0.169 C
HETATM   32  O8  UNL     1      27.604 -31.380  -9.200  1.00  0.00    -0.294 OA
BRANCH  31  33
HETATM   33  C24 UNL     1      26.600 -29.972  -7.693  1.00  0.00     0.013 C
HETATM   34  C25 UNL     1      26.098 -29.793  -6.296  1.00  0.00     0.023 C
HETATM   35  C26 UNL     1      27.447 -28.732  -7.997  1.00  0.00     0.023 C
HETATM   36  C27 UNL     1      25.367 -29.797  -8.596  1.00  0.00     0.023 C
ENDBRANCH  31  33
ENDBRANCH   7  31
TORSDOF 14
ENDMDL