MODEL 1
REMARK VINA RESULT: -9.466337522      0.000      0.000
REMARK  9 active torsions:
REMARK  status: ('A' for Active; 'I' for Inactive)
REMARK    1  A    between atoms: O1_2  and  C2_3
REMARK    2  A    between atoms: C2_3  and  C3_5
REMARK    3  A    between atoms: C3_5  and  O3_6
REMARK    4  A    between atoms: C3_5  and  S1_8
REMARK    5  A    between atoms: S1_8  and  C5_9
REMARK    6  A    between atoms: C6_10  and  O4_11
REMARK    7  A    between atoms: C8_13  and  O5_14
REMARK    8  A    between atoms: O5_14  and  C9_15
REMARK    9  A    between atoms: C19_26  and  O7_27
ROOT
HETATM    1  C5  UNL     1      27.121 -33.645  -3.693  1.00  0.00     0.018 C
HETATM    2  C6  UNL     1      28.359 -33.579  -4.114  1.00  0.00     0.089 C
HETATM    3  C8  UNL     1      28.733 -33.188  -5.533  1.00  0.00     0.198 C
HETATM    4  C14 UNL     1      27.596 -33.017  -6.433  1.00  0.00     0.053 C
HETATM    5  C15 UNL     1      27.072 -31.670  -6.692  1.00  0.00    -0.001 A
HETATM    6  C16 UNL     1      26.276 -31.061  -5.773  1.00  0.00    -0.047 A
HETATM    7  C17 UNL     1      25.895 -29.775  -6.093  1.00  0.00     0.011 A
HETATM    8  C18 UNL     1      26.330 -29.198  -7.296  1.00  0.00     0.040 A
HETATM    9  C19 UNL     1      27.144 -29.907  -8.180  1.00  0.00     0.099 A
HETATM   10  C20 UNL     1      27.536 -31.210  -7.867  1.00  0.00     0.110 A
HETATM   11  O8  UNL     1      28.293 -32.230  -8.446  1.00  0.00    -0.341 OA
HETATM   12  C21 UNL     1      27.769 -33.460  -7.869  1.00  0.00     0.145 C
HETATM   13  C22 UNL     1      26.310 -33.553  -8.325  1.00  0.00     0.034 C
HETATM   14  C23 UNL     1      25.490 -33.841  -7.091  1.00  0.00     0.009 C
HETATM   15  C24 UNL     1      26.438 -33.881  -5.970  1.00  0.00     0.013 C
HETATM   16  C25 UNL     1      25.998 -33.305  -4.685  1.00  0.00     0.037 C
HETATM   17  C26 UNL     1      25.790 -31.807  -4.592  1.00  0.00     0.049 C
ENDROOT
BRANCH   1  18
HETATM   18  S1  UNL     1      26.616 -34.103  -2.107  1.00  0.00    -0.089 SA
BRANCH  18  19
HETATM   19  C3  UNL     1      24.960 -34.115  -1.587  1.00  0.00     0.286 C
BRANCH  19  20
HETATM   20  C2  UNL     1      24.741 -34.691  -0.216  1.00  0.00     0.298 C
HETATM   21  O2  UNL     1      25.539 -34.520   0.704  1.00  0.00    -0.261 OA
BRANCH  20  22
HETATM   22  O1  UNL     1      23.606 -35.460   0.091  1.00  0.00    -0.324 OA
HETATM   23  C1  UNL     1      23.709 -36.812   0.479  1.00  0.00     0.213 C
ENDBRANCH  20  22
ENDBRANCH  19  20
BRANCH  19  24
HETATM   24  O3  UNL     1      24.508 -32.778  -1.497  1.00  0.00    -0.370 OA
HETATM   25  C4  UNL     1      23.235 -32.723  -2.038  1.00  0.00     0.204 C
ENDBRANCH  19  24
ENDBRANCH  18  19
ENDBRANCH   1  18
BRANCH   2  26
HETATM   26  O4  UNL     1      29.415 -33.867  -3.298  1.00  0.00    -0.356 OA
HETATM   27  C7  UNL     1      29.798 -35.076  -2.726  1.00  0.00     0.209 C
ENDBRANCH   2  26
BRANCH   3  28
HETATM   28  O5  UNL     1      29.520 -34.238  -6.092  1.00  0.00    -0.348 OA
BRANCH  28  29
HETATM   29  C9  UNL     1      30.573 -33.869  -6.846  1.00  0.00     0.260 C
HETATM   30  C10 UNL     1      31.310 -34.984  -7.585  1.00  0.00     0.061 C
HETATM   31  C11 UNL     1      32.748 -34.497  -7.759  1.00  0.00     0.007 C
HETATM   32  C12 UNL     1      33.437 -34.483  -6.391  1.00  0.00     0.026 C
HETATM   33  C13 UNL     1      32.309 -34.239  -5.388  1.00  0.00     0.171 C
HETATM   34  O6  UNL     1      31.505 -33.249  -5.962  1.00  0.00    -0.361 OA
ENDBRANCH  28  29
ENDBRANCH   3  28
BRANCH   9  35
HETATM   35  O7  UNL     1      27.586 -29.363  -9.373  1.00  0.00    -0.358 OA
ATOM     36  H7  UNL     1      27.237 -29.634 -10.214  1.00  0.00     0.217 HD
ENDBRANCH   9  35
TORSDOF 9
ENDMDL