MODEL 3
REMARK VINA RESULT: -6.851626781      1.678      2.583
REMARK  7 active torsions:
REMARK  status: ('A' for Active; 'I' for Inactive)
REMARK    1  A    between atoms: O1_2  and  C2_3
REMARK    2  A    between atoms: C6_7  and  N1_9
REMARK       I    between atoms: N2_12  and  C10_13
REMARK    3  A    between atoms: C10_13  and  C11_15
REMARK    4  A    between atoms: C11_15  and  C12_16
REMARK    5  A    between atoms: C12_16  and  C13_17
REMARK    6  A    between atoms: C18_22  and  C19_23
REMARK    7  A    between atoms: N5_29  and  C21_31
ROOT
HETATM    1  C11 UNL     1       9.353  -5.658 -10.859  1.00  0.00     0.078 C
HETATM    2  N5  UNL     1       8.106  -5.917 -11.343  1.00  0.00    -0.380 N
ATOM      3  H5  UNL     1       7.375  -5.751 -10.652  1.00  0.00     0.160 HD
ENDROOT
BRANCH   1   4
HETATM    4  C10 UNL     1      10.477  -6.599 -10.929  1.00  0.00     0.266 C
HETATM    5  N2  UNL     1      11.585  -6.526 -11.802  1.00  0.00    -0.344 N
HETATM    6  C9  UNL     1      12.581  -7.626 -11.667  1.00  0.00     0.145 C
HETATM    7  C25 UNL     1      11.797  -5.513 -12.770  1.00  0.00     0.145 C
HETATM    8  C8  UNL     1      13.518  -7.549 -12.874  1.00  0.00     0.137 C
HETATM    9  N1  UNL     1      14.143  -6.278 -12.807  1.00  0.00    -0.401 N
HETATM   10  C26 UNL     1      13.250  -5.165 -12.983  1.00  0.00     0.137 C
HETATM   11  O2  UNL     1      10.491  -7.587 -10.152  1.00  0.00    -0.266 OA
BRANCH   9  12
HETATM   12  C6  UNL     1      15.399  -6.115 -13.442  1.00  0.00     0.024 C
HETATM   13  C5  UNL     1      16.484  -7.014 -12.915  1.00  0.00     0.033 C
HETATM   14  C4  UNL     1      17.460  -6.243 -12.069  1.00  0.00     0.040 C
HETATM   15  C2  UNL     1      18.313  -5.321 -12.953  1.00  0.00     0.057 C
HETATM   16  C3  UNL     1      19.205  -6.226 -13.756  1.00  0.00     0.046 C
HETATM   17  C28 UNL     1      17.365  -4.598 -13.881  1.00  0.00     0.040 C
HETATM   18  C27 UNL     1      15.930  -4.701 -13.391  1.00  0.00     0.033 C
HETATM   19  C7  UNL     1      15.173  -6.424 -14.931  1.00  0.00     0.038 C
BRANCH  15  20
HETATM   20  O1  UNL     1      18.967  -4.479 -12.093  1.00  0.00    -0.385 OA
HETATM   21  C1  UNL     1      20.092  -3.856 -12.560  1.00  0.00     0.202 C
ENDBRANCH  15  20
ENDBRANCH   9  12
ENDBRANCH   1   4
BRANCH   1  22
HETATM   22  C12 UNL     1       9.833  -4.225 -10.890  1.00  0.00     0.101 C
BRANCH  22  23
HETATM   23  C13 UNL     1       8.826  -3.279 -11.408  1.00  0.00    -0.051 A
HETATM   24  C14 UNL     1       7.793  -2.725 -10.698  1.00  0.00     0.014 A
HETATM   25  C15 UNL     1       6.884  -1.838 -11.221  1.00  0.00    -0.061 A
HETATM   26  C16 UNL     1       5.779  -1.271 -10.385  1.00  0.00     0.048 C
HETATM   27  C17 UNL     1       6.974  -1.453 -12.543  1.00  0.00     0.021 A
HETATM   28  C18 UNL     1       8.004  -1.984 -13.315  1.00  0.00     0.005 A
HETATM   29  C20 UNL     1       8.891  -2.864 -12.754  1.00  0.00     0.022 A
BRANCH  28  30
HETATM   30  C19 UNL     1       8.082  -1.572 -14.710  1.00  0.00     0.120 C
HETATM   31  N3  UNL     1       7.523  -0.493 -15.139  1.00  0.00    -0.387 N
ATOM     32  H32 UNL     1       7.015   0.065 -14.452  1.00  0.00     0.157 HD
ATOM     33  H31 UNL     1       7.578  -0.205 -16.116  1.00  0.00     0.157 HD
HETATM   34  N4  UNL     1       8.787  -2.347 -15.663  1.00  0.00    -0.082 NA
ENDBRANCH  28  30
ENDBRANCH  22  23
ENDBRANCH   1  22
BRANCH   2  35
HETATM   35  C21 UNL     1       7.609  -6.350 -12.543  1.00  0.00     0.019 C
HETATM   36  C22 UNL     1       7.204  -7.843 -12.586  1.00  0.00     0.037 C
HETATM   37  C23 UNL     1       8.424  -6.115 -13.811  1.00  0.00     0.037 C
HETATM   38  C24 UNL     1       6.298  -5.605 -12.820  1.00  0.00     0.037 C
ENDBRANCH   2  35
TORSDOF 7
ENDMDL