MODEL 2
REMARK VINA RESULT: -7.626343204      1.668      2.290
REMARK  9 active torsions:
REMARK  status: ('A' for Active; 'I' for Inactive)
REMARK    1  A    between atoms: C6_7  and  C7_8
REMARK    2  A    between atoms: C7_8  and  N1_9
REMARK    3  A    between atoms: N1_9  and  C8_10
REMARK    4  A    between atoms: C9_13  and  N3_14
REMARK    5  A    between atoms: N3_14  and  C10_16
REMARK    6  A    between atoms: C10_16  and  C11_17
REMARK    7  A    between atoms: N4_20  and  C14_21
REMARK    8  A    between atoms: C14_21  and  C15_22
REMARK    9  A    between atoms: N6_32  and  C23_34
ROOT
HETATM    1  C8  UNL     1       8.243  -2.769 -14.208  1.00  0.00     0.287 A
HETATM    2  N2  UNL     1       9.553  -3.093 -14.478  1.00  0.00    -0.148 N
ATOM      3  H2  UNL     1      10.023  -3.789 -13.899  1.00  0.00     0.188 HD
HETATM    4  C9  UNL     1      10.224  -2.516 -15.482  1.00  0.00     0.696 A
HETATM    5  N5  UNL     1       9.591  -1.620 -16.228  1.00  0.00    -0.022 N
ATOM      6  H5  UNL     1      10.113  -1.189 -16.991  1.00  0.00     0.203 HD
HETATM    7  C22 UNL     1       8.322  -1.237 -16.056  1.00  0.00     0.696 A
HETATM    8  N6  UNL     1       7.596  -0.662 -16.889  1.00  0.00    -0.221 N
ATOM      9  H6  UNL     1       6.666  -0.433 -16.538  1.00  0.00     0.178 HD
HETATM   10  N7  UNL     1       7.662  -1.857 -14.983  1.00  0.00    -0.148 N
ATOM     11  H7  UNL     1       6.696  -1.597 -14.789  1.00  0.00     0.188 HD
ENDROOT
BRANCH   4  12
HETATM   12  N3  UNL     1      11.427  -2.901 -15.547  1.00  0.00    -0.225 N
ATOM     13  H3  UNL     1      12.107  -2.270 -15.124  1.00  0.00     0.177 HD
BRANCH  12  14
HETATM   14  C10 UNL     1      11.962  -4.056 -16.110  1.00  0.00     0.143 C
BRANCH  14  15
HETATM   15  C11 UNL     1      12.625  -4.829 -14.954  1.00  0.00     0.010 C
HETATM   16  C12 UNL     1      11.788  -5.930 -14.449  1.00  0.00     0.051 C
HETATM   17  C13 UNL     1      11.348  -5.747 -13.018  1.00  0.00     0.063 C
HETATM   18  N4  UNL     1      12.332  -5.254 -12.143  1.00  0.00    -0.373 N
HETATM   19  C20 UNL     1      13.473  -4.622 -12.724  1.00  0.00     0.127 C
HETATM   20  C21 UNL     1      12.967  -3.821 -13.898  1.00  0.00     0.027 C
BRANCH  18  21
HETATM   21  C14 UNL     1      12.470  -5.751 -10.852  1.00  0.00     0.067 C
BRANCH  21  22
HETATM   22  C15 UNL     1      11.847  -7.113 -10.662  1.00  0.00     0.024 C
HETATM   23  C16 UNL     1      12.894  -8.031 -10.016  1.00  0.00     0.010 C
HETATM   24  C17 UNL     1      12.834  -7.766  -8.538  1.00  0.00     0.001 C
HETATM   25  C18 UNL     1      11.626  -6.927  -8.270  1.00  0.00     0.001 C
HETATM   26  C19 UNL     1      10.828  -7.016  -9.557  1.00  0.00     0.010 C
ENDBRANCH  21  22
ENDBRANCH  18  21
ENDBRANCH  14  15
ENDBRANCH  12  14
ENDBRANCH   4  12
BRANCH   1  27
HETATM   27  N1  UNL     1       7.704  -3.442 -13.365  1.00  0.00    -0.382 NA
BRANCH  27  28
HETATM   28  C7  UNL     1       7.097  -4.188 -12.397  1.00  0.00     0.201 C
BRANCH  28  29
HETATM   29  C6  UNL     1       7.735  -3.641 -11.123  1.00  0.00     0.031 A
HETATM   30  C1  UNL     1       7.076  -2.694 -10.444  1.00  0.00     0.129 A
HETATM   31  F1  UNL     1       5.840  -2.329 -10.825  1.00  0.00    -0.205 F
HETATM   32  C2  UNL     1       7.715  -2.102  -9.349  1.00  0.00     0.043 A
HETATM   33  C3  UNL     1       8.996  -2.528  -9.026  1.00  0.00     0.003 A
HETATM   34  C4  UNL     1       9.641  -3.497  -9.724  1.00  0.00     0.001 A
HETATM   35  C5  UNL     1       8.973  -4.092 -10.842  1.00  0.00     0.017 A
ENDBRANCH  28  29
ENDBRANCH  27  28
ENDBRANCH   1  27
BRANCH   8  36
HETATM   36  C23 UNL     1       7.822  -0.255 -18.262  1.00  0.00     0.099 C
HETATM   37  C24 UNL     1       7.848   1.237 -18.278  1.00  0.00     0.026 C
HETATM   38  C25 UNL     1       6.667   1.926 -18.882  1.00  0.00     0.002 C
HETATM   39  C26 UNL     1       6.217   1.296 -20.195  1.00  0.00     0.000 C
HETATM   40  C27 UNL     1       5.945  -0.154 -20.044  1.00  0.00     0.002 C
HETATM   41  C28 UNL     1       6.574  -0.823 -18.944  1.00  0.00     0.026 C
ENDBRANCH   8  36
TORSDOF 9
ENDMDL