MODEL 5
REMARK VINA RESULT: -6.225514963      1.832      2.322
REMARK  7 active torsions:
REMARK  status: ('A' for Active; 'I' for Inactive)
REMARK    1  A    between atoms: C2_2  and  C3_3
REMARK    2  A    between atoms: C3_3  and  C4_4
REMARK    3  A    between atoms: C6_7  and  N1_8
REMARK       I    between atoms: N1_8  and  C7_10
REMARK       I    between atoms: C7_10  and  N2_12
REMARK    4  A    between atoms: N2_12  and  C8_14
REMARK    5  A    between atoms: C15_21  and  N3_23
REMARK    6  A    between atoms: N3_23  and  S1_25
REMARK    7  A    between atoms: S1_25  and  N4_28
ROOT
HETATM    1  C4  UNL     1      10.202  -4.655 -11.061  1.00  0.00     0.043 C
HETATM    2 CL1  UNL     1      11.430  -3.985  -9.908  1.00  0.00    -0.119 Cl
HETATM    3  C5  UNL     1      10.248  -3.790 -12.261  1.00  0.00     0.058 C
HETATM    4  C6  UNL     1      10.678  -4.441 -13.545  1.00  0.00     0.046 C
HETATM    5  C14 UNL     1      12.183  -4.839 -13.459  1.00  0.00     0.063 C
HETATM    6  C15 UNL     1      12.281  -6.202 -12.917  1.00  0.00     0.045 C
HETATM    7  C16 UNL     1      12.955  -7.257 -13.721  1.00  0.00     0.039 C
HETATM    8  C19 UNL     1      10.810  -6.540 -12.661  1.00  0.00     0.030 C
HETATM    9  C20 UNL     1      10.394  -6.116 -11.299  1.00  0.00     0.012 C
HETATM   10  C21 UNL     1       9.244  -6.969 -10.742  1.00  0.00     0.012 C
HETATM   11  C22 UNL     1      10.088  -5.785 -13.757  1.00  0.00    -0.016 C
HETATM   12  C23 UNL     1       8.615  -5.930 -13.703  1.00  0.00     0.018 C
HETATM   13  C24 UNL     1      10.483  -6.203 -15.157  1.00  0.00     0.018 C
ENDROOT
BRANCH   4  14
HETATM   14  N1  UNL     1      10.519  -3.502 -14.621  1.00  0.00    -0.333 N
HETATM   15  C7  UNL     1       9.427  -2.676 -14.922  1.00  0.00     0.317 C
HETATM   16  O1  UNL     1       8.351  -2.594 -14.282  1.00  0.00    -0.247 OA
HETATM   17  N2  UNL     1       9.488  -1.803 -16.077  1.00  0.00    -0.339 N
ATOM     18  H2  UNL     1      10.326  -1.800 -16.658  1.00  0.00     0.164 HD
ATOM     19  H1  UNL     1      11.313  -3.427 -15.257  1.00  0.00     0.165 HD
BRANCH  17  20
HETATM   20  C8  UNL     1       8.401  -0.950 -16.414  1.00  0.00     0.086 C
HETATM   21  C9  UNL     1       7.296  -1.683 -17.170  1.00  0.00     0.025 C
HETATM   22  C10 UNL     1       6.107  -0.725 -17.194  1.00  0.00     0.002 C
HETATM   23  C11 UNL     1       6.469   0.570 -17.885  1.00  0.00     0.000 C
HETATM   24  C12 UNL     1       7.667   1.232 -17.218  1.00  0.00     0.002 C
HETATM   25  C13 UNL     1       8.800   0.228 -17.266  1.00  0.00     0.025 C
ENDBRANCH  17  20
ENDBRANCH   4  14
BRANCH   1  26
HETATM   26  C3  UNL     1       8.933  -4.423 -10.217  1.00  0.00     0.026 C
BRANCH  26  27
HETATM   27  C2  UNL     1       8.301  -3.099 -10.589  1.00  0.00    -0.003 C
HETATM   28  C1  UNL     1       7.723  -2.406  -9.372  1.00  0.00     0.005 C
ENDBRANCH  26  27
ENDBRANCH   1  26
BRANCH   6  29
HETATM   29  N3  UNL     1      13.051  -6.173 -11.661  1.00  0.00    -0.293 N
ATOM     30  H3  UNL     1      13.016  -5.391 -11.007  1.00  0.00     0.174 HD
BRANCH  29  31
HETATM   31  S1  UNL     1      13.993  -7.544 -11.401  1.00  0.00     0.317 S
HETATM   32  O2  UNL     1      15.224  -7.591 -12.298  1.00  0.00    -0.183 OA
HETATM   33  O3  UNL     1      14.584  -7.459  -9.992  1.00  0.00    -0.183 OA
BRANCH  31  34
HETATM   34  N4  UNL     1      13.214  -9.051 -11.474  1.00  0.00    -0.303 N
HETATM   35  C17 UNL     1      14.007 -10.186 -11.778  1.00  0.00     0.163 C
HETATM   36  C18 UNL     1      12.202  -9.257 -10.486  1.00  0.00     0.163 C
ENDBRANCH  31  34
ENDBRANCH  29  31
ENDBRANCH   6  29
TORSDOF 7
ENDMDL