MODEL 2
REMARK VINA RESULT: -7.105955154      5.088     11.262
REMARK  7 active torsions:
REMARK  status: ('A' for Active; 'I' for Inactive)
REMARK    1  A    between atoms: C2_2  and  C3_3
REMARK    2  A    between atoms: C5_5  and  N1_6
REMARK       I    between atoms: N1_6  and  C6_8
REMARK       I    between atoms: C6_8  and  N2_10
REMARK    3  A    between atoms: N2_10  and  C7_12
REMARK    4  A    between atoms: C7_12  and  C8_13
REMARK    5  A    between atoms: C9_14  and  C10_15
REMARK    6  A    between atoms: C14_20  and  S1_21
REMARK    7  A    between atoms: S1_21  and  N3_24
ROOT
HETATM    1  C3  UNL     1      13.087  -6.259 -11.633  1.00  0.00    -0.033 A
HETATM    2  C4  UNL     1      14.289  -6.983 -11.495  1.00  0.00     0.038 A
HETATM    3  C5  UNL     1      14.608  -7.699 -10.382  1.00  0.00     0.037 A
HETATM    4  C11 UNL     1      13.647  -7.673  -9.358  1.00  0.00     0.038 A
HETATM    5  C12 UNL     1      12.472  -6.966  -9.489  1.00  0.00    -0.036 A
HETATM    6  C13 UNL     1      11.488  -6.955  -8.366  1.00  0.00     0.050 C
HETATM    7  C14 UNL     1      12.171  -6.246 -10.630  1.00  0.00     0.092 A
ENDROOT
BRANCH   7   8
HETATM    8  S1  UNL     1      10.677  -5.380 -10.713  1.00  0.00     0.277 S
HETATM    9  O2  UNL     1       9.482  -6.305 -10.512  1.00  0.00    -0.200 OA
HETATM   10  O3  UNL     1      10.566  -4.421  -9.529  1.00  0.00    -0.200 OA
BRANCH   8  11
HETATM   11  N3  UNL     1      10.477  -4.477 -12.119  1.00  0.00    -0.112 N
HETATM   12  C15 UNL     1       9.500  -3.695 -12.327  1.00  0.00     0.692 A
HETATM   13  N4  UNL     1       9.420  -2.996 -13.512  1.00  0.00    -0.195 N
HETATM   14  N5  UNL     1       8.525  -3.522 -11.422  1.00  0.00    -0.195 N
HETATM   15  C16 UNL     1       8.416  -2.172 -13.766  1.00  0.00     0.024 A
ATOM     16  H4  UNL     1      10.153  -3.117 -14.210  1.00  0.00     0.184 HD
HETATM   17  C17 UNL     1       8.311  -1.399 -15.055  1.00  0.00     0.068 C
HETATM   18  C18 UNL     1       7.424  -2.007 -12.824  1.00  0.00     0.050 A
HETATM   19  C19 UNL     1       7.467  -2.687 -11.626  1.00  0.00     0.024 A
HETATM   20  C20 UNL     1       6.419  -2.540 -10.584  1.00  0.00     0.068 C
ATOM     21  H5  UNL     1       8.579  -4.036 -10.543  1.00  0.00     0.184 HD
ATOM     22  H3  UNL     1      11.184  -4.563 -12.848  1.00  0.00     0.197 HD
ENDBRANCH   8  11
ENDBRANCH   7   8
BRANCH   1  23
HETATM   23  C2  UNL     1      12.831  -5.504 -12.883  1.00  0.00     0.036 C
HETATM   24  C1  UNL     1      13.910  -4.479 -13.157  1.00  0.00     0.010 C
ENDBRANCH   1  23
BRANCH   3  25
HETATM   25  N1  UNL     1      15.789  -8.460 -10.179  1.00  0.00    -0.309 N
HETATM   26  C6  UNL     1      15.995  -9.798 -10.489  1.00  0.00     0.320 C
HETATM   27  O1  UNL     1      15.133 -10.524 -10.997  1.00  0.00    -0.247 OA
HETATM   28  N2  UNL     1      17.263 -10.429 -10.228  1.00  0.00    -0.339 N
ATOM     29  H2  UNL     1      18.007  -9.870  -9.809  1.00  0.00     0.164 HD
ATOM     30  H1  UNL     1      16.577  -7.968  -9.756  1.00  0.00     0.170 HD
BRANCH  28  31
HETATM   31  C7  UNL     1      17.528 -11.808 -10.529  1.00  0.00     0.151 C
BRANCH  31  32
HETATM   32  C8  UNL     1      18.366 -12.421  -9.482  1.00  0.00    -0.010 C
HETATM   33  C9  UNL     1      19.079 -11.657  -8.667  1.00  0.00    -0.018 C
BRANCH  33  34
HETATM   34  C10 UNL     1      19.947 -12.196  -7.590  1.00  0.00     0.112 C
HETATM   35 BR1  UNL     1      19.107 -13.783  -6.871  1.00  0.00    -0.092 Br
ENDBRANCH  33  34
ENDBRANCH  31  32
ENDBRANCH  28  31
ENDBRANCH   3  25
TORSDOF 7
ENDMDL