MODEL 2
REMARK VINA RESULT: -6.244095692      1.558      1.820
REMARK  9 active torsions:
REMARK  status: ('A' for Active; 'I' for Inactive)
REMARK    1  A    between atoms: C2_2  and  C3_3
REMARK    2  A    between atoms: C3_3  and  C4_4
REMARK    3  A    between atoms: C6_6  and  O1_7
REMARK    4  A    between atoms: C7_11  and  C8_12
REMARK    5  A    between atoms: C8_12  and  C9_13
REMARK    6  A    between atoms: C12_16  and  O2_17
REMARK    7  A    between atoms: C13_21  and  C14_22
REMARK    8  A    between atoms: C25_36  and  C26_37
REMARK    9  A    between atoms: C26_37  and  O3_38
ROOT
HETATM    1  C4  UNL     1       8.501  -3.661 -11.343  1.00  0.00     0.119 A
HETATM    2  C5  UNL     1       7.954  -4.686 -12.169  1.00  0.00     0.185 A
HETATM    3  C6  UNL     1       8.261  -5.043 -13.564  1.00  0.00     0.141 C
HETATM    4  N1  UNL     1       9.299  -4.849 -14.430  1.00  0.00    -0.339 N
ATOM      5  H1  UNL     1       9.634  -5.759 -14.747  1.00  0.00     0.167 HD
HETATM    6  C7  UNL     1      10.073  -3.845 -15.043  1.00  0.00     0.062 C
HETATM    7  C12 UNL     1      11.491  -4.187 -15.329  1.00  0.00     0.163 C
HETATM    8  N2  UNL     1      12.275  -5.303 -15.374  1.00  0.00    -0.339 N
ATOM      9  H2  UNL     1      12.288  -5.642 -16.336  1.00  0.00     0.168 HD
HETATM   10  C13 UNL     1      13.090  -6.184 -14.580  1.00  0.00     0.015 C
HETATM   11  C18 UNL     1      12.492  -7.540 -14.388  1.00  0.00     0.098 C
HETATM   12  C19 UNL     1      12.907  -8.385 -13.281  1.00  0.00    -0.023 A
HETATM   13  C20 UNL     1      14.027  -9.189 -13.595  1.00  0.00     0.052 A
HETATM   14  C21 UNL     1      14.567 -10.090 -12.741  1.00  0.00     0.117 A
HETATM   15  F1  UNL     1      15.662 -10.831 -13.131  1.00  0.00    -0.206 F
HETATM   16  C22 UNL     1      14.012 -10.246 -11.502  1.00  0.00     0.044 A
HETATM   17  C23 UNL     1      12.931  -9.486 -11.170  1.00  0.00     0.033 A
HETATM   18  C24 UNL     1      12.338  -8.532 -12.033  1.00  0.00     0.035 A
HETATM   19  N3  UNL     1      11.217  -7.857 -11.499  1.00  0.00    -0.374 N
ATOM     20  H3  UNL     1      10.481  -8.468 -11.146  1.00  0.00     0.160 HD
HETATM   21  C25 UNL     1      10.943  -6.461 -11.370  1.00  0.00     0.198 C
HETATM   22  C27 UNL     1       9.557  -6.219 -10.823  1.00  0.00     0.245 C
HETATM   23  O4  UNL     1       9.175  -7.143 -10.097  1.00  0.00    -0.271 OA
HETATM   24  N4  UNL     1       8.930  -5.025 -11.204  1.00  0.00    -0.329 N
ENDROOT
BRANCH   6  25
HETATM   25  C8  UNL     1       9.835  -2.406 -14.896  1.00  0.00     0.065 C
BRANCH  25  26
HETATM   26  C9  UNL     1       8.504  -1.846 -15.290  1.00  0.00    -0.017 C
HETATM   27  C10 UNL     1       7.752  -1.307 -14.067  1.00  0.00     0.010 C
HETATM   28  C11 UNL     1       8.383  -0.959 -16.447  1.00  0.00     0.010 C
ENDBRANCH  25  26
ENDBRANCH   6  25
BRANCH   7  29
HETATM   29  O2  UNL     1      12.118  -3.054 -15.618  1.00  0.00    -0.345 OA
ATOM     30  H2  UNL     1      12.118  -2.966 -16.564  1.00  0.00     0.219 HD
ENDBRANCH   7  29
BRANCH   3  31
HETATM   31  O1  UNL     1       7.259  -5.730 -14.084  1.00  0.00    -0.348 OA
ATOM     32  H1  UNL     1       7.130  -6.535 -13.597  1.00  0.00     0.219 HD
ENDBRANCH   3  31
BRANCH  10  33
HETATM   33  C14 UNL     1      14.538  -6.070 -14.856  1.00  0.00     0.027 C
HETATM   34  C15 UNL     1      15.555  -5.486 -14.030  1.00  0.00    -0.086 C
HETATM   35  C16 UNL     1      15.768  -6.145 -12.654  1.00  0.00     0.043 C
HETATM   36  C17 UNL     1      15.701  -4.036 -13.790  1.00  0.00     0.043 C
ENDBRANCH  10  33
BRANCH   1  37
HETATM   37  C3  UNL     1       7.755  -3.097 -10.177  1.00  0.00     0.028 C
BRANCH  37  38
HETATM   38  C2  UNL     1       6.410  -2.555 -10.524  1.00  0.00    -0.002 C
HETATM   39  C1  UNL     1       6.329  -1.114 -10.144  1.00  0.00     0.005 C
ENDBRANCH  37  38
ENDBRANCH   1  37
BRANCH  21  40
HETATM   40  C26 UNL     1      11.830  -5.846 -10.259  1.00  0.00     0.198 C
BRANCH  40  41
HETATM   41  O3  UNL     1      11.674  -6.660  -9.143  1.00  0.00    -0.398 OA
ATOM     42  H3  UNL     1      12.488  -6.603  -8.657  1.00  0.00     0.209 HD
ENDBRANCH  40  41
ENDBRANCH  21  40
TORSDOF 9
ENDMDL