MODEL 1
REMARK VINA RESULT: -6.932401644      0.000      0.000
REMARK  9 active torsions:
REMARK  status: ('A' for Active; 'I' for Inactive)
REMARK    1  A    between atoms: C2_2  and  C4_4
REMARK    2  A    between atoms: C4_4  and  N1_5
REMARK    3  A    between atoms: C4_4  and  C21_30
REMARK       I    between atoms: N1_5  and  C5_7
REMARK    4  A    between atoms: C5_7  and  C6_9
REMARK    5  A    between atoms: C6_9  and  N2_11
REMARK    6  A    between atoms: C6_9  and  C15_24
REMARK       I    between atoms: N2_11  and  C8_13
REMARK    7  A    between atoms: C8_13  and  C9_15
REMARK    8  A    between atoms: C21_30  and  O3_31
REMARK    9  A    between atoms: C21_30  and  N4_33
ROOT
HETATM    1  C6  UNL     1       8.002  -4.238 -12.369  1.00  0.00     0.114 C
HETATM    2  C7  UNL     1       6.887  -5.178 -12.824  1.00  0.00     0.049 C
ENDROOT
BRANCH   1   3
HETATM    3  C5  UNL     1       9.159  -4.960 -11.881  1.00  0.00     0.250 C
HETATM    4  N1  UNL     1      10.462  -4.456 -11.674  1.00  0.00    -0.324 N
ATOM      5  H1  UNL     1      10.661  -3.478 -11.882  1.00  0.00     0.169 HD
HETATM    6  O1  UNL     1       9.008  -6.207 -11.588  1.00  0.00    -0.270 OA
BRANCH   4   7
HETATM    7  C4  UNL     1      11.555  -5.333 -11.156  1.00  0.00     0.066 C
BRANCH   7   8
HETATM    8  C2  UNL     1      11.181  -6.126  -9.992  1.00  0.00     0.032 C
HETATM    9  C1  UNL     1      11.047  -5.109  -8.814  1.00  0.00     0.016 C
HETATM   10  C3  UNL     1      12.407  -6.938  -9.538  1.00  0.00     0.016 C
ENDBRANCH   7   8
BRANCH   7  11
HETATM   11  C21 UNL     1      12.243  -5.892 -12.307  1.00  0.00     0.162 C
BRANCH  11  12
HETATM   12  O3  UNL     1      11.469  -6.819 -12.878  1.00  0.00    -0.345 OA
ATOM     13  H3  UNL     1      12.018  -7.483 -13.281  1.00  0.00     0.219 HD
ENDBRANCH  11  12
BRANCH  11  14
HETATM   14  N4  UNL     1      13.443  -5.750 -12.968  1.00  0.00    -0.352 N
HETATM   15  C22 UNL     1      14.411  -6.704 -13.419  1.00  0.00     0.082 C
HETATM   16  C23 UNL     1      14.735  -6.515 -14.904  1.00  0.00     0.032 C
HETATM   17  C24 UNL     1      15.717  -6.426 -12.697  1.00  0.00     0.025 C
HETATM   18  C25 UNL     1      16.243  -5.067 -12.991  1.00  0.00     0.004 C
HETATM   19  C26 UNL     1      15.243  -4.126 -13.573  1.00  0.00     0.025 C
HETATM   20  C27 UNL     1      13.833  -4.342 -13.250  1.00  0.00     0.082 C
HETATM   21  C28 UNL     1      12.937  -3.696 -14.256  1.00  0.00     0.032 C
ENDBRANCH  11  14
ENDBRANCH   7  11
ENDBRANCH   4   7
ENDBRANCH   1   3
BRANCH   1  22
HETATM   22  N2  UNL     1       8.429  -3.347 -13.458  1.00  0.00    -0.341 N
HETATM   23  C8  UNL     1       9.193  -3.755 -14.564  1.00  0.00     0.249 C
HETATM   24  O2  UNL     1       9.569  -4.960 -14.683  1.00  0.00    -0.271 OA
ATOM     25  H2  UNL     1       8.151  -2.367 -13.407  1.00  0.00     0.163 HD
BRANCH  23  26
HETATM   26  C9  UNL     1       9.552  -2.750 -15.598  1.00  0.00     0.281 C
HETATM   27  N3  UNL     1       9.008  -1.435 -15.274  1.00  0.00    -0.058 N
HETATM   28  C10 UNL     1       8.421  -0.879 -16.450  1.00  0.00     0.187 C
ATOM     29  H32 UNL     1       8.356  -1.465 -14.489  1.00  0.00     0.278 HD
ATOM     30  H31 UNL     1       9.703  -0.817 -14.856  1.00  0.00     0.278 HD
HETATM   31  C11 UNL     1       7.043  -1.496 -16.575  1.00  0.00     0.033 C
HETATM   32  C14 UNL     1       9.144  -1.642 -17.576  1.00  0.00     0.040 C
HETATM   33  C12 UNL     1       7.412  -2.963 -16.759  1.00  0.00     0.009 C
HETATM   34  C13 UNL     1       8.891  -3.028 -16.933  1.00  0.00     0.028 C
ENDBRANCH  23  26
ENDBRANCH   1  22
BRANCH   1  35
HETATM   35  C15 UNL     1       7.366  -3.346 -11.339  1.00  0.00     0.023 C
HETATM   36  C16 UNL     1       8.295  -3.014 -10.224  1.00  0.00     0.007 C
HETATM   37  C17 UNL     1       7.605  -2.187  -9.144  1.00  0.00     0.000 C
HETATM   38  C18 UNL     1       6.863  -1.024  -9.730  1.00  0.00     0.000 C
HETATM   39  C19 UNL     1       5.986  -1.415 -10.906  1.00  0.00     0.000 C
HETATM   40  C20 UNL     1       6.945  -1.995 -11.943  1.00  0.00     0.007 C
ENDBRANCH   1  35
TORSDOF 9
ENDMDL