MODEL 1
REMARK VINA RESULT: -6.929093268      0.000      0.000
REMARK  10 active torsions:
REMARK  status: ('A' for Active; 'I' for Inactive)
REMARK    1  A    between atoms: C4_4  and  N1_5
REMARK       I    between atoms: N1_5  and  C5_7
REMARK    2  A    between atoms: C5_7  and  C6_9
REMARK    3  A    between atoms: C6_9  and  C7_10
REMARK    4  A    between atoms: C6_9  and  N3_15
REMARK    5  A    between atoms: C7_10  and  C8_11
REMARK    6  A    between atoms: C8_11  and  C9_12
REMARK       I    between atoms: N3_15  and  C10_17
REMARK    7  A    between atoms: C10_17  and  C11_19
REMARK    8  A    between atoms: C13_21  and  C14_22
REMARK       I    between atoms: N4_27  and  C19_28
REMARK    9  A    between atoms: C19_28  and  O5_30
REMARK   10  A    between atoms: O5_30  and  C20_31
ROOT
HETATM    1  N3  UNL     1       9.401  -3.297 -12.102  1.00  0.00    -0.346 N
ATOM      2  H3  UNL     1       9.707  -2.344 -11.911  1.00  0.00     0.163 HD
HETATM    3  C10 UNL     1       9.642  -3.820 -13.367  1.00  0.00     0.241 C
HETATM    4  O3  UNL     1       9.272  -4.984 -13.653  1.00  0.00    -0.271 OA
ENDROOT
BRANCH   1   5
HETATM    5  C6  UNL     1       8.734  -4.033 -11.024  1.00  0.00     0.177 C
BRANCH   5   6
HETATM    6  C5  UNL     1       9.803  -4.631 -10.230  1.00  0.00     0.240 C
HETATM    7  N1  UNL     1      10.672  -5.581 -10.800  1.00  0.00    -0.355 N
ATOM      8  H1  UNL     1      10.543  -5.833 -11.781  1.00  0.00     0.162 HD
HETATM    9  O1  UNL     1       9.973  -4.317  -9.039  1.00  0.00    -0.271 OA
BRANCH   7  10
HETATM   10  C4  UNL     1      11.744  -6.219 -10.055  1.00  0.00     0.087 C
HETATM   11  C3  UNL     1      12.828  -6.674 -11.046  1.00  0.00     0.032 C
HETATM   12  C2  UNL     1      13.654  -7.574 -10.137  1.00  0.00     0.017 C
HETATM   13  C1  UNL     1      14.449  -8.592 -10.886  1.00  0.00     0.013 C
HETATM   14  C25 UNL     1      12.669  -8.185  -9.157  1.00  0.00     0.175 C
HETATM   15  C24 UNL     1      11.323  -7.515  -9.453  1.00  0.00     0.062 C
HETATM   16  F1  UNL     1      13.021  -7.770  -7.865  1.00  0.00    -0.249 F
ENDBRANCH   7  10
ENDBRANCH   5   6
BRANCH   5  17
HETATM   17  C7  UNL     1       7.841  -3.068 -10.263  1.00  0.00     0.043 C
BRANCH  17  18
HETATM   18  C8  UNL     1       6.518  -2.825 -10.878  1.00  0.00     0.102 C
BRANCH  18  19
HETATM   19  C9  UNL     1       6.179  -1.381 -10.612  1.00  0.00     0.231 C
HETATM   20  N2  UNL     1       6.894  -0.745  -9.539  1.00  0.00    -0.062 NA
HETATM   21  O2  UNL     1       5.350  -0.724 -11.237  1.00  0.00    -0.277 OA
ENDBRANCH  18  19
ENDBRANCH  17  18
ENDBRANCH   5  17
ENDBRANCH   1   5
BRANCH   3  22
HETATM   22  C11 UNL     1      10.340  -3.042 -14.435  1.00  0.00     0.182 C
HETATM   23  C12 UNL     1      11.840  -3.151 -14.262  1.00  0.00     0.042 C
HETATM   24  C13 UNL     1      12.399  -3.708 -15.521  1.00  0.00     0.013 C
HETATM   25  C18 UNL     1      11.217  -4.279 -16.239  1.00  0.00     0.134 C
HETATM   26  N4  UNL     1      10.075  -3.538 -15.756  1.00  0.00    -0.314 N
HETATM   27  C19 UNL     1       8.873  -3.344 -16.496  1.00  0.00     0.364 C
HETATM   28  O4  UNL     1       8.779  -3.832 -17.670  1.00  0.00    -0.238 OA
BRANCH  24  29
HETATM   29  C14 UNL     1      13.408  -4.827 -15.312  1.00  0.00    -0.046 C
HETATM   30  C15 UNL     1      14.145  -4.476 -14.015  1.00  0.00     0.015 C
HETATM   31  C16 UNL     1      12.613  -6.106 -15.110  1.00  0.00     0.015 C
HETATM   32  C17 UNL     1      14.423  -4.925 -16.394  1.00  0.00     0.015 C
ENDBRANCH  24  29
BRANCH  27  33
HETATM   33  O5  UNL     1       7.787  -2.663 -16.049  1.00  0.00    -0.294 OA
BRANCH  33  34
HETATM   34  C20 UNL     1       7.534  -1.311 -15.992  1.00  0.00     0.061 C
HETATM   35  C21 UNL     1       7.382  -0.888 -14.550  1.00  0.00     0.046 C
HETATM   36  C22 UNL     1       8.603  -0.425 -16.573  1.00  0.00     0.046 C
HETATM   37  C23 UNL     1       6.247  -0.924 -16.716  1.00  0.00     0.046 C
ENDBRANCH  33  34
ENDBRANCH  27  33
ENDBRANCH   3  22
TORSDOF 10
ENDMDL