MODEL 1
REMARK VINA RESULT: -6.934033102      0.000      0.000
REMARK  7 active torsions:
REMARK  status: ('A' for Active; 'I' for Inactive)
REMARK    1  A    between atoms: C4_4  and  N1_5
REMARK       I    between atoms: N1_5  and  C5_7
REMARK    2  A    between atoms: C5_7  and  C6_9
REMARK    3  A    between atoms: C9_12  and  C10_13
REMARK    4  A    between atoms: C10_13  and  N2_14
REMARK    5  A    between atoms: N2_14  and  S1_16
REMARK    6  A    between atoms: S1_16  and  N3_19
REMARK    7  A    between atoms: N3_19  and  C11_21
ROOT
HETATM    1  C6  UNL     1       8.845  -2.085 -13.793  1.00  0.00     0.078 C
HETATM    2  C7  UNL     1       9.453  -3.474 -13.817  1.00  0.00     0.014 C
HETATM    3  C8  UNL     1       9.913  -3.759 -12.413  1.00  0.00     0.007 C
HETATM    4  C9  UNL     1       8.689  -3.971 -11.560  1.00  0.00     0.004 C
HETATM    5  C18 UNL     1       7.478  -3.296 -12.084  1.00  0.00     0.007 C
HETATM    6  C19 UNL     1       7.723  -1.990 -12.794  1.00  0.00     0.014 C
ENDROOT
BRANCH   4   7
HETATM    7  C10 UNL     1       8.995  -3.395 -10.188  1.00  0.00     0.138 C
BRANCH   7   8
HETATM    8  N2  UNL     1       9.065  -4.416  -9.185  1.00  0.00    -0.302 N
ATOM      9  H2  UNL     1       8.259  -4.716  -8.636  1.00  0.00     0.173 HD
BRANCH   8  10
HETATM   10  S1  UNL     1      10.621  -5.082  -8.996  1.00  0.00     0.315 S
HETATM   11  O2  UNL     1      11.635  -4.026  -9.343  1.00  0.00    -0.183 OA
HETATM   12  O3  UNL     1      10.872  -5.478  -7.548  1.00  0.00    -0.183 OA
BRANCH  10  13
HETATM   13  N3  UNL     1      10.907  -6.424 -10.029  1.00  0.00    -0.296 N
ATOM     14  H3  UNL     1      10.176  -7.065 -10.335  1.00  0.00     0.174 HD
BRANCH  13  15
HETATM   15  C11 UNL     1      12.292  -6.549 -10.419  1.00  0.00     0.117 C
HETATM   16  C12 UNL     1      12.995  -7.373  -9.358  1.00  0.00     0.028 C
HETATM   17  C13 UNL     1      14.407  -7.744  -9.752  1.00  0.00     0.002 C
HETATM   18  C14 UNL     1      14.448  -8.370 -11.132  1.00  0.00     0.002 C
HETATM   19  C15 UNL     1      13.042  -8.495 -11.706  1.00  0.00     0.027 C
HETATM   20  C16 UNL     1      12.484  -7.086 -11.799  1.00  0.00     0.054 C
HETATM   21  C17 UNL     1      11.178  -7.073 -12.570  1.00  0.00     0.035 C
HETATM   22 CL1  UNL     1      13.642  -6.096 -12.680  1.00  0.00    -0.117 Cl
ENDBRANCH  13  15
ENDBRANCH  10  13
ENDBRANCH   8  10
ENDBRANCH   7   8
ENDBRANCH   4   7
BRANCH   1  23
HETATM   23  C5  UNL     1       8.278  -1.840 -15.141  1.00  0.00     0.222 C
HETATM   24  N1  UNL     1       8.495  -0.629 -15.850  1.00  0.00    -0.356 N
ATOM     25  H1  UNL     1       9.059   0.107 -15.426  1.00  0.00     0.162 HD
HETATM   26  O1  UNL     1       7.584  -2.759 -15.646  1.00  0.00    -0.273 OA
BRANCH  24  27
HETATM   27  C4  UNL     1       7.934  -0.425 -17.150  1.00  0.00     0.088 C
HETATM   28  C3  UNL     1       8.771  -1.083 -18.249  1.00  0.00     0.049 C
HETATM   29  C2  UNL     1       7.899  -1.068 -19.470  1.00  0.00     0.077 C
HETATM   30  C1  UNL     1       8.646  -1.739 -20.599  1.00  0.00     0.032 C
HETATM   31  N4  UNL     1       7.361   0.204 -19.794  1.00  0.00    -0.405 N
HETATM   32  C21 UNL     1       7.662   1.290 -18.964  1.00  0.00     0.022 C
HETATM   33  C24 UNL     1       6.003   0.090 -20.238  1.00  0.00     0.144 C
HETATM   34  C20 UNL     1       7.853   1.027 -17.513  1.00  0.00     0.055 C
HETATM   35  C22 UNL     1       8.930   1.969 -19.505  1.00  0.00     0.038 C
HETATM   36  C23 UNL     1       6.560   2.331 -19.103  1.00  0.00     0.038 C
ENDBRANCH  24  27
ENDBRANCH   1  23
TORSDOF 7
ENDMDL