MODEL 5
REMARK VINA RESULT: -5.718021507      3.296      7.799
REMARK  9 active torsions:
REMARK  status: ('A' for Active; 'I' for Inactive)
REMARK    1  A    between atoms: C2_2  and  C4_4
REMARK    2  A    between atoms: C5_6  and  C6_7
REMARK    3  A    between atoms: C9_12  and  C10_13
REMARK    4  A    between atoms: C10_13  and  C11_14
REMARK    5  A    between atoms: C11_14  and  C13_16
REMARK    6  A    between atoms: C13_16  and  C14_17
REMARK    7  A    between atoms: C14_17  and  C15_18
REMARK    8  A    between atoms: C22_30  and  C23_31
REMARK    9  A    between atoms: C26_36  and  O4_37
ROOT
HETATM    1  C6  UNL     1      10.865  -5.573 -12.828  1.00  0.00     0.191 C
HETATM    2  C7  UNL     1      11.783  -4.998 -13.906  1.00  0.00     0.306 C
HETATM    3  O1  UNL     1      11.628  -3.719 -14.017  1.00  0.00    -0.256 OA
HETATM    4  N1  UNL     1      12.605  -5.784 -14.595  1.00  0.00    -0.385 NA
HETATM    5  C8  UNL     1      13.266  -6.508 -15.201  1.00  0.00     0.184 C
HETATM    6  C9  UNL     1      14.783  -6.069 -15.392  1.00  0.00     0.137 C
HETATM    7  N2  UNL     1      15.573  -7.225 -15.054  1.00  0.00    -0.349 N
ATOM      8  H2  UNL     1      15.810  -7.870 -15.808  1.00  0.00     0.163 HD
HETATM    9  C17 UNL     1      16.043  -7.531 -13.768  1.00  0.00     0.240 C
HETATM   10  O2  UNL     1      16.608  -8.625 -13.593  1.00  0.00    -0.271 OA
HETATM   11  C18 UNL     1      15.913  -6.626 -12.587  1.00  0.00     0.174 C
HETATM   12  C19 UNL     1      17.180  -5.823 -12.367  1.00  0.00     0.042 C
HETATM   13  N3  UNL     1      15.679  -7.426 -11.408  1.00  0.00    -0.342 N
HETATM   14  C20 UNL     1      16.809  -7.726 -10.543  1.00  0.00     0.153 C
HETATM   15  C21 UNL     1      14.407  -7.979 -11.033  1.00  0.00     0.243 C
HETATM   16  O3  UNL     1      14.428  -9.222 -10.659  1.00  0.00    -0.271 OA
HETATM   17  C22 UNL     1      13.112  -7.318 -11.026  1.00  0.00     0.179 C
HETATM   18  N4  UNL     1      12.302  -7.621 -12.206  1.00  0.00    -0.360 N
ATOM     19  H4  UNL     1      12.638  -8.367 -12.816  1.00  0.00     0.162 HD
HETATM   20  C26 UNL     1      11.117  -6.990 -12.580  1.00  0.00     0.130 C
ENDROOT
BRANCH   6  21
HETATM   21  C10 UNL     1      14.761  -5.729 -16.844  1.00  0.00     0.036 C
BRANCH  21  22
HETATM   22  C11 UNL     1      15.055  -4.394 -17.353  1.00  0.00    -0.016 C
HETATM   23  C12 UNL     1      13.772  -3.887 -18.041  1.00  0.00     0.010 C
BRANCH  22  24
HETATM   24  C13 UNL     1      16.100  -4.369 -18.460  1.00  0.00     0.004 C
BRANCH  24  25
HETATM   25  C14 UNL     1      17.397  -4.985 -17.956  1.00  0.00     0.000 C
BRANCH  25  26
HETATM   26  C15 UNL     1      18.103  -4.074 -17.000  1.00  0.00    -0.005 C
HETATM   27  C16 UNL     1      18.436  -4.863 -15.760  1.00  0.00     0.005 C
ENDBRANCH  25  26
ENDBRANCH  24  25
ENDBRANCH  22  24
ENDBRANCH  21  22
ENDBRANCH   6  21
BRANCH   1  28
HETATM   28  C5  UNL     1      10.798  -4.665 -11.683  1.00  0.00     0.021 C
HETATM   29  C4  UNL     1       9.648  -4.349 -11.121  1.00  0.00     0.036 C
HETATM   30 CL1  UNL     1       8.139  -5.017 -11.727  1.00  0.00    -0.084 Cl
BRANCH  29  31
HETATM   31  C2  UNL     1       9.561  -3.435  -9.970  1.00  0.00    -0.050 C
HETATM   32  C1  UNL     1      10.550  -3.127  -9.284  1.00  0.00     0.020 C
HETATM   33  C3  UNL     1       8.195  -2.920  -9.622  1.00  0.00     0.049 C
ENDBRANCH  29  31
ENDBRANCH   1  28
BRANCH  20  34
HETATM   34  O4  UNL     1      10.067  -7.764 -12.740  1.00  0.00    -0.349 OA
ATOM     35  H4  UNL     1      10.199  -8.485 -13.345  1.00  0.00     0.219 HD
ENDBRANCH  20  34
BRANCH  17  36
HETATM   36  C23 UNL     1      12.290  -7.688  -9.810  1.00  0.00     0.018 A
HETATM   37  C24 UNL     1      12.854  -7.526  -8.423  1.00  0.00     0.007 A
HETATM   38  C25 UNL     1      11.627  -6.757  -8.915  1.00  0.00     0.007 A
ENDBRANCH  17  36
TORSDOF 9
ENDMDL