MODEL 5
REMARK VINA RESULT: -7.052877367      3.493      8.652
REMARK  8 active torsions:
REMARK  status: ('A' for Active; 'I' for Inactive)
REMARK    1  A    between atoms: C5_5  and  C6_6
REMARK    2  A    between atoms: C6_6  and  N1_7
REMARK       I    between atoms: N1_7  and  C7_9
REMARK    3  A    between atoms: C7_9  and  C8_11
REMARK    4  A    between atoms: C8_11  and  C9_12
REMARK    5  A    between atoms: C12_15  and  O2_16
REMARK    6  A    between atoms: O2_16  and  C13_17
REMARK       I    between atoms: C13_17  and  N2_19
REMARK    7  A    between atoms: C17_28  and  N5_29
REMARK       I    between atoms: N5_29  and  C18_31
REMARK    8  A    between atoms: C18_31  and  C19_33
ROOT
HETATM    1  C13 UNL     1      15.470  -8.140 -10.600  1.00  0.00     0.366 C
HETATM    2  O3  UNL     1      16.324  -8.508  -9.724  1.00  0.00    -0.238 OA
HETATM    3  N2  UNL     1      15.864  -7.556 -11.814  1.00  0.00    -0.278 N
HETATM    4  C14 UNL     1      14.967  -7.109 -12.883  1.00  0.00     0.317 C
HETATM    5  F1  UNL     1      14.878  -8.068 -13.858  1.00  0.00    -0.221 F
HETATM    6  C15 UNL     1      15.649  -5.882 -13.364  1.00  0.00     0.067 A
HETATM    7  C16 UNL     1      16.965  -5.963 -13.005  1.00  0.00     0.068 A
HETATM    8  N3  UNL     1      17.560  -4.850 -13.439  1.00  0.00    -0.300 N
ATOM      9  H3  UNL     1      18.547  -4.621 -13.320  1.00  0.00     0.186 HD
HETATM   10  N4  UNL     1      16.650  -4.081 -14.057  1.00  0.00    -0.285 N
ATOM     11  H4  UNL     1      16.848  -3.174 -14.480  1.00  0.00     0.188 HD
HETATM   12  C17 UNL     1      15.446  -4.670 -14.043  1.00  0.00     0.135 A
HETATM   13  C23 UNL     1      17.181  -7.273 -12.268  1.00  0.00     0.078 C
HETATM   14  C24 UNL     1      18.095  -7.016 -11.118  1.00  0.00     0.045 C
HETATM   15  C25 UNL     1      17.716  -8.290 -13.241  1.00  0.00     0.045 C
ENDROOT
BRANCH   1  16
HETATM   16  O2  UNL     1      14.156  -8.378 -10.214  1.00  0.00    -0.298 OA
BRANCH  16  17
HETATM   17  C12 UNL     1      13.388  -7.527  -9.421  1.00  0.00     0.134 C
HETATM   18  C11 UNL     1      12.472  -8.153  -8.442  1.00  0.00     0.033 C
HETATM   19  C10 UNL     1      11.789  -6.872  -7.903  1.00  0.00     0.007 C
HETATM   20  C9  UNL     1      11.449  -6.187  -9.221  1.00  0.00    -0.003 C
HETATM   21  C26 UNL     1      12.566  -6.542 -10.158  1.00  0.00     0.037 C
BRANCH  20  22
HETATM   22  C8  UNL     1      11.133  -4.750  -9.098  1.00  0.00     0.107 C
BRANCH  22  23
HETATM   23  C7  UNL     1      10.029  -4.216  -9.866  1.00  0.00     0.217 C
HETATM   24  N1  UNL     1      10.030  -4.335 -11.282  1.00  0.00    -0.361 N
ATOM     25  H1  UNL     1      10.817  -4.805 -11.730  1.00  0.00     0.162 HD
HETATM   26  O1  UNL     1       9.049  -3.641  -9.349  1.00  0.00    -0.274 OA
BRANCH  24  27
HETATM   27  C6  UNL     1       8.973  -3.824 -12.114  1.00  0.00     0.128 C
BRANCH  27  28
HETATM   28  C5  UNL     1       8.390  -4.806 -13.070  1.00  0.00     0.012 A
HETATM   29  C2  UNL     1       7.873  -4.431 -14.397  1.00  0.00    -0.042 A
HETATM   30  C1  UNL     1       7.717  -3.009 -14.839  1.00  0.00     0.015 C
HETATM   31  C3  UNL     1       8.067  -5.453 -15.516  1.00  0.00     0.015 C
HETATM   32  C4  UNL     1       6.887  -4.820 -13.293  1.00  0.00     0.016 A
ENDBRANCH  27  28
ENDBRANCH  24  27
ENDBRANCH  22  23
ENDBRANCH  20  22
ENDBRANCH  16  17
ENDBRANCH   1  16
BRANCH  12  33
HETATM   33  N5  UNL     1      14.310  -4.288 -14.518  1.00  0.00    -0.311 N
HETATM   34  C18 UNL     1      13.147  -4.172 -13.757  1.00  0.00     0.227 C
HETATM   35  O4  UNL     1      13.151  -4.022 -12.517  1.00  0.00    -0.273 OA
ATOM     36  H5  UNL     1      14.259  -4.057 -15.510  1.00  0.00     0.170 HD
BRANCH  34  37
HETATM   37  C19 UNL     1      11.777  -4.220 -14.382  1.00  0.00     0.078 A
HETATM   38  C20 UNL     1      11.712  -4.754 -15.771  1.00  0.00     0.014 A
HETATM   39  C21 UNL     1      11.147  -3.445 -16.280  1.00  0.00     0.002 A
HETATM   40  C22 UNL     1      11.274  -2.892 -14.885  1.00  0.00     0.014 A
ENDBRANCH  34  37
ENDBRANCH  12  33
TORSDOF 8
ENDMDL