MODEL 2
REMARK VINA RESULT: -8.411872602      1.081      1.430
REMARK  4 active torsions:
REMARK  status: ('A' for Active; 'I' for Inactive)
REMARK    1  A    between atoms: C2_2  and  C3_3
REMARK    2  A    between atoms: C3_3  and  C4_4
REMARK    3  A    between atoms: C4_4  and  C5_5
REMARK    4  A    between atoms: C5_5  and  C8_8
ROOT
HETATM    1  C8  UNL     1      63.632  47.151  29.006  1.00  0.00     0.002 C
HETATM    2  C9  UNL     1      64.781  46.718  28.155  1.00  0.00     0.006 C
HETATM    3  C10 UNL     1      66.063  47.193  28.893  1.00  0.00     0.008 C
HETATM    4  C11 UNL     1      65.550  47.188  30.314  1.00  0.00     0.028 C
HETATM    5  C12 UNL     1      66.471  47.731  31.313  1.00  0.00     0.234 C
HETATM    6  C13 UNL     1      65.679  48.047  32.584  1.00  0.00     0.053 C
HETATM    7  C14 UNL     1      64.361  47.376  32.564  1.00  0.00     0.010 C
HETATM    8  C15 UNL     1      63.487  47.813  31.411  1.00  0.00     0.010 C
HETATM    9  C16 UNL     1      64.254  47.943  30.104  1.00  0.00    -0.034 C
HETATM   10  C17 UNL     1      64.622  49.349  29.799  1.00  0.00     0.016 C
HETATM   11  C18 UNL     1      66.793  47.436  33.340  1.00  0.00     0.229 C
HETATM   12  C19 UNL     1      66.565  46.279  34.213  1.00  0.00     0.038 C
HETATM   13  C20 UNL     1      67.470  45.220  33.609  1.00  0.00     0.032 C
HETATM   14  C21 UNL     1      67.222  45.509  32.118  1.00  0.00     0.273 C
HETATM   15  N1  UNL     1      67.289  46.901  32.094  1.00  0.00     0.099 N
ENDROOT
BRANCH   1  16
HETATM   16  C5  UNL     1      62.458  47.660  28.333  1.00  0.00    -0.043 C
HETATM   17  C6  UNL     1      62.104  49.112  28.624  1.00  0.00     0.015 C
HETATM   18  C7  UNL     1      62.559  47.619  26.794  1.00  0.00     0.015 C
BRANCH  16  19
HETATM   19  C4  UNL     1      61.193  46.933  28.636  1.00  0.00     0.009 C
BRANCH  19  20
HETATM   20  C3  UNL     1      59.891  47.514  28.275  1.00  0.00     0.000 C
BRANCH  20  21
HETATM   21  C2  UNL     1      58.860  46.670  29.096  1.00  0.00    -0.005 C
HETATM   22  C1  UNL     1      59.490  46.308  30.399  1.00  0.00     0.005 C
ENDBRANCH  20  21
ENDBRANCH  19  20
ENDBRANCH  16  19
ENDBRANCH   1  16
TORSDOF 4
ENDMDL