MODEL 2
REMARK VINA RESULT: -10.101297466      0.663      1.192
REMARK  4 active torsions:
REMARK  status: ('A' for Active; 'I' for Inactive)
REMARK    1  A    between atoms: C2_2  and  C4_4
REMARK    2  A    between atoms: C10_10  and  C11_11
REMARK    3  A    between atoms: C11_11  and  C12_12
REMARK    4  A    between atoms: C12_12  and  C13_13
ROOT
HETATM    1  C4  UNL     1      66.269  47.302  33.098  1.00  0.00    -0.017 C
HETATM    2  C5  UNL     1      66.687  46.197  34.042  1.00  0.00     0.018 C
HETATM    3  C6  UNL     1      67.715  45.371  33.307  1.00  0.00    -0.012 C
HETATM    4  C7  UNL     1      68.926  46.225  33.137  1.00  0.00     0.009 C
HETATM    5  C8  UNL     1      68.543  47.396  32.222  1.00  0.00    -0.012 C
HETATM    6  C9  UNL     1      68.123  46.735  30.911  1.00  0.00     0.014 C
HETATM    7  C10 UNL     1      66.867  45.942  31.070  1.00  0.00    -0.039 C
HETATM    8  C20 UNL     1      67.136  44.811  32.045  1.00  0.00     0.014 C
HETATM    9  C21 UNL     1      65.781  46.783  31.802  1.00  0.00     0.023 C
HETATM   10  C22 UNL     1      67.454  48.199  32.819  1.00  0.00     0.018 C
ENDROOT
BRANCH   7  11
HETATM   11  C11 UNL     1      66.240  45.531  29.816  1.00  0.00     0.011 C
BRANCH  11  12
HETATM   12  C12 UNL     1      65.952  46.403  28.689  1.00  0.00     0.034 C
BRANCH  12  13
HETATM   13  C13 UNL     1      64.538  46.606  28.236  1.00  0.00     0.190 C
HETATM   14  N1  UNL     1      64.470  47.283  26.949  1.00  0.00    -0.066 N
HETATM   15  C14 UNL     1      63.809  48.567  27.014  1.00  0.00     0.186 C
ATOM     16  H12 UNL     1      65.399  47.374  26.537  1.00  0.00     0.278 HD
ATOM     17  H11 UNL     1      64.033  46.686  26.247  1.00  0.00     0.278 HD
HETATM   18  C15 UNL     1      64.605  49.453  27.957  1.00  0.00     0.033 C
HETATM   19  C19 UNL     1      62.364  48.421  27.473  1.00  0.00     0.033 C
HETATM   20  C16 UNL     1      64.446  48.846  29.334  1.00  0.00     0.009 C
HETATM   21  C17 UNL     1      63.791  47.527  29.221  1.00  0.00     0.016 C
HETATM   22  C18 UNL     1      62.361  47.596  28.740  1.00  0.00     0.009 C
ENDBRANCH  12  13
ENDBRANCH  11  12
ENDBRANCH   7  11
BRANCH   1  23
HETATM   23  C2  UNL     1      65.179  48.032  33.776  1.00  0.00    -0.084 C
HETATM   24  C1  UNL     1      65.446  49.105  34.493  1.00  0.00     0.015 C
HETATM   25  C3  UNL     1      63.770  47.586  33.668  1.00  0.00     0.043 C
ENDBRANCH   1  23
TORSDOF 4
ENDMDL