MODEL 1
REMARK VINA RESULT: -9.595459903      0.000      0.000
REMARK  5 active torsions:
REMARK  status: ('A' for Active; 'I' for Inactive)
REMARK    1  A    between atoms: C2_2  and  C3_3
REMARK    2  A    between atoms: C8_8  and  C9_9
REMARK    3  A    between atoms: C9_9  and  C10_10
REMARK    4  A    between atoms: C10_10  and  C11_11
REMARK    5  A    between atoms: C11_11  and  N1_12
ROOT
HETATM    1  C3  UNL     1      64.814  48.221  32.703  1.00  0.00    -0.022 C
HETATM    2  C4  UNL     1      64.630  49.705  33.057  1.00  0.00     0.020 C
HETATM    3  C5  UNL     1      64.099  47.953  31.392  1.00  0.00     0.019 C
HETATM    4  C6  UNL     1      64.990  48.332  30.278  1.00  0.00    -0.004 C
HETATM    5  C7  UNL     1      64.482  48.438  28.924  1.00  0.00    -0.001 A
HETATM    6  C8  UNL     1      63.269  48.106  28.229  1.00  0.00    -0.005 A
HETATM    7  C12 UNL     1      64.052  46.963  28.597  1.00  0.00    -0.005 A
HETATM    8  C13 UNL     1      65.316  46.389  28.121  1.00  0.00     0.006 C
HETATM    9  C14 UNL     1      66.181  46.256  29.386  1.00  0.00     0.006 C
HETATM   10  C15 UNL     1      66.262  47.485  30.213  1.00  0.00    -0.001 C
HETATM   11  C16 UNL     1      66.783  47.141  31.563  1.00  0.00    -0.029 C
HETATM   12  C17 UNL     1      68.312  47.286  31.538  1.00  0.00     0.016 C
HETATM   13  C18 UNL     1      66.523  45.719  31.989  1.00  0.00     0.088 C
HETATM   14  C19 UNL     1      66.884  45.803  33.450  1.00  0.00     0.128 C
HETATM   15  O1  UNL     1      67.219  44.833  34.095  1.00  0.00    -0.298 OA
HETATM   16  C20 UNL     1      66.754  47.223  33.909  1.00  0.00     0.084 C
HETATM   17  C21 UNL     1      66.277  47.967  32.680  1.00  0.00     0.013 C
ENDROOT
BRANCH   6  18
HETATM   18  C9  UNL     1      61.903  48.242  28.847  1.00  0.00     0.007 C
BRANCH  18  19
HETATM   19  C10 UNL     1      60.776  47.556  28.201  1.00  0.00     0.027 C
BRANCH  19  20
HETATM   20  C11 UNL     1      59.844  46.724  28.978  1.00  0.00     0.229 C
BRANCH  20  21
HETATM   21  N1  UNL     1      60.408  45.686  29.785  1.00  0.00    -0.079 N
ATOM     22  H13 UNL     1      61.395  45.576  29.554  1.00  0.00     0.274 HD
ATOM     23  H12 UNL     1      60.474  46.007  30.751  1.00  0.00     0.274 HD
ATOM     24  H11 UNL     1      59.952  44.774  29.761  1.00  0.00     0.274 HD
ENDBRANCH  20  21
ENDBRANCH  19  20
ENDBRANCH  18  19
ENDBRANCH   6  18
BRANCH   1  25
HETATM   25  C2  UNL     1      64.077  47.453  33.739  1.00  0.00    -0.027 C
HETATM   26  C1  UNL     1      63.164  48.077  34.466  1.00  0.00     0.007 C
ENDBRANCH   1  25
TORSDOF 5
ENDMDL