MODEL 5
REMARK VINA RESULT: -8.381416656      2.732      5.710
REMARK  5 active torsions:
REMARK  status: ('A' for Active; 'I' for Inactive)
REMARK    1  A    between atoms: C2_2  and  C3_3
REMARK    2  A    between atoms: C2_2  and  C7_7
REMARK    3  A    between atoms: C3_3  and  C4_4
REMARK    4  A    between atoms: C4_4  and  C5_5
REMARK    5  A    between atoms: C11_11  and  C12_12
ROOT
HETATM    1  C7  UNL     1      66.602  46.616  32.767  1.00  0.00    -0.009 C
HETATM    2  C8  UNL     1      66.458  45.083  32.912  1.00  0.00     0.020 C
HETATM    3  C9  UNL     1      67.408  45.008  31.700  1.00  0.00    -0.004 C
HETATM    4  C10 UNL     1      66.576  45.134  30.472  1.00  0.00     0.017 C
HETATM    5  C11 UNL     1      66.083  46.559  30.336  1.00  0.00    -0.018 C
HETATM    6  C16 UNL     1      67.251  47.421  29.997  1.00  0.00     0.012 C
HETATM    7  C17 UNL     1      68.308  47.249  31.033  1.00  0.00     0.011 C
HETATM    8  C18 UNL     1      67.937  46.367  32.179  1.00  0.00    -0.029 C
HETATM    9  C19 UNL     1      69.082  46.141  33.100  1.00  0.00     0.016 C
HETATM   10  C20 UNL     1      65.586  46.969  31.710  1.00  0.00     0.026 C
ENDROOT
BRANCH   5  11
HETATM   11  C12 UNL     1      65.024  46.629  29.293  1.00  0.00     0.091 C
HETATM   12  C13 UNL     1      65.417  46.007  27.983  1.00  0.00     0.033 C
HETATM   13  C14 UNL     1      64.589  46.782  26.984  1.00  0.00     0.075 C
HETATM   14  C15 UNL     1      64.366  48.074  27.673  1.00  0.00     0.089 C
HETATM   15  N1  UNL     1      63.934  49.292  27.019  1.00  0.00    -0.088 NA
HETATM   16  N2  UNL     1      64.617  47.925  28.917  1.00  0.00    -0.377 N
ATOM     17  H2  UNL     1      64.530  48.689  29.588  1.00  0.00     0.160 HD
ENDBRANCH   5  11
BRANCH   1  18
HETATM   18  C2  UNL     1      66.515  47.320  34.061  1.00  0.00    -0.080 C
HETATM   19  C1  UNL     1      66.417  46.554  35.169  1.00  0.00     0.015 C
BRANCH  18  20
HETATM   20  C3  UNL     1      66.531  48.764  34.294  1.00  0.00     0.034 C
BRANCH  20  21
HETATM   21  C4  UNL     1      65.381  49.399  34.962  1.00  0.00     0.004 C
BRANCH  21  22
HETATM   22  C5  UNL     1      64.121  49.440  34.124  1.00  0.00    -0.004 C
HETATM   23  C6  UNL     1      63.169  48.333  34.515  1.00  0.00     0.005 C
ENDBRANCH  21  22
ENDBRANCH  20  21
ENDBRANCH  18  20
ENDBRANCH   1  18
TORSDOF 5
ENDMDL