MODEL 1
REMARK VINA RESULT: -8.510691260      0.000      0.000
REMARK  5 active torsions:
REMARK  status: ('A' for Active; 'I' for Inactive)
REMARK    1  A    between atoms: C3_3  and  C4_4
REMARK    2  A    between atoms: C6_6  and  C7_7
REMARK    3  A    between atoms: C7_7  and  C8_8
REMARK    4  A    between atoms: C8_8  and  C9_9
REMARK    5  A    between atoms: C19_20  and  C20_21
ROOT
HETATM    1  C1  UNL     1      63.799  47.848  34.464  1.00  0.00     0.012 C
HETATM    2  C2  UNL     1      63.684  48.000  33.273  1.00  0.00    -0.117 C
HETATM    3  C3  UNL     1      63.517  48.183  31.817  1.00  0.00     0.103 C
ENDROOT
BRANCH   3   4
HETATM    4  C4  UNL     1      64.865  48.224  31.130  1.00  0.00     0.053 C
HETATM    5  C5  UNL     1      64.616  48.692  29.713  1.00  0.00    -0.016 C
HETATM    6  C6  UNL     1      65.447  48.317  28.724  1.00  0.00    -0.078 C
HETATM    7  C11 UNL     1      66.479  47.483  29.226  1.00  0.00     0.026 C
HETATM    8  C12 UNL     1      67.640  46.896  28.656  1.00  0.00     0.016 C
HETATM    9  C19 UNL     1      65.788  46.332  29.912  1.00  0.00     0.002 C
HETATM   10  C13 UNL     1      68.057  46.058  29.903  1.00  0.00     0.019 C
HETATM   11  C14 UNL     1      68.050  46.855  31.173  1.00  0.00     0.278 C
HETATM   12  C18 UNL     1      66.832  45.201  29.984  1.00  0.00     0.003 C
HETATM   13  N1  UNL     1      66.855  46.964  31.893  1.00  0.00     0.095 N
HETATM   14  C15 UNL     1      66.848  45.959  32.972  1.00  0.00     0.273 C
HETATM   15  C22 UNL     1      65.564  46.922  31.289  1.00  0.00     0.240 C
HETATM   16  C16 UNL     1      67.265  44.637  32.428  1.00  0.00     0.031 C
HETATM   17  C17 UNL     1      66.703  44.284  31.090  1.00  0.00     0.007 C
BRANCH   6  18
HETATM   18  C7  UNL     1      65.242  48.747  27.355  1.00  0.00     0.034 C
BRANCH  18  19
HETATM   19  C8  UNL     1      63.885  49.353  27.091  1.00  0.00     0.004 C
BRANCH  19  20
HETATM   20  C9  UNL     1      62.935  48.172  26.843  1.00  0.00    -0.004 C
HETATM   21  C10 UNL     1      61.789  48.190  27.804  1.00  0.00     0.005 C
ENDBRANCH  19  20
ENDBRANCH  18  19
ENDBRANCH   6  18
BRANCH   9  22
HETATM   22  C20 UNL     1      64.589  45.740  29.358  1.00  0.00     0.008 C
HETATM   23  C21 UNL     1      64.666  44.848  28.177  1.00  0.00     0.006 C
ENDBRANCH   9  22
ENDBRANCH   3   4
TORSDOF 5
ENDMDL