MODEL 3
REMARK VINA RESULT: -9.476706754      1.604      2.467
REMARK  5 active torsions:
REMARK  status: ('A' for Active; 'I' for Inactive)
REMARK       I    between atoms: C1_2  and  N1_3
REMARK    1  A    between atoms: C1_2  and  C9_12
REMARK    2  A    between atoms: N1_3  and  C2_5
REMARK    3  A    between atoms: C9_12  and  C10_13
REMARK    4  A    between atoms: C9_12  and  C16_19
REMARK    5  A    between atoms: C10_13  and  C11_14
ROOT
HETATM    1  C9  UNL     1      63.937  46.977  28.055  1.00  0.00     0.082 C
ENDROOT
BRANCH   1   2
HETATM    2  C1  UNL     1      64.897  46.552  29.152  1.00  0.00     0.222 C
HETATM    3  O1  UNL     1      65.481  45.458  29.063  1.00  0.00    -0.273 OA
HETATM    4  N1  UNL     1      65.125  47.397  30.273  1.00  0.00    -0.356 N
ATOM      5  H1  UNL     1      64.648  48.295  30.351  1.00  0.00     0.162 HD
BRANCH   4   6
HETATM    6  C2  UNL     1      66.053  46.958  31.308  1.00  0.00     0.084 C
HETATM    7  C3  UNL     1      65.572  47.564  32.607  1.00  0.00     0.025 C
HETATM    8  C4  UNL     1      66.712  47.647  33.569  1.00  0.00     0.002 C
HETATM    9  C5  UNL     1      67.398  46.308  33.634  1.00  0.00     0.000 C
HETATM   10  C6  UNL     1      68.700  46.317  32.863  1.00  0.00     0.000 C
HETATM   11  C7  UNL     1      68.481  46.348  31.376  1.00  0.00     0.002 C
HETATM   12  C8  UNL     1      67.454  47.365  30.957  1.00  0.00     0.025 C
ENDBRANCH   4   6
ENDBRANCH   1   2
BRANCH   1  13
HETATM   13  C10 UNL     1      62.760  47.520  28.800  1.00  0.00     0.019 C
BRANCH  13  14
HETATM   14  C11 UNL     1      61.497  46.767  28.780  1.00  0.00    -0.014 C
HETATM   15  C12 UNL     1      60.445  47.637  28.043  1.00  0.00     0.005 C
HETATM   16  C13 UNL     1      59.117  47.202  28.595  1.00  0.00     0.000 C
HETATM   17  C14 UNL     1      59.420  46.232  29.715  1.00  0.00     0.000 C
HETATM   18  C15 UNL     1      60.809  46.694  30.136  1.00  0.00     0.005 C
ENDBRANCH  13  14
ENDBRANCH   1  13
BRANCH   1  19
HETATM   19  C16 UNL     1      64.661  47.935  27.174  1.00  0.00    -0.002 C
HETATM   20  C17 UNL     1      66.135  48.007  27.287  1.00  0.00     0.005 C
HETATM   21  C18 UNL     1      66.443  49.360  26.612  1.00  0.00     0.000 C
HETATM   22  C19 UNL     1      65.373  50.238  27.177  1.00  0.00     0.000 C
HETATM   23  C20 UNL     1      64.138  49.322  27.084  1.00  0.00     0.005 C
ENDBRANCH   1  19
TORSDOF 5
ENDMDL