MODEL 3
REMARK VINA RESULT: -8.684811664      0.796      1.125
REMARK  4 active torsions:
REMARK  status: ('A' for Active; 'I' for Inactive)
REMARK    1  A    between atoms: C2_2  and  C3_3
REMARK    2  A    between atoms: C2_2  and  C10_12
REMARK    3  A    between atoms: C3_3  and  C4_4
REMARK    4  A    between atoms: C4_4  and  C5_5
ROOT
HETATM    1  C10 UNL     1      67.151  46.899  29.717  1.00  0.00    -0.002 C
HETATM    2  C11 UNL     1      67.464  45.419  29.642  1.00  0.00     0.006 C
HETATM    3  C12 UNL     1      66.916  44.840  30.892  1.00  0.00     0.006 C
HETATM    4  C13 UNL     1      66.509  45.933  31.815  1.00  0.00     0.002 C
HETATM    5  C14 UNL     1      66.859  45.724  33.238  1.00  0.00    -0.043 C
HETATM    6  C15 UNL     1      67.129  44.225  33.468  1.00  0.00     0.015 C
HETATM    7  C16 UNL     1      65.700  46.049  34.192  1.00  0.00     0.015 C
HETATM    8  C17 UNL     1      68.057  46.439  33.749  1.00  0.00     0.009 C
HETATM    9  C18 UNL     1      68.999  46.633  32.585  1.00  0.00     0.002 C
HETATM   10  C19 UNL     1      68.358  47.638  31.681  1.00  0.00     0.010 C
HETATM   11  C20 UNL     1      67.000  47.172  31.132  1.00  0.00    -0.036 C
HETATM   12  C21 UNL     1      66.037  48.285  31.528  1.00  0.00     0.016 C
ENDROOT
BRANCH   1  13
HETATM   13  C2  UNL     1      66.149  47.233  28.683  1.00  0.00    -0.014 C
HETATM   14  C1  UNL     1      66.496  48.082  27.562  1.00  0.00     0.010 C
BRANCH  13  15
HETATM   15  C3  UNL     1      65.255  46.087  28.382  1.00  0.00     0.005 C
BRANCH  15  16
HETATM   16  C4  UNL     1      63.816  46.151  28.652  1.00  0.00     0.006 C
BRANCH  16  17
HETATM   17  C5  UNL     1      63.136  47.394  29.056  1.00  0.00     0.003 C
HETATM   18  C6  UNL     1      61.994  46.979  29.990  1.00  0.00     0.008 C
HETATM   19  C7  UNL     1      60.797  46.494  29.256  1.00  0.00     0.020 C
HETATM   20  C8  UNL     1      60.320  47.655  28.371  1.00  0.00     0.113 C
HETATM   21  N1  UNL     1      61.355  47.851  27.405  1.00  0.00    -0.421 N
HETATM   22  C9  UNL     1      62.619  48.229  27.913  1.00  0.00     0.118 C
ATOM     23  H1  UNL     1      61.191  47.725  26.406  1.00  0.00     0.153 HD
ENDBRANCH  16  17
ENDBRANCH  15  16
ENDBRANCH  13  15
ENDBRANCH   1  13
TORSDOF 4
ENDMDL