MODEL 5
REMARK VINA RESULT: -6.523739901      1.396      3.142
REMARK  3 active torsions:
REMARK  status: ('A' for Active; 'I' for Inactive)
REMARK    1  A    between atoms: C3_3  and  N1_4
REMARK    2  A    between atoms: N1_4  and  C4_6
REMARK    3  A    between atoms: C4_6  and  C5_7
ROOT
HETATM    1  C1  UNL     1      61.107  46.134  30.531  1.00  0.00     0.015 C
HETATM    2  C2  UNL     1      61.900  46.856  29.969  1.00  0.00    -0.086 C
HETATM    3  C3  UNL     1      62.901  47.738  29.291  1.00  0.00     0.090 C
HETATM    4  C7  UNL     1      63.347  48.742  30.281  1.00  0.00     0.044 C
HETATM    5  C8  UNL     1      64.786  48.698  30.689  1.00  0.00     0.009 C
HETATM    6  C9  UNL     1      65.230  47.255  30.647  1.00  0.00     0.002 C
HETATM    7  C10 UNL     1      65.294  46.855  29.213  1.00  0.00    -0.036 C
HETATM    8  C11 UNL     1      66.195  47.640  28.338  1.00  0.00     0.015 C
HETATM    9  C12 UNL     1      65.800  45.405  29.210  1.00  0.00     0.010 C
HETATM   10  C13 UNL     1      67.166  45.280  29.765  1.00  0.00     0.006 C
HETATM   11  C14 UNL     1      67.552  46.299  30.786  1.00  0.00    -0.006 C
HETATM   12  C15 UNL     1      68.626  45.799  31.679  1.00  0.00     0.005 C
HETATM   13  C16 UNL     1      68.236  45.372  33.040  1.00  0.00     0.000 C
HETATM   14  C17 UNL     1      66.790  44.962  33.034  1.00  0.00     0.001 C
HETATM   15  C18 UNL     1      65.960  46.148  32.737  1.00  0.00     0.010 C
HETATM   16  C19 UNL     1      66.385  46.929  31.507  1.00  0.00    -0.036 C
HETATM   17  C20 UNL     1      66.931  48.261  32.057  1.00  0.00     0.016 C
HETATM   18  C21 UNL     1      63.905  46.893  28.642  1.00  0.00     0.053 C
ENDROOT
BRANCH   3  19
HETATM   19  N1  UNL     1      62.089  48.425  28.300  1.00  0.00    -0.403 N
ATOM     20  H1  UNL     1      62.221  49.416  28.094  1.00  0.00     0.154 HD
BRANCH  19  21
HETATM   21  C4  UNL     1      61.112  47.655  27.639  1.00  0.00     0.115 C
BRANCH  21  22
HETATM   22  C5  UNL     1      59.736  48.223  28.026  1.00  0.00     0.015 C
HETATM   23  C6  UNL     1      58.665  47.162  27.867  1.00  0.00     0.006 C
ENDBRANCH  21  22
ENDBRANCH  19  21
ENDBRANCH   3  19
TORSDOF 3
ENDMDL