MODEL 1
REMARK VINA RESULT: -9.697455533      0.000      0.000
REMARK  4 active torsions:
REMARK  status: ('A' for Active; 'I' for Inactive)
REMARK    1  A    between atoms: C2_2  and  C3_3
REMARK    2  A    between atoms: C3_3  and  C4_4
REMARK    3  A    between atoms: C3_3  and  C15_18
REMARK       I    between atoms: C4_4  and  N1_6
REMARK    4  A    between atoms: N1_6  and  C5_8
ROOT
HETATM    1  C4  UNL     1      63.389  47.619  29.110  1.00  0.00     0.222 C
HETATM    2  O1  UNL     1      63.500  48.303  30.168  1.00  0.00    -0.273 OA
HETATM    3  N1  UNL     1      64.393  46.678  28.754  1.00  0.00    -0.351 N
ATOM      4  H1  UNL     1      64.266  46.145  27.893  1.00  0.00     0.163 HD
ENDROOT
BRANCH   3   5
HETATM    5  C5  UNL     1      65.571  46.430  29.528  1.00  0.00     0.034 C
HETATM    6  C6  UNL     1      65.936  44.969  29.388  1.00  0.00     0.035 C
HETATM    7  C7  UNL     1      67.199  44.604  30.100  1.00  0.00    -0.012 C
HETATM    8  C8  UNL     1      67.017  44.918  31.567  1.00  0.00     0.009 C
HETATM    9  C12 UNL     1      68.367  45.424  29.597  1.00  0.00     0.009 C
HETATM   10  C9  UNL     1      66.684  46.374  31.706  1.00  0.00    -0.012 C
HETATM   11  C10 UNL     1      67.808  47.231  31.172  1.00  0.00     0.009 C
HETATM   12  C14 UNL     1      65.380  46.701  31.000  1.00  0.00     0.035 C
HETATM   13  C11 UNL     1      68.014  46.873  29.731  1.00  0.00    -0.012 C
HETATM   14  C13 UNL     1      66.755  47.217  28.976  1.00  0.00     0.035 C
ENDBRANCH   3   5
BRANCH   1  15
HETATM   15  C3  UNL     1      62.215  47.810  28.261  1.00  0.00     0.081 C
BRANCH  15  16
HETATM   16  C2  UNL     1      62.144  49.235  27.704  1.00  0.00     0.010 C
HETATM   17  C1  UNL     1      63.254  49.467  26.702  1.00  0.00     0.006 C
ENDBRANCH  15  16
BRANCH  15  18
HETATM   18  C15 UNL     1      60.911  47.573  28.981  1.00  0.00    -0.002 C
HETATM   19  C16 UNL     1      59.735  47.841  28.100  1.00  0.00     0.005 C
HETATM   20  C17 UNL     1      58.659  46.786  28.229  1.00  0.00     0.000 C
HETATM   21  C18 UNL     1      58.357  46.458  29.667  1.00  0.00     0.000 C
HETATM   22  C19 UNL     1      59.593  46.175  30.467  1.00  0.00     0.000 C
HETATM   23  C20 UNL     1      60.785  46.178  29.534  1.00  0.00     0.005 C
ENDBRANCH  15  18
ENDBRANCH   1  15
TORSDOF 4
ENDMDL