MODEL 5
REMARK VINA RESULT: -7.963008677      1.834      3.602
REMARK  8 active torsions:
REMARK  status: ('A' for Active; 'I' for Inactive)
REMARK    1  A    between atoms: C2_2  and  C3_3
REMARK    2  A    between atoms: C3_3  and  C4_4
REMARK    3  A    between atoms: C4_4  and  C5_5
REMARK    4  A    between atoms: C5_5  and  C6_6
REMARK    5  A    between atoms: C7_7  and  C8_8
REMARK    6  A    between atoms: C8_8  and  N1_9
REMARK    7  A    between atoms: C8_8  and  C9_13
REMARK    8  A    between atoms: C10_14  and  C11_15
ROOT
HETATM    1  C9  UNL     1      64.203  49.020  32.176  1.00  0.00     0.015 C
HETATM    2  C10 UNL     1      64.620  48.051  31.381  1.00  0.00    -0.018 C
ENDROOT
BRANCH   1   3
HETATM    3  C8  UNL     1      64.769  49.250  33.518  1.00  0.00     0.284 C
BRANCH   3   4
HETATM    4  C7  UNL     1      65.565  48.089  33.910  1.00  0.00    -0.070 C
HETATM    5  C6  UNL     1      66.216  47.119  34.217  1.00  0.00    -0.104 C
BRANCH   5   6
HETATM    6  C5  UNL     1      66.990  45.930  34.570  1.00  0.00     0.094 C
BRANCH   6   7
HETATM    7  C4  UNL     1      67.725  45.401  33.333  1.00  0.00     0.012 C
BRANCH   7   8
HETATM    8  C3  UNL     1      66.942  44.275  32.694  1.00  0.00     0.000 C
BRANCH   8   9
HETATM    9  C2  UNL     1      66.896  44.601  31.194  1.00  0.00    -0.005 C
HETATM   10  C1  UNL     1      67.765  45.813  30.998  1.00  0.00     0.005 C
ENDBRANCH   8   9
ENDBRANCH   7   8
ENDBRANCH   6   7
ENDBRANCH   5   6
ENDBRANCH   3   4
BRANCH   3  11
HETATM   11  N1  UNL     1      63.749  49.425  34.532  1.00  0.00    -0.061 N
ATOM     12  H13 UNL     1      64.089  49.248  35.477  1.00  0.00     0.276 HD
ATOM     13  H12 UNL     1      63.483  50.400  34.670  1.00  0.00     0.276 HD
ATOM     14  H11 UNL     1      62.964  48.829  34.270  1.00  0.00     0.276 HD
ENDBRANCH   3  11
ENDBRANCH   1   3
BRANCH   2  15
HETATM   15  C11 UNL     1      64.028  47.849  30.038  1.00  0.00    -0.022 C
HETATM   16  C12 UNL     1      62.652  47.232  30.154  1.00  0.00     0.014 C
HETATM   17  C13 UNL     1      62.091  47.145  28.748  1.00  0.00     0.007 C
HETATM   18  C14 UNL     1      63.099  47.595  27.708  1.00  0.00    -0.002 C
HETATM   19  C15 UNL     1      64.320  46.734  27.840  1.00  0.00    -0.009 C
HETATM   20  C19 UNL     1      63.507  49.033  27.954  1.00  0.00    -0.039 C
HETATM   21  C16 UNL     1      65.386  47.091  26.831  1.00  0.00     0.005 C
HETATM   22  C22 UNL     1      64.873  46.884  29.230  1.00  0.00     0.018 C
HETATM   23  C17 UNL     1      65.765  48.539  27.027  1.00  0.00     0.001 C
HETATM   24  C18 UNL     1      64.553  49.410  26.942  1.00  0.00     0.010 C
HETATM   25  C20 UNL     1      62.323  49.969  27.745  1.00  0.00     0.015 C
HETATM   26  C21 UNL     1      63.965  49.210  29.370  1.00  0.00     0.023 C
ENDBRANCH   2  15
TORSDOF 8
ENDMDL