MODEL 5
REMARK VINA RESULT: -9.686843226      1.870      2.259
REMARK  5 active torsions:
REMARK  status: ('A' for Active; 'I' for Inactive)
REMARK       I    between atoms: C1_2  and  N1_3
REMARK    1  A    between atoms: C1_2  and  C9_12
REMARK    2  A    between atoms: N1_3  and  C2_5
REMARK    3  A    between atoms: C2_5  and  C3_6
REMARK    4  A    between atoms: C11_14  and  C12_15
REMARK    5  A    between atoms: C12_15  and  C13_16
ROOT
HETATM    1  C9  UNL     1      63.503  47.502  29.210  1.00  0.00     0.082 A
HETATM    2  C10 UNL     1      64.392  48.705  28.899  1.00  0.00     0.020 A
HETATM    3  C11 UNL     1      63.765  48.469  30.287  1.00  0.00    -0.000 A
ENDROOT
BRANCH   1   4
HETATM    4  C1  UNL     1      62.191  47.556  28.517  1.00  0.00     0.222 C
HETATM    5  O1  UNL     1      62.117  47.723  27.254  1.00  0.00    -0.273 OA
HETATM    6  N1  UNL     1      60.953  47.427  29.211  1.00  0.00    -0.360 N
ATOM      7  H1  UNL     1      60.977  47.293  30.222  1.00  0.00     0.162 HD
BRANCH   6   8
HETATM    8  C2  UNL     1      59.677  47.475  28.561  1.00  0.00     0.127 C
BRANCH   8   9
HETATM    9  C3  UNL     1      58.947  46.182  28.783  1.00  0.00     0.003 C
HETATM   10  C4  UNL     1      59.309  45.517  30.074  1.00  0.00     0.006 C
HETATM   11  C5  UNL     1      58.656  46.196  31.265  1.00  0.00     0.000 C
HETATM   12  C6  UNL     1      57.147  45.983  31.085  1.00  0.00     0.000 C
HETATM   13  C7  UNL     1      56.772  46.831  29.863  1.00  0.00     0.000 C
HETATM   14  C8  UNL     1      57.459  46.309  28.641  1.00  0.00     0.006 C
ENDBRANCH   8   9
ENDBRANCH   6   8
ENDBRANCH   1   4
BRANCH   3  15
HETATM   15  C12 UNL     1      64.770  48.236  31.363  1.00  0.00     0.010 C
BRANCH  15  16
HETATM   16  C13 UNL     1      64.169  47.725  32.649  1.00  0.00    -0.014 C
HETATM   17  C14 UNL     1      64.060  48.769  33.704  1.00  0.00     0.005 C
HETATM   18  C15 UNL     1      64.057  48.240  35.105  1.00  0.00     0.000 C
HETATM   19  C16 UNL     1      65.430  48.321  35.752  1.00  0.00     0.000 C
HETATM   20  C17 UNL     1      66.047  46.970  35.966  1.00  0.00     0.000 C
HETATM   21  C18 UNL     1      66.797  46.437  34.804  1.00  0.00     0.000 C
HETATM   22  C19 UNL     1      66.419  47.046  33.483  1.00  0.00     0.000 C
HETATM   23  C20 UNL     1      65.045  46.545  33.078  1.00  0.00     0.005 C
ENDBRANCH  15  16
ENDBRANCH   3  15
TORSDOF 5
ENDMDL