MODEL 2
REMARK VINA RESULT: -7.733770689      0.674      1.014
REMARK  5 active torsions:
REMARK  status: ('A' for Active; 'I' for Inactive)
REMARK    1  A    between atoms: C2_2  and  C4_4
REMARK    2  A    between atoms: C4_4  and  C5_5
REMARK    3  A    between atoms: C5_5  and  N1_6
REMARK    4  A    between atoms: C14_15  and  N2_17
REMARK    5  A    between atoms: N2_17  and  C16_19
ROOT
HETATM    1  N1  UNL     1      65.319  46.747  31.563  1.00  0.00     0.093 N
HETATM    2  C6  UNL     1      64.531  47.126  32.702  1.00  0.00     0.273 C
HETATM    3  C7  UNL     1      64.499  48.629  32.912  1.00  0.00     0.031 C
HETATM    4  C8  UNL     1      64.077  49.365  31.676  1.00  0.00     0.009 C
HETATM    5  C9  UNL     1      63.755  48.336  30.614  1.00  0.00     0.025 C
HETATM    6  C10 UNL     1      64.928  47.440  30.353  1.00  0.00     0.228 C
HETATM    7  C11 UNL     1      64.660  46.537  29.203  1.00  0.00     0.043 C
HETATM    8  C12 UNL     1      63.361  46.622  28.535  1.00  0.00     0.011 C
HETATM    9  C13 UNL     1      63.538  46.123  27.101  1.00  0.00     0.012 C
HETATM   10  C14 UNL     1      62.688  47.974  28.459  1.00  0.00     0.029 C
HETATM   11  C15 UNL     1      62.698  48.495  27.032  1.00  0.00     0.039 C
HETATM   12  C19 UNL     1      63.416  48.998  29.289  1.00  0.00     0.015 C
HETATM   13  C20 UNL     1      64.620  49.579  28.598  1.00  0.00     0.013 C
ENDROOT
BRANCH  10  14
HETATM   14  N2  UNL     1      61.331  47.787  28.790  1.00  0.00    -0.409 N
ATOM     15  H2  UNL     1      60.712  48.598  28.760  1.00  0.00     0.154 HD
BRANCH  14  16
HETATM   16  C16 UNL     1      60.789  46.562  29.155  1.00  0.00     0.069 C
HETATM   17  C17 UNL     1      60.663  46.272  30.636  1.00  0.00     0.031 C
HETATM   18  C18 UNL     1      59.323  46.592  28.656  1.00  0.00     0.031 C
ENDBRANCH  14  16
ENDBRANCH  10  14
BRANCH   1  19
HETATM   19  C5  UNL     1      66.728  46.885  31.798  1.00  0.00     0.273 C
BRANCH  19  20
HETATM   20  C4  UNL     1      67.500  45.606  31.749  1.00  0.00     0.034 C
BRANCH  20  21
HETATM   21  C2  UNL     1      67.955  45.315  33.187  1.00  0.00    -0.021 C
HETATM   22  C1  UNL     1      67.977  46.564  34.018  1.00  0.00     0.009 C
HETATM   23  C3  UNL     1      67.020  44.315  33.805  1.00  0.00     0.009 C
ENDBRANCH  20  21
ENDBRANCH  19  20
ENDBRANCH   1  19
TORSDOF 5
ENDMDL