MODEL 4
REMARK VINA RESULT: -8.483658271      1.110      1.313
REMARK  7 active torsions:
REMARK  status: ('A' for Active; 'I' for Inactive)
REMARK    1  A    between atoms: C2_2  and  N1_4
REMARK    2  A    between atoms: N1_4  and  C4_7
REMARK    3  A    between atoms: C4_7  and  C5_8
REMARK    4  A    between atoms: C5_8  and  C6_9
REMARK    5  A    between atoms: C5_8  and  C19_22
REMARK    6  A    between atoms: C7_10  and  C8_11
REMARK    7  A    between atoms: C8_11  and  C9_12
ROOT
HETATM    1  C6  UNL     1      64.188  47.502  30.157  1.00  0.00    -0.100 C
HETATM    2  C7  UNL     1      65.045  47.443  31.006  1.00  0.00    -0.106 C
ENDROOT
BRANCH   1   3
HETATM    3  C5  UNL     1      63.147  47.595  29.087  1.00  0.00     0.094 C
BRANCH   3   4
HETATM    4  C4  UNL     1      61.831  47.302  29.685  1.00  0.00     0.250 C
BRANCH   4   5
HETATM    5  N1  UNL     1      61.400  45.948  29.457  1.00  0.00    -0.070 N
ATOM      6  H12 UNL     1      61.872  45.284  30.070  1.00  0.00     0.277 HD
ATOM      7  H11 UNL     1      61.732  45.583  28.564  1.00  0.00     0.277 HD
BRANCH   5   8
HETATM    8  C2  UNL     1      59.924  45.872  29.580  1.00  0.00     0.177 C
HETATM    9  C1  UNL     1      59.257  46.978  28.831  1.00  0.00     0.039 C
HETATM   10  C3  UNL     1      59.635  45.941  31.053  1.00  0.00     0.039 C
ENDBRANCH   5   8
ENDBRANCH   4   5
ENDBRANCH   3   4
BRANCH   3  11
HETATM   11  C19 UNL     1      63.288  48.795  28.254  1.00  0.00    -0.006 C
HETATM   12  C20 UNL     1      64.688  48.707  27.550  1.00  0.00     0.011 C
HETATM   13  C21 UNL     1      62.299  48.828  27.074  1.00  0.00     0.011 C
ENDBRANCH   3  11
ENDBRANCH   1   3
BRANCH   2  14
HETATM   14  C8  UNL     1      66.088  47.380  31.988  1.00  0.00     0.100 C
BRANCH  14  15
HETATM   15  C9  UNL     1      65.684  46.754  33.266  1.00  0.00     0.012 C
HETATM   16  C10 UNL     1      66.852  45.824  33.651  1.00  0.00    -0.043 C
HETATM   17  C11 UNL     1      67.072  44.874  32.461  1.00  0.00     0.015 C
HETATM   18  C12 UNL     1      68.137  46.552  33.845  1.00  0.00     0.015 C
HETATM   19  C13 UNL     1      66.434  44.949  34.786  1.00  0.00     0.009 C
HETATM   20  C14 UNL     1      65.772  45.691  35.908  1.00  0.00     0.001 C
HETATM   21  C15 UNL     1      65.781  47.172  35.750  1.00  0.00     0.009 C
HETATM   22  C16 UNL     1      65.261  47.623  34.378  1.00  0.00    -0.043 C
HETATM   23  C17 UNL     1      65.612  49.075  34.266  1.00  0.00     0.015 C
HETATM   24  C18 UNL     1      63.731  47.560  34.535  1.00  0.00     0.015 C
ENDBRANCH  14  15
ENDBRANCH   2  14
TORSDOF 7
ENDMDL