MODEL 3
REMARK VINA RESULT: -7.651700699      2.847      5.347
REMARK  8 active torsions:
REMARK  status: ('A' for Active; 'I' for Inactive)
REMARK    1  A    between atoms: C3_3  and  C4_4
REMARK    2  A    between atoms: C4_4  and  N1_6
REMARK    3  A    between atoms: C4_4  and  C6_10
REMARK    4  A    between atoms: C14_18  and  C15_19
REMARK    5  A    between atoms: C15_19  and  C16_20
REMARK    6  A    between atoms: C16_20  and  C18_22
REMARK    7  A    between atoms: C18_22  and  C19_23
REMARK    8  A    between atoms: C19_23  and  C20_24
ROOT
HETATM    1  C1  UNL     1      63.358  47.680  34.529  1.00  0.00     0.112 C
HETATM    2  C2  UNL     1      63.965  47.449  33.225  1.00  0.00    -0.108 C
HETATM    3  C3  UNL     1      64.461  47.277  32.140  1.00  0.00    -0.067 C
ENDROOT
BRANCH   3   4
HETATM    4  C4  UNL     1      65.051  47.069  30.790  1.00  0.00     0.190 C
HETATM    5  C5  UNL     1      66.467  47.487  30.886  1.00  0.00     0.061 C
BRANCH   4   6
HETATM    6  N1  UNL     1      65.001  45.648  30.558  1.00  0.00    -0.059 N
ATOM      7  H13 UNL     1      65.388  45.094  31.322  1.00  0.00     0.276 HD
ATOM      8  H12 UNL     1      64.058  45.261  30.594  1.00  0.00     0.276 HD
ATOM      9  H11 UNL     1      65.470  45.497  29.665  1.00  0.00     0.276 HD
ENDBRANCH   4   6
BRANCH   4  10
HETATM   10  C6  UNL     1      64.200  47.807  29.776  1.00  0.00     0.008 C
HETATM   11  C7  UNL     1      63.660  48.980  30.579  1.00  0.00     0.019 C
HETATM   12  C8  UNL     1      64.991  48.370  28.648  1.00  0.00    -0.003 C
HETATM   13  C9  UNL     1      64.149  49.438  27.961  1.00  0.00     0.006 C
HETATM   14  C13 UNL     1      65.308  47.383  27.549  1.00  0.00     0.006 C
HETATM   15  C10 UNL     1      62.889  48.760  27.512  1.00  0.00     0.005 C
HETATM   16  C11 UNL     1      62.885  47.273  27.773  1.00  0.00    -0.010 C
HETATM   17  C12 UNL     1      64.071  46.677  27.060  1.00  0.00     0.005 C
HETATM   18  C14 UNL     1      63.063  46.974  29.261  1.00  0.00     0.002 C
BRANCH  18  19
HETATM   19  C15 UNL     1      61.760  47.256  29.921  1.00  0.00     0.010 C
BRANCH  19  20
HETATM   20  C16 UNL     1      60.603  46.422  29.494  1.00  0.00    -0.018 C
HETATM   21  C17 UNL     1      59.755  45.847  30.571  1.00  0.00     0.010 C
BRANCH  20  22
HETATM   22  C18 UNL     1      59.702  47.382  28.686  1.00  0.00     0.004 C
BRANCH  22  23
HETATM   23  C19 UNL     1      58.386  46.709  28.464  1.00  0.00     0.000 C
BRANCH  23  24
HETATM   24  C20 UNL     1      57.246  47.673  28.564  1.00  0.00    -0.005 C
HETATM   25  C21 UNL     1      56.207  47.217  29.542  1.00  0.00     0.005 C
ENDBRANCH  23  24
ENDBRANCH  22  23
ENDBRANCH  20  22
ENDBRANCH  19  20
ENDBRANCH  18  19
ENDBRANCH   4  10
ENDBRANCH   3   4
TORSDOF 8
ENDMDL