MODEL 1
REMARK VINA RESULT: -8.403791132      0.000      0.000
REMARK  6 active torsions:
REMARK  status: ('A' for Active; 'I' for Inactive)
REMARK    1  A    between atoms: C2_2  and  C3_3
REMARK    2  A    between atoms: C3_3  and  C4_4
REMARK    3  A    between atoms: C4_4  and  C5_5
REMARK    4  A    between atoms: C5_5  and  C6_6
REMARK    5  A    between atoms: C12_12  and  N1_13
REMARK    6  A    between atoms: C18_19  and  O1_20
ROOT
HETATM    1  C6  UNL     1      63.032  47.114  29.513  1.00  0.00    -0.030 C
HETATM    2  C7  UNL     1      62.950  47.566  28.027  1.00  0.00     0.015 C
HETATM    3  C8  UNL     1      64.489  47.675  27.923  1.00  0.00    -0.006 C
HETATM    4  C9  UNL     1      64.557  48.808  28.955  1.00  0.00     0.017 C
HETATM    5  C10 UNL     1      64.024  48.000  30.166  1.00  0.00    -0.003 C
HETATM    6  C11 UNL     1      63.395  48.928  31.173  1.00  0.00     0.018 C
HETATM    7  C12 UNL     1      65.291  47.381  30.685  1.00  0.00     0.260 C
HETATM    8  C18 UNL     1      65.871  46.458  29.656  1.00  0.00     0.156 C
HETATM    9  C19 UNL     1      64.898  46.348  28.469  1.00  0.00     0.021 C
HETATM   10  C20 UNL     1      63.647  45.756  29.162  1.00  0.00     0.018 C
ENDROOT
BRANCH   7  11
HETATM   11  N1  UNL     1      65.281  46.880  32.014  1.00  0.00     0.096 N
HETATM   12  C13 UNL     1      66.004  45.598  32.136  1.00  0.00     0.273 C
HETATM   13  C14 UNL     1      66.484  45.392  33.554  1.00  0.00     0.030 C
HETATM   14  C15 UNL     1      67.742  46.252  33.712  1.00  0.00     0.003 C
HETATM   15  C16 UNL     1      67.486  47.505  32.918  1.00  0.00     0.030 C
HETATM   16  C17 UNL     1      65.967  47.738  32.978  1.00  0.00     0.273 C
ENDBRANCH   7  11
BRANCH   8  17
HETATM   17  O1  UNL     1      67.134  46.830  29.210  1.00  0.00    -0.393 OA
ATOM     18  H1  UNL     1      67.448  46.323  28.471  1.00  0.00     0.210 HD
ENDBRANCH   8  17
BRANCH   1  19
HETATM   19  C5  UNL     1      61.659  47.078  30.040  1.00  0.00     0.010 C
BRANCH  19  20
HETATM   20  C4  UNL     1      60.678  47.119  28.900  1.00  0.00     0.001 C
BRANCH  20  21
HETATM   21  C3  UNL     1      59.367  46.446  29.238  1.00  0.00    -0.000 C
BRANCH  21  22
HETATM   22  C2  UNL     1      58.339  46.763  28.167  1.00  0.00    -0.005 C
HETATM   23  C1  UNL     1      57.384  47.829  28.610  1.00  0.00     0.005 C
ENDBRANCH  21  22
ENDBRANCH  20  21
ENDBRANCH  19  20
ENDBRANCH   1  19
TORSDOF 6
ENDMDL