MODEL 3
REMARK VINA RESULT: -10.204278659      1.164      6.063
REMARK  3 active torsions:
REMARK  status: ('A' for Active; 'I' for Inactive)
REMARK    1  A    between atoms: C2_3  and  C3_4
REMARK    2  A    between atoms: C3_4  and  C15_16
REMARK    3  A    between atoms: C4_5  and  C5_6
ROOT
HETATM    1  C3  UNL     1      64.485  47.207  30.514  1.00  0.00    -0.056 C
HETATM    2  C4  UNL     1      64.217  48.320  31.374  1.00  0.00    -0.010 C
ENDROOT
BRANCH   1   3
HETATM    3  C2  UNL     1      65.624  46.471  30.107  1.00  0.00     0.022 C
HETATM    4  C1  UNL     1      66.176  45.159  30.328  1.00  0.00     0.100 C
HETATM    5  N1  UNL     1      66.662  44.713  31.585  1.00  0.00    -0.115 NA
ENDBRANCH   1   3
BRANCH   1   6
HETATM    6  C15 UNL     1      63.624  47.428  29.222  1.00  0.00     0.023 C
HETATM    7  C16 UNL     1      62.289  46.811  29.228  1.00  0.00     0.014 C
HETATM    8  C17 UNL     1      61.626  47.679  28.124  1.00  0.00    -0.013 C
HETATM    9  C18 UNL     1      62.547  47.855  26.955  1.00  0.00     0.005 C
HETATM   10  C21 UNL     1      61.846  49.031  28.831  1.00  0.00     0.010 C
HETATM   11  C19 UNL     1      63.574  48.932  27.354  1.00  0.00     0.005 C
HETATM   12  C20 UNL     1      63.381  48.846  28.891  1.00  0.00    -0.006 C
ENDBRANCH   1   6
BRANCH   2  13
HETATM   13  C5  UNL     1      64.361  48.496  32.817  1.00  0.00    -0.021 C
HETATM   14  C6  UNL     1      63.296  47.498  33.386  1.00  0.00     0.018 C
HETATM   15  C7  UNL     1      63.324  47.367  34.848  1.00  0.00    -0.013 C
HETATM   16  C8  UNL     1      62.970  48.720  35.438  1.00  0.00     0.009 C
HETATM   17  C12 UNL     1      64.667  46.879  35.357  1.00  0.00     0.009 C
HETATM   18  C9  UNL     1      64.012  49.674  34.985  1.00  0.00    -0.013 C
HETATM   19  C10 UNL     1      65.361  49.201  35.519  1.00  0.00     0.009 C
HETATM   20  C14 UNL     1      64.109  49.769  33.485  1.00  0.00     0.018 C
HETATM   21  C11 UNL     1      65.673  47.909  34.836  1.00  0.00    -0.013 C
HETATM   22  C13 UNL     1      65.682  47.942  33.355  1.00  0.00     0.018 C
ENDBRANCH   2  13
TORSDOF 3
ENDMDL