MODEL 5
REMARK VINA RESULT: -9.520503895      0.209      1.572
REMARK  5 active torsions:
REMARK  status: ('A' for Active; 'I' for Inactive)
REMARK    1  A    between atoms: C2_2  and  N1_3
REMARK    2  A    between atoms: C2_2  and  C12_15
REMARK    3  A    between atoms: N1_3  and  C3_6
REMARK    4  A    between atoms: C3_6  and  C4_7
REMARK    5  A    between atoms: C4_7  and  C5_8
ROOT
HETATM    1  C1  UNL     1      65.193  47.342  30.709  1.00  0.00     0.041 C
HETATM    2  C2  UNL     1      64.066  48.057  31.310  1.00  0.00     0.190 C
ENDROOT
BRANCH   2   3
HETATM    3  N1  UNL     1      62.790  47.486  30.854  1.00  0.00    -0.070 N
ATOM      4  H12 UNL     1      62.624  46.578  31.288  1.00  0.00     0.277 HD
ATOM      5  H11 UNL     1      62.002  48.005  31.242  1.00  0.00     0.277 HD
BRANCH   3   6
HETATM    6  C3  UNL     1      62.685  47.395  29.438  1.00  0.00     0.237 C
BRANCH   6   7
HETATM    7  C4  UNL     1      61.369  47.774  28.866  1.00  0.00     0.061 C
BRANCH   7   8
HETATM    8  C5  UNL     1      60.233  46.852  29.028  1.00  0.00    -0.082 C
HETATM    9  C6  UNL     1      59.109  47.327  28.477  1.00  0.00    -0.024 C
HETATM   10  C7  UNL     1      57.780  46.705  28.430  1.00  0.00     0.027 C
HETATM   11  C8  UNL     1      57.442  45.868  29.643  1.00  0.00     0.004 C
HETATM   12  C9  UNL     1      58.190  46.359  30.842  1.00  0.00     0.001 C
HETATM   13  C10 UNL     1      59.488  45.648  31.058  1.00  0.00     0.004 C
HETATM   14  C11 UNL     1      60.338  45.595  29.779  1.00  0.00     0.034 C
ENDBRANCH   7   8
ENDBRANCH   6   7
ENDBRANCH   3   6
ENDBRANCH   2   3
BRANCH   2  15
HETATM   15  C12 UNL     1      64.053  48.225  32.804  1.00  0.00    -0.011 C
HETATM   16  C13 UNL     1      63.920  49.660  33.229  1.00  0.00     0.016 C
HETATM   17  C14 UNL     1      64.191  49.782  34.712  1.00  0.00    -0.013 C
HETATM   18  C15 UNL     1      63.194  48.965  35.470  1.00  0.00     0.009 C
HETATM   19  C19 UNL     1      65.594  49.332  35.061  1.00  0.00     0.009 C
HETATM   20  C16 UNL     1      63.284  47.508  35.018  1.00  0.00    -0.013 C
HETATM   21  C17 UNL     1      64.655  47.026  35.445  1.00  0.00     0.009 C
HETATM   22  C21 UNL     1      63.050  47.388  33.533  1.00  0.00     0.016 C
HETATM   23  C18 UNL     1      65.678  47.859  34.698  1.00  0.00    -0.013 C
HETATM   24  C20 UNL     1      65.472  47.738  33.224  1.00  0.00     0.016 C
ENDBRANCH   2  15
TORSDOF 5
ENDMDL