MODEL 4
REMARK VINA RESULT: -8.613749335      2.258      4.084
REMARK  5 active torsions:
REMARK  status: ('A' for Active; 'I' for Inactive)
REMARK    1  A    between atoms: C6_6  and  N1_7
REMARK    2  A    between atoms: N1_7  and  C7_9
REMARK    3  A    between atoms: C7_9  and  C8_10
REMARK    4  A    between atoms: C8_10  and  C9_11
REMARK    5  A    between atoms: C9_11  and  C10_12
ROOT
HETATM    1  C9  UNL     1      65.780  45.216  30.132  1.00  0.00     0.014 C
ENDROOT
BRANCH   1   2
HETATM    2  C8  UNL     1      65.127  46.130  29.189  1.00  0.00     0.045 C
BRANCH   2   3
HETATM    3  C7  UNL     1      63.750  45.838  28.702  1.00  0.00     0.056 C
BRANCH   3   4
HETATM    4  N1  UNL     1      62.836  46.846  29.023  1.00  0.00    -0.398 N
ATOM      5  H1  UNL     1      63.206  47.796  29.055  1.00  0.00     0.159 HD
BRANCH   4   6
HETATM    6  C6  UNL     1      61.503  46.705  29.298  1.00  0.00     0.081 C
HETATM    7  C5  UNL     1      61.111  46.800  30.776  1.00  0.00     0.025 C
HETATM    8  C4  UNL     1      59.862  45.958  30.944  1.00  0.00     0.002 C
HETATM    9  C3  UNL     1      59.160  45.621  29.675  1.00  0.00     0.004 C
HETATM   10  C2  UNL     1      59.168  46.670  28.616  1.00  0.00    -0.017 C
HETATM   11  C1  UNL     1      57.961  47.582  28.827  1.00  0.00     0.010 C
HETATM   12  C21 UNL     1      60.467  47.462  28.543  1.00  0.00     0.029 C
ENDBRANCH   4   6
ENDBRANCH   3   4
ENDBRANCH   2   3
ENDBRANCH   1   2
BRANCH   1  13
HETATM   13  C10 UNL     1      66.251  45.678  31.455  1.00  0.00    -0.039 C
HETATM   14  C11 UNL     1      66.645  44.592  32.393  1.00  0.00     0.014 C
HETATM   15  C12 UNL     1      67.090  45.143  33.709  1.00  0.00    -0.013 C
HETATM   16  C13 UNL     1      68.442  45.809  33.502  1.00  0.00     0.009 C
HETATM   17  C18 UNL     1      66.060  46.101  34.242  1.00  0.00     0.014 C
HETATM   18  C14 UNL     1      68.215  46.876  32.452  1.00  0.00    -0.013 C
HETATM   19  C15 UNL     1      67.331  47.921  33.111  1.00  0.00     0.014 C
HETATM   20  C20 UNL     1      67.653  46.392  31.174  1.00  0.00     0.014 C
HETATM   21  C16 UNL     1      65.972  47.293  33.345  1.00  0.00    -0.043 C
HETATM   22  C17 UNL     1      65.028  48.339  33.848  1.00  0.00     0.015 C
HETATM   23  C19 UNL     1      65.437  46.799  31.990  1.00  0.00     0.018 C
ENDBRANCH   1  13
TORSDOF 5
ENDMDL