MODEL 1
REMARK VINA RESULT: -9.071810796      0.000      0.000
REMARK  6 active torsions:
REMARK  status: ('A' for Active; 'I' for Inactive)
REMARK    1  A    between atoms: C3_3  and  O1_4
REMARK    2  A    between atoms: C11_13  and  C12_14
REMARK    3  A    between atoms: C12_14  and  C13_15
REMARK    4  A    between atoms: C13_15  and  C14_16
REMARK    5  A    between atoms: C14_16  and  C15_17
REMARK    6  A    between atoms: C15_17  and  C16_18
ROOT
HETATM    1  C1  UNL     1      67.677  44.952  33.971  1.00  0.00     0.015 C
HETATM    2  C2  UNL     1      67.362  45.576  32.992  1.00  0.00    -0.079 C
HETATM    3  C3  UNL     1      66.969  46.329  31.774  1.00  0.00     0.120 C
HETATM    4  C4  UNL     1      66.404  45.335  30.815  1.00  0.00     0.051 C
HETATM    5  C5  UNL     1      65.638  45.923  29.682  1.00  0.00     0.009 C
HETATM    6  C6  UNL     1      65.504  47.415  29.806  1.00  0.00    -0.006 C
HETATM    7  C7  UNL     1      64.969  47.740  31.191  1.00  0.00    -0.006 C
HETATM    8  C8  UNL     1      63.644  47.104  31.457  1.00  0.00     0.005 C
HETATM    9  C9  UNL     1      62.715  47.373  30.292  1.00  0.00     0.006 C
HETATM   10  C10 UNL     1      63.260  48.446  29.382  1.00  0.00    -0.006 C
HETATM   11  C11 UNL     1      62.444  48.575  28.139  1.00  0.00    -0.010 C
HETATM   12  C18 UNL     1      62.777  47.347  27.363  1.00  0.00     0.005 C
HETATM   13  C19 UNL     1      64.271  47.187  27.624  1.00  0.00     0.006 C
HETATM   14  C20 UNL     1      64.611  48.039  28.808  1.00  0.00    -0.006 C
HETATM   15  C21 UNL     1      66.019  47.389  32.203  1.00  0.00     0.056 C
ENDROOT
BRANCH   3  16
HETATM   16  O1  UNL     1      68.183  46.867  31.284  1.00  0.00    -0.378 OA
ATOM     17  H1  UNL     1      68.795  46.141  31.321  1.00  0.00     0.211 HD
ENDBRANCH   3  16
BRANCH  11  18
HETATM   18  C12 UNL     1      60.970  48.708  28.348  1.00  0.00     0.005 C
BRANCH  18  19
HETATM   19  C13 UNL     1      60.217  47.409  28.284  1.00  0.00     0.000 C
BRANCH  19  20
HETATM   20  C14 UNL     1      58.763  47.550  28.663  1.00  0.00     0.000 C
BRANCH  20  21
HETATM   21  C15 UNL     1      58.295  46.318  29.384  1.00  0.00    -0.000 C
BRANCH  21  22
HETATM   22  C16 UNL     1      59.455  45.610  30.056  1.00  0.00    -0.005 C
HETATM   23  C17 UNL     1      59.539  45.893  31.520  1.00  0.00     0.005 C
ENDBRANCH  21  22
ENDBRANCH  20  21
ENDBRANCH  19  20
ENDBRANCH  18  19
ENDBRANCH  11  18
TORSDOF 6
ENDMDL