MODEL 2
REMARK VINA RESULT: -9.747380154      1.373      1.998
REMARK  5 active torsions:
REMARK  status: ('A' for Active; 'I' for Inactive)
REMARK    1  A    between atoms: C1_2  and  C2_3
REMARK       I    between atoms: C1_2  and  N1_12
REMARK    2  A    between atoms: C2_3  and  C3_4
REMARK    3  A    between atoms: C3_4  and  C4_5
REMARK    4  A    between atoms: C4_5  and  C5_6
REMARK    5  A    between atoms: N1_12  and  C11_14
ROOT
HETATM    1  O1  UNL     1      65.384  47.462  30.237  1.00  0.00    -0.274 OA
HETATM    2  C1  UNL     1      64.258  47.903  30.498  1.00  0.00     0.218 C
HETATM    3  N1  UNL     1      63.793  48.028  31.819  1.00  0.00    -0.351 N
ATOM      4  H1  UNL     1      62.847  48.397  31.907  1.00  0.00     0.163 HD
ENDROOT
BRANCH   3   5
HETATM    5  C11 UNL     1      64.432  47.723  33.050  1.00  0.00     0.037 C
HETATM    6  C12 UNL     1      63.308  47.743  34.112  1.00  0.00     0.032 C
HETATM    7  C13 UNL     1      63.791  47.273  35.443  1.00  0.00     0.007 C
HETATM    8  C14 UNL     1      65.212  47.802  35.663  1.00  0.00    -0.014 C
HETATM    9  C15 UNL     1      66.222  46.764  35.303  1.00  0.00     0.009 C
HETATM   10  C19 UNL     1      65.332  49.093  34.921  1.00  0.00     0.011 C
HETATM   11  C16 UNL     1      66.430  46.670  33.799  1.00  0.00    -0.011 C
HETATM   12  C17 UNL     1      66.794  48.073  33.314  1.00  0.00     0.012 C
HETATM   13  C20 UNL     1      65.124  46.411  33.126  1.00  0.00     0.036 C
HETATM   14  C18 UNL     1      65.461  48.777  33.412  1.00  0.00     0.014 C
ENDBRANCH   3   5
BRANCH   2  15
HETATM   15  C2  UNL     1      63.381  48.309  29.340  1.00  0.00     0.103 C
BRANCH  15  16
HETATM   16  C3  UNL     1      62.512  47.166  28.921  1.00  0.00     0.010 C
BRANCH  16  17
HETATM   17  C4  UNL     1      61.136  47.630  28.588  1.00  0.00     0.005 C
BRANCH  17  18
HETATM   18  C5  UNL     1      60.122  46.577  28.975  1.00  0.00    -0.014 C
HETATM   19  C6  UNL     1      60.281  46.377  30.477  1.00  0.00     0.004 C
HETATM   20  C7  UNL     1      59.237  45.355  30.886  1.00  0.00     0.000 C
HETATM   21  C8  UNL     1      57.885  46.029  30.706  1.00  0.00     0.000 C
HETATM   22  C9  UNL     1      57.633  46.406  29.286  1.00  0.00     0.000 C
HETATM   23  C10 UNL     1      58.767  47.080  28.600  1.00  0.00     0.004 C
ENDBRANCH  17  18
ENDBRANCH  16  17
ENDBRANCH  15  16
ENDBRANCH   2  15
TORSDOF 5
ENDMDL