MODEL 5
REMARK VINA RESULT: -7.743567709      0.818      1.537
REMARK  4 active torsions:
REMARK  status: ('A' for Active; 'I' for Inactive)
REMARK    1  A    between atoms: N1_2  and  C1_4
REMARK    2  A    between atoms: C4_7  and  N2_8
REMARK    3  A    between atoms: N2_8  and  N3_10
REMARK    4  A    between atoms: N3_10  and  C5_12
ROOT
HETATM    1  N2  UNL     1      21.332   5.184  47.054  1.00  0.00    -0.300 N
ATOM      2  H2  UNL     1      21.830   4.523  46.458  1.00  0.00     0.187 HD
ENDROOT
BRANCH   1   3
HETATM    3  C4  UNL     1      20.338   5.978  46.459  1.00  0.00     0.048 A
HETATM    4  C3  UNL     1      19.387   6.636  47.195  1.00  0.00     0.033 A
HETATM    5  C2  UNL     1      18.414   7.414  46.578  1.00  0.00     0.038 A
HETATM    6  C1  UNL     1      18.369   7.552  45.210  1.00  0.00     0.103 A
HETATM    7  C12 UNL     1      19.319   6.896  44.462  1.00  0.00     0.038 A
HETATM    8  C11 UNL     1      20.284   6.125  45.075  1.00  0.00     0.033 A
BRANCH   6   9
HETATM    9  N1  UNL     1      17.365   8.352  44.567  1.00  0.00    -0.116 N
HETATM   10  O1  UNL     1      17.605   9.500  44.158  1.00  0.00    -0.532 OA
HETATM   11  O2  UNL     1      16.105   7.833  44.394  1.00  0.00    -0.532 OA
ENDBRANCH   6   9
ENDBRANCH   1   3
BRANCH   1  12
HETATM   12  N3  UNL     1      21.676   5.232  48.363  1.00  0.00    -0.289 N
ATOM     13  H3  UNL     1      21.098   4.622  48.941  1.00  0.00     0.188 HD
BRANCH  12  14
HETATM   14  C5  UNL     1      22.521   5.840  49.021  1.00  0.00     0.094 C
HETATM   15  C6  UNL     1      22.557   7.413  49.290  1.00  0.00     0.084 C
HETATM   16  C7  UNL     1      23.718   7.548  50.303  1.00  0.00     0.012 C
HETATM   17  C8  UNL     1      25.101   7.220  49.752  1.00  0.00     0.026 C
HETATM   18  C10 UNL     1      23.473   6.144  51.036  1.00  0.00     0.129 C
HETATM   19  C9  UNL     1      25.068   5.574  49.615  1.00  0.00     0.124 C
HETATM   20  N4  UNL     1      23.682   5.652  49.691  1.00  0.00    -0.369 N
ENDBRANCH  12  14
ENDBRANCH   1  12
TORSDOF 4
ENDMDL