MODEL 2
REMARK VINA RESULT: -6.577821802      7.180      9.700
REMARK  5 active torsions:
REMARK  status: ('A' for Active; 'I' for Inactive)
REMARK    1  A    between atoms: O1_1  and  C1_3
REMARK    2  A    between atoms: C3_5  and  C4_6
REMARK    3  A    between atoms: C8_10  and  O2_11
REMARK    4  A    between atoms: N1_13  and  C9_14
REMARK    5  A    between atoms: C9_14  and  N2_15
ROOT
HETATM    1  C1  UNL     1      19.761   7.092  44.056  1.00  0.00     0.146 A
HETATM    2  C2  UNL     1      20.247   6.220  44.999  1.00  0.00     0.068 A
HETATM    3  C3  UNL     1      19.640   6.464  46.209  1.00  0.00     0.001 A
HETATM    4  C8  UNL     1      18.768   7.517  45.960  1.00  0.00     0.152 A
HETATM    5  N1  UNL     1      18.846   7.884  44.677  1.00  0.00    -0.280 N
ENDROOT
BRANCH   5   6
HETATM    6  C9  UNL     1      18.125   8.951  44.021  1.00  0.00     0.406 C
BRANCH   6   7
HETATM    7  N2  UNL     1      16.877   9.248  44.613  1.00  0.00     0.110 N
HETATM    8  C10 UNL     1      16.464  10.598  44.691  1.00  0.00     0.300 C
HETATM    9  C11 UNL     1      15.921  11.128  43.386  1.00  0.00     0.198 C
HETATM   10  O3  UNL     1      15.074  10.200  42.777  1.00  0.00    -0.388 OA
HETATM   11  C12 UNL     1      14.665   9.210  43.662  1.00  0.00     0.198 C
HETATM   12  C13 UNL     1      15.830   8.352  44.143  1.00  0.00     0.300 C
ENDBRANCH   6   7
ENDBRANCH   5   6
BRANCH   1  13
HETATM   13  O1  UNL     1      20.115   7.172  42.725  1.00  0.00    -0.346 OA
ATOM     14  H1  UNL     1      19.982   6.515  42.051  1.00  0.00     0.219 HD
ENDBRANCH   1  13
BRANCH   4  15
HETATM   15  O2  UNL     1      17.983   8.030  46.977  1.00  0.00    -0.345 OA
ATOM     16  H2  UNL     1      17.913   8.970  47.101  1.00  0.00     0.219 HD
ENDBRANCH   4  15
BRANCH   3  17
HETATM   17  C4  UNL     1      19.887   5.751  47.462  1.00  0.00     0.023 C
HETATM   18  C5  UNL     1      21.114   4.879  47.368  1.00  0.00     0.009 C
HETATM   19  C6  UNL     1      21.912   6.074  47.846  1.00  0.00     0.001 C
HETATM   20  C7  UNL     1      20.642   6.548  48.519  1.00  0.00     0.009 C
ENDBRANCH   3  17
TORSDOF 5
ENDMDL