MODEL 3
REMARK VINA RESULT: -8.451889321      0.950      1.401
REMARK  4 active torsions:
REMARK  status: ('A' for Active; 'I' for Inactive)
REMARK    1  A    between atoms: C2_3  and  C7_13
REMARK    2  A    between atoms: N2_4  and  N3_6
REMARK    3  A    between atoms: C6_10  and  O1_11
REMARK       I    between atoms: C7_13  and  N4_15
REMARK    4  A    between atoms: N4_15  and  C8_17
ROOT
HETATM    1  N1  UNL     1      22.476   2.398  51.179  1.00  0.00    -0.190 NA
HETATM    2  C1  UNL     1      22.883   3.397  50.762  1.00  0.00     0.125 C
HETATM    3  C2  UNL     1      23.384   4.661  50.256  1.00  0.00     0.197 C
HETATM    4  N2  UNL     1      24.563   4.957  50.522  1.00  0.00    -0.278 N
ATOM      5  H2  UNL     1      25.091   4.285  51.078  1.00  0.00     0.188 HD
ENDROOT
BRANCH   3   6
HETATM    6  C7  UNL     1      22.489   5.484  49.485  1.00  0.00     0.284 C
HETATM    7  O2  UNL     1      22.358   6.672  49.811  1.00  0.00    -0.265 OA
HETATM    8  N4  UNL     1      21.773   4.966  48.384  1.00  0.00    -0.321 N
ATOM      9  H4  UNL     1      21.936   3.979  48.183  1.00  0.00     0.169 HD
BRANCH   8  10
HETATM   10  C8  UNL     1      20.876   5.607  47.530  1.00  0.00     0.035 A
HETATM   11  C9  UNL     1      19.773   6.309  47.906  1.00  0.00     0.029 A
HETATM   12  C10 UNL     1      18.914   6.912  46.969  1.00  0.00     0.002 A
HETATM   13  C11 UNL     1      19.150   6.819  45.628  1.00  0.00     0.000 A
HETATM   14  C12 UNL     1      20.260   6.115  45.220  1.00  0.00     0.002 A
HETATM   15  C13 UNL     1      21.093   5.530  46.146  1.00  0.00     0.029 A
ENDBRANCH   8  10
ENDBRANCH   3   6
BRANCH   4  16
HETATM   16  N3  UNL     1      25.222   6.098  50.140  1.00  0.00    -0.244 N
HETATM   17  C3  UNL     1      25.794   6.320  48.927  1.00  0.00     0.119 A
HETATM   18  C4  UNL     1      26.353   7.566  48.873  1.00  0.00     0.024 A
HETATM   19  C5  UNL     1      26.112   8.121  50.100  1.00  0.00     0.059 A
HETATM   20  C6  UNL     1      25.420   7.213  50.863  1.00  0.00     0.161 A
BRANCH  20  21
HETATM   21  O1  UNL     1      24.993   7.429  52.185  1.00  0.00    -0.345 OA
ATOM     22  H1  UNL     1      24.635   8.237  52.532  1.00  0.00     0.219 HD
ENDBRANCH  20  21
ENDBRANCH   4  16
TORSDOF 4
ENDMDL