MODEL 5
REMARK VINA RESULT: -7.281936893      1.722      2.432
REMARK  3 active torsions:
REMARK  status: ('A' for Active; 'I' for Inactive)
REMARK    1  A    between atoms: C2_2  and  C3_3
REMARK    2  A    between atoms: C5_11  and  S1_12
REMARK    3  A    between atoms: S1_12  and  C6_13
ROOT
HETATM    1  C1  UNL     1      24.595   9.166  47.668  1.00  0.00     0.092 C
HETATM    2  C2  UNL     1      25.106   8.177  48.714  1.00  0.00     0.255 C
HETATM    3  O3  UNL     1      25.924   7.253  48.075  1.00  0.00    -0.319 OA
HETATM    4  C4  UNL     1      26.041   6.084  48.812  1.00  0.00     0.407 C
HETATM    5  N1  UNL     1      24.757   5.368  48.828  1.00  0.00    -0.018 N
ATOM      6  H11 UNL     1      24.570   4.877  49.702  1.00  0.00     0.283 HD
ATOM      7  H12 UNL     1      24.737   4.546  48.223  1.00  0.00     0.283 HD
HETATM    8  C5  UNL     1      23.757   6.369  48.492  1.00  0.00     0.396 C
HETATM    9  O4  UNL     1      24.043   7.485  49.294  1.00  0.00    -0.304 OA
ENDROOT
BRANCH   8  10
HETATM   10  S1  UNL     1      22.144   5.752  48.939  1.00  0.00    -0.070 SA
BRANCH  10  11
HETATM   11  C6  UNL     1      20.872   6.179  47.795  1.00  0.00     0.004 A
HETATM   12  C7  UNL     1      21.155   6.020  46.442  1.00  0.00     0.018 A
HETATM   13  C8  UNL     1      20.218   6.331  45.488  1.00  0.00     0.001 A
HETATM   14  C9  UNL     1      18.962   6.809  45.817  1.00  0.00     0.000 A
HETATM   15  C10 UNL     1      18.691   6.965  47.177  1.00  0.00     0.001 A
HETATM   16  C11 UNL     1      19.629   6.655  48.143  1.00  0.00     0.018 A
ENDBRANCH  10  11
ENDBRANCH   8  10
BRANCH   2  17
HETATM   17  C3  UNL     1      25.872   8.971  49.710  1.00  0.00     0.238 C
HETATM   18  O1  UNL     1      26.783   9.724  49.284  1.00  0.00    -0.644 OA
HETATM   19  O2  UNL     1      25.573   8.871  51.079  1.00  0.00    -0.644 OA
ENDBRANCH   2  17
TORSDOF 3
ENDMDL