MODEL 2
REMARK VINA RESULT: -6.395250618      3.546      5.252
REMARK  4 active torsions:
REMARK  status: ('A' for Active; 'I' for Inactive)
REMARK    1  A    between atoms: C9_11  and  N2_12
REMARK    2  A    between atoms: N2_12  and  C10_14
REMARK    3  A    between atoms: C10_14  and  C11_15
REMARK    4  A    between atoms: N3_17  and  O1_19
ROOT
HETATM    1  C1  UNL     1      23.742   4.439  50.978  1.00  0.00     0.013 C
HETATM    2  C2  UNL     1      24.413   5.085  50.207  1.00  0.00    -0.105 C
HETATM    3  C3  UNL     1      25.252   5.849  49.292  1.00  0.00     0.042 C
HETATM    4  C4  UNL     1      26.147   4.870  48.498  1.00  0.00     0.031 C
HETATM    5  C5  UNL     1      26.257   6.708  50.014  1.00  0.00     0.034 C
HETATM    6  C6  UNL     1      25.615   7.383  51.204  1.00  0.00     0.077 C
HETATM    7  S1  UNL     1      24.317   8.385  50.472  1.00  0.00    -0.147 SA
HETATM    8  C7  UNL     1      23.873   7.914  48.819  1.00  0.00     0.178 C
HETATM    9  C8  UNL     1      24.178   9.021  47.910  1.00  0.00     0.076 C
HETATM   10  N1  UNL     1      24.423   9.921  47.197  1.00  0.00    -0.196 NA
HETATM   11  C9  UNL     1      24.431   6.598  48.307  1.00  0.00     0.128 C
ENDROOT
BRANCH  11  12
HETATM   12  N2  UNL     1      23.321   5.929  47.755  1.00  0.00    -0.389 N
ATOM     13  H2  UNL     1      23.443   4.994  47.367  1.00  0.00     0.159 HD
BRANCH  12  14
HETATM   14  C10 UNL     1      22.058   6.524  47.728  1.00  0.00     0.110 C
BRANCH  14  15
HETATM   15  C11 UNL     1      21.074   5.473  48.156  1.00  0.00     0.043 C
HETATM   16  C12 UNL     1      19.632   5.905  48.305  1.00  0.00     0.071 C
HETATM   17  N3  UNL     1      21.362   4.271  48.421  1.00  0.00    -0.273 N
ATOM     18  H3  UNL     1      22.336   3.977  48.342  1.00  0.00     0.194 HD
BRANCH  17  19
HETATM   19  O1  UNL     1      20.433   3.342  48.807  1.00  0.00    -0.290 OA
ATOM     20  H1  UNL     1      20.255   3.127  49.714  1.00  0.00     0.244 HD
ENDBRANCH  17  19
ENDBRANCH  14  15
ENDBRANCH  12  14
ENDBRANCH  11  12
TORSDOF 4
ENDMDL