MODEL 5
REMARK VINA RESULT: -6.063240853      3.930      6.824
REMARK  4 active torsions:
REMARK  status: ('A' for Active; 'I' for Inactive)
REMARK    1  A    between atoms: C2_2  and  S1_3
REMARK    2  A    between atoms: S1_3  and  C3_4
REMARK    3  A    between atoms: C7_10  and  C8_11
REMARK    4  A    between atoms: C11_17  and  O3_18
ROOT
HETATM    1  C3  UNL     1      21.008   6.160  48.211  1.00  0.00     0.215 C
HETATM    2  O1  UNL     1      20.037   7.063  48.437  1.00  0.00    -0.338 OA
HETATM    3  C4  UNL     1      18.747   6.724  48.239  1.00  0.00     0.159 C
HETATM    4  C5  UNL     1      17.907   7.798  48.957  1.00  0.00     0.078 C
HETATM    5  C6  UNL     1      18.312   5.405  48.807  1.00  0.00     0.078 C
HETATM    6  O2  UNL     1      18.312   6.765  46.912  1.00  0.00    -0.345 OA
HETATM    7  C7  UNL     1      19.349   7.066  46.034  1.00  0.00     0.172 C
HETATM    8  C10 UNL     1      20.281   5.876  45.912  1.00  0.00     0.073 C
HETATM    9  C11 UNL     1      21.509   6.229  46.759  1.00  0.00     0.160 C
ENDROOT
BRANCH   7  10
HETATM   10  C8  UNL     1      18.820   7.346  44.696  1.00  0.00     0.005 C
HETATM   11  C9  UNL     1      19.712   7.543  43.522  1.00  0.00     0.065 C
HETATM   12  N1  UNL     1      17.560   7.426  44.520  1.00  0.00    -0.404 N
ATOM     13  H12 UNL     1      16.948   7.291  45.325  1.00  0.00     0.155 HD
ATOM     14  H11 UNL     1      17.192   7.621  43.589  1.00  0.00     0.155 HD
ENDBRANCH   7  10
BRANCH   9  15
HETATM   15  O3  UNL     1      22.529   5.339  46.534  1.00  0.00    -0.392 OA
ATOM     16  H3  UNL     1      22.207   4.527  46.161  1.00  0.00     0.210 HD
ENDBRANCH   9  15
BRANCH   1  17
HETATM   17  S1  UNL     1      22.420   6.628  49.287  1.00  0.00    -0.135 SA
BRANCH  17  18
HETATM   18  C2  UNL     1      23.174   5.158  50.022  1.00  0.00     0.072 C
HETATM   19  C1  UNL     1      24.657   5.313  50.001  1.00  0.00     0.016 C
ENDBRANCH  17  18
ENDBRANCH   1  17
TORSDOF 4
ENDMDL