MODEL 4
REMARK VINA RESULT: -8.132035174      3.695      7.496
REMARK  4 active torsions:
REMARK  status: ('A' for Active; 'I' for Inactive)
REMARK       I    between atoms: C1_2  and  N1_3
REMARK    1  A    between atoms: C1_2  and  C8_16
REMARK    2  A    between atoms: N1_3  and  N2_5
REMARK    3  A    between atoms: N2_5  and  C2_7
REMARK    4  A    between atoms: C7_12  and  N3_13
ROOT
HETATM    1  N2  UNL     1      20.912   5.410  47.210  1.00  0.00    -0.295 N
ATOM      2  H2  UNL     1      20.533   4.587  47.680  1.00  0.00     0.187 HD
ENDROOT
BRANCH   1   3
HETATM    3  N1  UNL     1      22.259   5.693  47.384  1.00  0.00    -0.264 N
HETATM    4  C1  UNL     1      22.714   6.496  48.444  1.00  0.00     0.293 C
HETATM    5  O1  UNL     1      21.865   6.957  49.250  1.00  0.00    -0.264 OA
ATOM      6  H1  UNL     1      22.937   5.309  46.725  1.00  0.00     0.190 HD
BRANCH   4   7
HETATM    7  C8  UNL     1      24.155   6.802  48.615  1.00  0.00     0.144 A
HETATM    8  C9  UNL     1      24.711   8.060  48.705  1.00  0.00     0.045 A
HETATM    9  C10 UNL     1      26.067   7.881  48.857  1.00  0.00     0.027 A
HETATM   10  C11 UNL     1      26.297   6.520  48.854  1.00  0.00     0.143 A
HETATM   11  O4  UNL     1      25.137   5.952  48.710  1.00  0.00    -0.317 OA
ENDBRANCH   4   7
ENDBRANCH   1   3
BRANCH   1  12
HETATM   12  C2  UNL     1      20.037   6.180  46.432  1.00  0.00     0.081 A
HETATM   13  C3  UNL     1      20.296   6.242  45.062  1.00  0.00     0.033 A
HETATM   14  C4  UNL     1      19.514   6.961  44.180  1.00  0.00     0.002 A
HETATM   15  C5  UNL     1      18.422   7.650  44.687  1.00  0.00     0.003 A
HETATM   16  C6  UNL     1      18.142   7.609  46.028  1.00  0.00     0.038 A
HETATM   17  C7  UNL     1      18.952   6.867  46.915  1.00  0.00     0.130 A
BRANCH  17  18
HETATM   18  N3  UNL     1      18.595   6.858  48.285  1.00  0.00    -0.113 N
HETATM   19  O2  UNL     1      18.304   7.873  48.894  1.00  0.00    -0.532 OA
HETATM   20  O3  UNL     1      18.635   5.602  48.904  1.00  0.00    -0.532 OA
ENDBRANCH  17  18
ENDBRANCH   1  12
TORSDOF 4
ENDMDL