MODEL 1
REMARK VINA RESULT: -7.658021439      0.000      0.000
REMARK  3 active torsions:
REMARK  status: ('A' for Active; 'I' for Inactive)
REMARK    1  A    between atoms: N1_4  and  C4_5
REMARK    2  A    between atoms: C9_16  and  C10_17
REMARK    3  A    between atoms: C10_17  and  O2_19
ROOT
HETATM    1  C1  UNL     1       2.354  17.126   2.983  1.00  0.00     0.041 C
HETATM    2  C2  UNL     1       2.495  18.274   2.042  1.00  0.00     0.136 C
HETATM    3  C3  UNL     1       1.924  17.943   0.684  1.00  0.00     0.156 C
HETATM    4  N1  UNL     1       2.458  18.825  -0.327  1.00  0.00    -0.360 N
HETATM    5  C8  UNL     1       3.164  20.018   0.075  1.00  0.00     0.167 C
HETATM    6  C9  UNL     1       3.737  20.008   1.434  1.00  0.00     0.242 C
HETATM    7  O3  UNL     1       3.821  18.691   1.926  1.00  0.00    -0.368 OA
ENDROOT
BRANCH   4   8
HETATM    8  C4  UNL     1       2.328  18.587  -1.720  1.00  0.00     0.132 A
HETATM    9  N2  UNL     1       2.566  17.364  -2.277  1.00  0.00    -0.337 N
HETATM   10  C5  UNL     1       2.437  17.160  -3.600  1.00  0.00     0.183 A
ATOM     11  H2  UNL     1       2.847  16.588  -1.677  1.00  0.00     0.168 HD
HETATM   12  N3  UNL     1       2.073  18.120  -4.458  1.00  0.00    -0.339 N
HETATM   13  C6  UNL     1       1.824  19.345  -3.987  1.00  0.00     0.145 A
ATOM     14  H3  UNL     1       1.987  17.920  -5.455  1.00  0.00     0.167 HD
HETATM   15  N4  UNL     1       1.432  20.426  -4.818  1.00  0.00    -0.081 NA
HETATM   16  C7  UNL     1       1.953  19.563  -2.627  1.00  0.00     0.131 A
HETATM   17  N5  UNL     1       1.688  20.857  -2.144  1.00  0.00    -0.095 NA
ENDBRANCH   4   8
BRANCH   6  18
HETATM   18  C10 UNL     1       5.090  20.595   1.412  1.00  0.00     0.324 C
HETATM   19  O1  UNL     1       6.093  19.851   1.407  1.00  0.00    -0.259 OA
BRANCH  18  20
HETATM   20  O2  UNL     1       5.253  21.963   1.397  1.00  0.00    -0.114 OA
HETATM   21  F1  UNL     1       4.273  22.815   1.751  1.00  0.00    -0.039 F
ENDBRANCH  18  20
ENDBRANCH   6  18
TORSDOF 3
ENDMDL