MODEL 4
REMARK VINA RESULT: -5.576645404      2.677      4.280
REMARK  2 active torsions:
REMARK  status: ('A' for Active; 'I' for Inactive)
REMARK    1  A    between atoms: C4_7  and  O2_8
REMARK    2  A    between atoms: C10_20  and  O3_21
ROOT
HETATM    1  O1  UNL     1      -1.540  15.270   8.211  1.00  0.00    -0.246 OA
HETATM    2  C1  UNL     1      -1.869  14.621   9.283  1.00  0.00     0.334 C
HETATM    3  N1  UNL     1      -3.244  14.458   9.483  1.00  0.00    -0.342 N
ATOM      4  H1  UNL     1      -3.841  15.023   8.879  1.00  0.00     0.164 HD
HETATM    5  C2  UNL     1      -3.938  13.613  10.415  1.00  0.00     0.127 C
HETATM    6  C3  UNL     1      -4.763  12.530   9.851  1.00  0.00     0.051 C
HETATM    7  C4  UNL     1      -4.408  11.946   8.548  1.00  0.00     0.124 C
HETATM    8  C5  UNL     1      -3.377  10.851   8.542  1.00  0.00     0.074 C
HETATM    9  C6  UNL     1      -2.223  11.196   7.644  1.00  0.00    -0.011 A
HETATM   10  C7  UNL     1      -2.319  11.471   6.352  1.00  0.00     0.042 A
HETATM   11  C8  UNL     1      -0.963  11.761   5.822  1.00  0.00     0.295 A
HETATM   12  F1  UNL     1      -0.582  10.780   4.927  1.00  0.00    -0.222 F
HETATM   13  N2  UNL     1      -0.168  11.602   7.000  1.00  0.00    -0.342 N
ATOM     14  H2  UNL     1       0.844  11.730   7.011  1.00  0.00     0.164 HD
HETATM   15  C9  UNL     1      -0.851  11.282   8.049  1.00  0.00     0.112 A
HETATM   16  N3  UNL     1      -0.331  11.053   9.353  1.00  0.00    -0.307 N
ATOM     17  H3  UNL     1       0.409  10.354   9.411  1.00  0.00     0.171 HD
HETATM   18  C10 UNL     1      -0.690  11.654  10.579  1.00  0.00     0.237 C
HETATM   19  N4  UNL     1      -0.750  13.031  10.924  1.00  0.00    -0.261 N
ATOM     20  H4  UNL     1      -0.731  13.219  11.926  1.00  0.00     0.190 HD
HETATM   21  N5  UNL     1      -0.829  14.147  10.132  1.00  0.00    -0.249 N
ATOM     22  H5  UNL     1      -0.000  14.741  10.154  1.00  0.00     0.192 HD
ENDROOT
BRANCH   7  23
HETATM   23  O2  UNL     1      -3.982  12.930   7.622  1.00  0.00    -0.395 OA
ATOM     24  H2  UNL     1      -4.293  12.752   6.742  1.00  0.00     0.210 HD
ENDBRANCH   7  23
BRANCH  18  25
HETATM   25  O3  UNL     1      -1.021  10.849  11.547  1.00  0.00    -0.331 OA
ATOM     26  H3  UNL     1      -0.520  10.923  12.351  1.00  0.00     0.221 HD
ENDBRANCH  18  25
TORSDOF 2
ENDMDL