MODEL 2
REMARK VINA RESULT: -5.469626090      3.420      5.474
REMARK  3 active torsions:
REMARK  status: ('A' for Active; 'I' for Inactive)
REMARK    1  A    between atoms: O1_1  and  C1_3
REMARK    2  A    between atoms: C9_18  and  O2_19
REMARK    3  A    between atoms: C10_23  and  O3_24
ROOT
HETATM    1  C1  UNL     1      -2.884  14.471  10.570  1.00  0.00     0.122 C
HETATM    2  C2  UNL     1      -4.020  13.731  11.151  1.00  0.00     0.124 C
HETATM    3  C3  UNL     1      -3.667  12.770  12.221  1.00  0.00    -0.024 A
HETATM    4  C4  UNL     1      -4.605  12.272  13.065  1.00  0.00     0.041 A
HETATM    5  C5  UNL     1      -3.923  11.363  13.991  1.00  0.00     0.294 A
HETATM    6  F1  UNL     1      -4.159  11.651  15.314  1.00  0.00    -0.223 F
HETATM    7  N1  UNL     1      -2.591  11.420  13.584  1.00  0.00    -0.356 N
ATOM      8  H1  UNL     1      -1.850  10.889  14.042  1.00  0.00     0.162 HD
HETATM    9  C6  UNL     1      -2.364  12.222  12.552  1.00  0.00     0.038 A
HETATM   10  C7  UNL     1      -1.055  12.435  11.986  1.00  0.00     0.048 C
HETATM   11  C8  UNL     1      -0.427  11.861  10.966  1.00  0.00     0.109 C
HETATM   12  N2  UNL     1      -0.854  10.839  10.101  1.00  0.00    -0.309 N
ATOM     13  H2  UNL     1      -0.103  10.217   9.803  1.00  0.00     0.186 HD
HETATM   14  N3  UNL     1      -2.083  10.510   9.576  1.00  0.00    -0.266 N
ATOM     15  H3  UNL     1      -2.395   9.570   9.819  1.00  0.00     0.190 HD
HETATM   16  C9  UNL     1      -2.989  11.218   8.772  1.00  0.00     0.239 C
HETATM   17  N4  UNL     1      -2.856  12.365   7.994  1.00  0.00    -0.287 N
ATOM     18  H4  UNL     1      -3.269  12.274   7.066  1.00  0.00     0.173 HD
HETATM   19  C10 UNL     1      -2.267  13.627   8.226  1.00  0.00     0.226 C
HETATM   20  N5  UNL     1      -2.374  14.537   9.283  1.00  0.00    -0.306 N
ATOM     21  H5  UNL     1      -1.992  15.455   9.056  1.00  0.00     0.171 HD
ENDROOT
BRANCH   1  22
HETATM   22  O1  UNL     1      -2.280  15.182  11.479  1.00  0.00    -0.349 OA
ATOM     23  H1  UNL     1      -1.587  15.705  11.094  1.00  0.00     0.219 HD
ENDBRANCH   1  22
BRANCH  19  24
HETATM   24  O3  UNL     1      -1.477  13.998   7.260  1.00  0.00    -0.332 OA
ATOM     25  H3  UNL     1      -1.728  13.631   6.420  1.00  0.00     0.221 HD
ENDBRANCH  19  24
BRANCH  16  26
HETATM   26  O2  UNL     1      -4.184  10.700   8.757  1.00  0.00    -0.331 OA
ATOM     27  H2  UNL     1      -4.835  11.237   9.194  1.00  0.00     0.221 HD
ENDBRANCH  16  26
TORSDOF 3
ENDMDL