MODEL 5
REMARK VINA RESULT: -7.559397894      3.235      6.982
REMARK  5 active torsions:
REMARK  status: ('A' for Active; 'I' for Inactive)
REMARK    1  A    between atoms: C5_10  and  O2_11
REMARK    2  A    between atoms: C5_10  and  C6_13
REMARK       I    between atoms: C6_13  and  N3_15
REMARK    3  A    between atoms: N3_15  and  C7_17
REMARK    4  A    between atoms: C7_17  and  C8_18
REMARK    5  A    between atoms: C8_18  and  C9_19
ROOT
HETATM    1  O1  UNL     1       3.476  22.233   7.635  1.00  0.00    -0.245 OA
HETATM    2  C1  UNL     1       3.610  21.384   6.940  1.00  0.00     0.340 A
HETATM    3  N1  UNL     1       3.690  20.054   7.423  1.00  0.00    -0.251 N
ATOM      4  H1  UNL     1       3.620  19.907   8.430  1.00  0.00     0.191 HD
HETATM    5  N2  UNL     1       3.860  18.920   6.600  1.00  0.00    -0.293 N
ATOM      6  H2  UNL     1       3.910  17.987   7.008  1.00  0.00     0.187 HD
HETATM    7  C2  UNL     1       3.959  19.098   5.206  1.00  0.00     0.088 A
HETATM    8  C3  UNL     1       4.116  18.072   4.402  1.00  0.00     0.013 A
HETATM    9  C4  UNL     1       4.222  18.203   2.963  1.00  0.00     0.101 A
HETATM   10  C5  UNL     1       4.165  19.566   2.417  1.00  0.00     0.219 A
HETATM   11  N4  UNL     1       3.983  20.590   3.388  1.00  0.00    -0.335 N
ATOM     12  H4  UNL     1       3.926  21.545   3.036  1.00  0.00     0.164 HD
HETATM   13  C10 UNL     1       3.886  20.445   4.633  1.00  0.00     0.136 A
HETATM   14  N5  UNL     1       3.713  21.551   5.511  1.00  0.00    -0.292 N
ATOM     15  H5  UNL     1       3.660  22.491   5.118  1.00  0.00     0.172 HD
ENDROOT
BRANCH  10  16
HETATM   16  O2  UNL     1       5.384  19.901   1.755  1.00  0.00    -0.363 OA
ATOM     17  H2  UNL     1       5.649  20.790   1.961  1.00  0.00     0.213 HD
ENDBRANCH  10  16
BRANCH  10  18
HETATM   18  C6  UNL     1       3.057  19.631   1.392  1.00  0.00     0.273 C
HETATM   19  O3  UNL     1       1.944  19.184   1.711  1.00  0.00    -0.268 OA
HETATM   20  N3  UNL     1       3.353  20.200   0.124  1.00  0.00    -0.357 N
ATOM     21  H3  UNL     1       4.290  20.550  -0.076  1.00  0.00     0.162 HD
BRANCH  20  22
HETATM   22  C7  UNL     1       2.331  20.279  -0.868  1.00  0.00     0.125 C
BRANCH  22  23
HETATM   23  C8  UNL     1       2.517  19.291  -1.962  1.00  0.00     0.051 C
BRANCH  23  24
HETATM   24  C9  UNL     1       1.962  17.950  -1.667  1.00  0.00     0.224 C
HETATM   25  F1  UNL     1       2.784  17.132  -0.989  1.00  0.00    -0.255 F
ENDBRANCH  23  24
ENDBRANCH  22  23
ENDBRANCH  20  22
ENDBRANCH  10  18
TORSDOF 5
ENDMDL