MODEL 2
REMARK VINA RESULT: 0.849842745      2.716      7.446
REMARK  9 active torsions:
REMARK  status: ('A' for Active; 'I' for Inactive)
REMARK    1  A    between atoms: C5_7  and  C6_8
REMARK    2  A    between atoms: C6_8  and  C7_9
REMARK    3  A    between atoms: C7_9  and  C8_10
REMARK    4  A    between atoms: C8_10  and  C9_11
REMARK    5  A    between atoms: C9_11  and  C10_12
REMARK    6  A    between atoms: C10_12  and  N3_13
REMARK    7  A    between atoms: C14_20  and  C15_21
REMARK    8  A    between atoms: C16_22  and  C17_23
REMARK    9  A    between atoms: C17_23  and  C18_24
ROOT
HETATM    1  C6  UNL     1       3.647  19.007   1.922  1.00  0.00     0.029 C
HETATM    2  C14 UNL     1       4.548  19.530   1.111  1.00  0.00     0.021 C
ENDROOT
BRANCH   1   3
HETATM    3  C5  UNL     1       2.685  18.044   1.468  1.00  0.00     0.009 A
HETATM    4  C4  UNL     1       1.849  17.338   2.292  1.00  0.00     0.058 A
HETATM    5  C3  UNL     1       0.951  16.425   1.736  1.00  0.00     0.029 A
HETATM    6  N2  UNL     1       1.875  17.514   3.692  1.00  0.00    -0.102 NA
HETATM    7  C2  UNL     1       0.874  16.205   0.381  1.00  0.00     0.028 A
HETATM    8  C1  UNL     1       1.709  16.911  -0.443  1.00  0.00     0.047 A
HETATM    9  N1  UNL     1       1.660  16.712  -1.856  1.00  0.00    -0.102 NA
HETATM   10  C23 UNL     1       2.591  17.807   0.092  1.00  0.00     0.041 A
ENDBRANCH   1   3
BRANCH   1  11
HETATM   11  C7  UNL     1       3.691  19.464   3.275  1.00  0.00    -0.065 C
BRANCH  11  12
HETATM   12  C8  UNL     1       3.771  19.876   4.442  1.00  0.00    -0.089 C
BRANCH  12  13
HETATM   13  C9  UNL     1       3.888  20.354   5.811  1.00  0.00     0.047 C
HETATM   14  C11 UNL     1       3.151  19.420   6.779  1.00  0.00     0.024 C
HETATM   15  C12 UNL     1       4.449  18.602   6.810  1.00  0.00     0.004 C
HETATM   16  C13 UNL     1       5.163  19.912   6.446  1.00  0.00     0.024 C
BRANCH  13  17
HETATM   17  C10 UNL     1       3.514  21.793   5.942  1.00  0.00     0.252 C
BRANCH  17  18
HETATM   18  N3  UNL     1       3.292  22.221   7.287  1.00  0.00    -0.078 N
ATOM     19  H33 UNL     1       3.939  21.752   7.921  1.00  0.00     0.274 HD
ATOM     20  H32 UNL     1       3.599  23.186   7.410  1.00  0.00     0.274 HD
ATOM     21  H31 UNL     1       2.331  22.107   7.609  1.00  0.00     0.274 HD
ENDBRANCH  17  18
ENDBRANCH  13  17
ENDBRANCH  12  13
ENDBRANCH  11  12
ENDBRANCH   1  11
BRANCH   2  22
HETATM   22  C15 UNL     1       5.516  20.509   1.600  1.00  0.00    -0.002 C
HETATM   23  C16 UNL     1       5.373  21.797   1.648  1.00  0.00    -0.022 C
BRANCH  23  24
HETATM   24  C17 UNL     1       4.178  22.519   1.205  1.00  0.00     0.067 C
BRANCH  24  25
HETATM   25  C18 UNL     1       3.426  21.779   0.153  1.00  0.00    -0.039 A
HETATM   26  C19 UNL     1       2.095  21.511   0.399  1.00  0.00     0.014 A
HETATM   27  C20 UNL     1       1.353  20.828  -0.544  1.00  0.00     0.075 A
HETATM   28  C21 UNL     1       1.995  20.446  -1.696  1.00  0.00     0.245 A
HETATM   29  O1  UNL     1       1.334  19.825  -2.561  1.00  0.00    -0.268 OA
HETATM   30  N4  UNL     1       3.286  20.713  -1.921  1.00  0.00    -0.333 N
HETATM   31  C22 UNL     1       4.023  21.369  -1.029  1.00  0.00     0.098 A
ATOM     32  H4  UNL     1       3.714  20.406  -2.795  1.00  0.00     0.168 HD
ENDBRANCH  24  25
ENDBRANCH  23  24
ENDBRANCH   2  22
TORSDOF 9
ENDMDL