MODEL 2
REMARK VINA RESULT: -8.343675118      2.509      3.657
REMARK  3 active torsions:
REMARK  status: ('A' for Active; 'I' for Inactive)
REMARK    1  A    between atoms: C1_2  and  O2_4
REMARK    2  A    between atoms: O2_4  and  C2_5
REMARK    3  A    between atoms: N4_13  and  C6_14
ROOT
HETATM    1  C2  UNL     1       3.607  18.636   1.375  1.00  0.00     0.151 C
HETATM    2  C3  UNL     1       4.249  19.760   1.710  1.00  0.00     0.088 C
HETATM    3  C4  UNL     1       4.330  21.017   1.002  1.00  0.00     0.118 C
HETATM    4  N2  UNL     1       5.084  22.078   1.598  1.00  0.00    -0.083 NA
HETATM    5  N3  UNL     1       3.805  21.308  -0.110  1.00  0.00    -0.332 N
ATOM      6  H3  UNL     1       4.031  22.269  -0.368  1.00  0.00     0.165 HD
HETATM    7  C5  UNL     1       3.002  20.711  -1.103  1.00  0.00     0.387 C
HETATM    8  F1  UNL     1       1.789  21.377  -1.294  1.00  0.00    -0.202 F
HETATM    9  N4  UNL     1       2.711  19.304  -0.948  1.00  0.00    -0.249 N
HETATM   10  C10 UNL     1       2.818  18.430   0.174  1.00  0.00     0.287 C
HETATM   11  O3  UNL     1       2.158  17.357   0.124  1.00  0.00    -0.265 OA
ENDROOT
BRANCH   9  12
HETATM   12  C6  UNL     1       2.228  18.683  -2.147  1.00  0.00     0.110 A
HETATM   13  C7  UNL     1       2.950  18.118  -3.098  1.00  0.00     0.027 A
HETATM   14  C8  UNL     1       2.035  17.593  -4.175  1.00  0.00     0.075 A
HETATM   15  C9  UNL     1       0.710  17.984  -3.623  1.00  0.00     0.066 A
HETATM   16  N5  UNL     1       0.866  18.580  -2.508  1.00  0.00    -0.356 N
ATOM     17  H5  UNL     1       0.098  18.940  -1.942  1.00  0.00     0.166 HD
ENDBRANCH   9  12
BRANCH   1  18
HETATM   18  O2  UNL     1       3.717  17.586   2.268  1.00  0.00    -0.258 OA
BRANCH  18  19
HETATM   19  C1  UNL     1       2.924  17.451   3.400  1.00  0.00     0.378 C
HETATM   20  N1  UNL     1       3.187  18.260   4.543  1.00  0.00    -0.032 NA
HETATM   21  O1  UNL     1       2.004  16.618   3.368  1.00  0.00    -0.242 OA
ENDBRANCH  18  19
ENDBRANCH   1  18
TORSDOF 3
ENDMDL