MODEL 4
REMARK VINA RESULT: -9.152111746      3.087      7.606
REMARK  3 active torsions:
REMARK  status: ('A' for Active; 'I' for Inactive)
REMARK    1  A    between atoms: C2_5  and  N2_6
REMARK    2  A    between atoms: N2_6  and  C3_8
REMARK    3  A    between atoms: C3_8  and  C4_9
ROOT
HETATM    1  C4  UNL     1       4.118  19.722   0.376  1.00  0.00     0.171 C
HETATM    2  C5  UNL     1       4.505  20.840   1.261  1.00  0.00     0.210 C
HETATM    3  O2  UNL     1       4.938  20.255   2.512  1.00  0.00    -0.342 OA
HETATM    4  C6  UNL     1       4.061  19.369   3.111  1.00  0.00     0.158 A
HETATM    5  C7  UNL     1       3.127  18.696   2.357  1.00  0.00     0.108 A
HETATM    6  C8  UNL     1       2.244  17.802   2.976  1.00  0.00     0.057 A
HETATM    7  C9  UNL     1       2.285  17.576   4.332  1.00  0.00     0.093 A
HETATM    8  N3  UNL     1       3.209  18.247   5.043  1.00  0.00    -0.341 N
ATOM      9  H3  UNL     1       3.260  18.097   6.050  1.00  0.00     0.167 HD
HETATM   10  C10 UNL     1       4.068  19.112   4.472  1.00  0.00     0.224 A
HETATM   11  F1  UNL     1       5.001  19.787   5.212  1.00  0.00    -0.183 F
HETATM   12  O3  UNL     1       3.099  18.933   1.008  1.00  0.00    -0.339 OA
ENDROOT
BRANCH   1  13
HETATM   13  C3  UNL     1       3.619  20.178  -0.958  1.00  0.00     0.172 C
BRANCH  13  14
HETATM   14  N2  UNL     1       2.212  19.990  -1.149  1.00  0.00    -0.222 N
ATOM     15  H2  UNL     1       1.563  20.299  -0.425  1.00  0.00     0.177 HD
BRANCH  14  16
HETATM   16  C2  UNL     1       1.709  19.386  -2.315  1.00  0.00     0.697 A
HETATM   17  N1  UNL     1       2.047  19.503  -3.588  1.00  0.00    -0.139 N
HETATM   18  C1  UNL     1       1.290  18.728  -4.381  1.00  0.00     0.353 A
ATOM     19  H1  UNL     1       2.793  20.110  -3.926  1.00  0.00     0.189 HD
HETATM   20  O1  UNL     1       1.368  18.632  -5.560  1.00  0.00    -0.245 OA
HETATM   21  N5  UNL     1       0.444  18.102  -3.556  1.00  0.00    -0.237 N
HETATM   22  N4  UNL     1       0.681  18.483  -2.317  1.00  0.00    -0.128 N
ATOM     23  H5  UNL     1      -0.272  17.433  -3.841  1.00  0.00     0.192 HD
ATOM     24  H4  UNL     1       0.178  18.158  -1.491  1.00  0.00     0.205 HD
ENDBRANCH  14  16
ENDBRANCH  13  14
ENDBRANCH   1  13
TORSDOF 3
ENDMDL