MODEL 5
REMARK VINA RESULT: -8.277244979      3.867      8.024
REMARK  5 active torsions:
REMARK  status: ('A' for Active; 'I' for Inactive)
REMARK       I    between atoms: C1_2  and  N1_3
REMARK    1  A    between atoms: C1_2  and  C7_13
REMARK    2  A    between atoms: N1_3  and  N2_4
REMARK       I    between atoms: N2_4  and  C2_6
REMARK    3  A    between atoms: C2_6  and  C3_8
REMARK    4  A    between atoms: C5_10  and  C6_11
REMARK       I    between atoms: C7_13  and  N3_15
REMARK    5  A    between atoms: N3_15  and  C8_17
ROOT
HETATM    1  O1  UNL     1       3.819  16.816   3.634  1.00  0.00    -0.244 OA
HETATM    2  C1  UNL     1       3.825  17.540   3.329  1.00  0.00     0.403 C
HETATM    3  N1  UNL     1       3.660  18.068   1.954  1.00  0.00    -0.274 NA
ENDROOT
BRANCH   2   4
HETATM    4  C7  UNL     1       4.031  18.811   4.188  1.00  0.00     0.330 C
HETATM    5  O3  UNL     1       4.708  19.717   3.713  1.00  0.00    -0.261 OA
HETATM    6  N3  UNL     1       3.439  18.848   5.429  1.00  0.00    -0.315 N
ATOM      7  H3  UNL     1       2.906  18.043   5.757  1.00  0.00     0.169 HD
BRANCH   6   8
HETATM    8  C8  UNL     1       3.560  19.974   6.243  1.00  0.00     0.069 A
HETATM    9  C9  UNL     1       3.953  20.024   7.614  1.00  0.00     0.138 A
HETATM   10  N4  UNL     1       3.962  21.307   8.036  1.00  0.00    -0.310 N
HETATM   11  N5  UNL     1       3.589  22.051   6.981  1.00  0.00    -0.310 N
ATOM     12  H4  UNL     1       4.203  21.644   8.968  1.00  0.00     0.186 HD
HETATM   13  C10 UNL     1       3.353  21.328   5.958  1.00  0.00     0.138 A
ATOM     14  H5  UNL     1       3.505  23.068   6.996  1.00  0.00     0.186 HD
ENDBRANCH   6   8
ENDBRANCH   2   4
BRANCH   3  15
HETATM   15  N2  UNL     1       3.523  18.494   0.813  1.00  0.00    -0.199 N
HETATM   16  C2  UNL     1       2.673  18.072  -0.281  1.00  0.00     0.251 C
HETATM   17  O2  UNL     1       1.908  17.064  -0.038  1.00  0.00    -0.271 OA
ATOM     18  H2  UNL     1       4.118  19.293   0.593  1.00  0.00     0.205 HD
BRANCH  16  19
HETATM   19  C3  UNL     1       2.679  18.754  -1.570  1.00  0.00     0.087 A
HETATM   20  C4  UNL     1       1.804  20.045  -1.535  1.00  0.00     0.022 A
HETATM   21  C5  UNL     1       1.463  18.802  -2.390  1.00  0.00     0.028 A
BRANCH  21  22
HETATM   22  C6  UNL     1       1.532  18.969  -3.876  1.00  0.00     0.227 C
HETATM   23  F1  UNL     1       1.542  20.304  -4.268  1.00  0.00    -0.255 F
ENDBRANCH  21  22
ENDBRANCH  16  19
ENDBRANCH   3  15
TORSDOF 5
ENDMDL