MODEL 5
REMARK VINA RESULT: -0.205319025      0.886      1.065
REMARK  7 active torsions:
REMARK  status: ('A' for Active; 'I' for Inactive)
REMARK    1  A    between atoms: C2_2  and  C20_20
REMARK    2  A    between atoms: C3_3  and  C4_4
REMARK    3  A    between atoms: C4_4  and  C10_10
REMARK    4  A    between atoms: C20_20  and  C21_21
REMARK    5  A    between atoms: C20_20  and  N2_26
REMARK    6  A    between atoms: C21_21  and  C22_22
REMARK    7  A    between atoms: C22_22  and  O1_24
REMARK       I    between atoms: N2_26  and  C23_28
ROOT
HETATM    1  C1  UNL     1       2.397  16.560  -0.887  1.00  0.00     0.050 C
HETATM    2  C2  UNL     1       2.831  17.699  -1.648  1.00  0.00    -0.034 C
HETATM    3  C3  UNL     1       3.144  18.866  -1.056  1.00  0.00     0.022 C
ENDROOT
BRANCH   3   4
HETATM    4  C4  UNL     1       3.164  19.361   0.251  1.00  0.00    -0.018 C
HETATM    5  C5  UNL     1       3.337  20.710   0.397  1.00  0.00    -0.047 C
HETATM    6  C6  UNL     1       3.393  21.456   1.640  1.00  0.00     0.004 C
HETATM    7  C9  UNL     1       3.510  21.705  -0.661  1.00  0.00     0.043 C
HETATM    8  C7  UNL     1       3.957  22.630   1.441  1.00  0.00    -0.026 C
HETATM    9  C8  UNL     1       4.344  22.794   0.030  1.00  0.00     0.032 C
BRANCH   4  10
HETATM   10  C10 UNL     1       2.847  18.658   1.470  1.00  0.00    -0.018 A
HETATM   11  C11 UNL     1       1.817  17.807   1.643  1.00  0.00     0.013 A
HETATM   12  C12 UNL     1       1.516  17.151   2.847  1.00  0.00     0.008 A
HETATM   13  C13 UNL     1       2.355  17.415   3.924  1.00  0.00    -0.055 A
HETATM   14  C14 UNL     1       2.081  16.736   5.237  1.00  0.00     0.049 C
HETATM   15  C15 UNL     1       3.418  18.293   3.747  1.00  0.00    -0.045 A
HETATM   16  C16 UNL     1       3.702  18.929   2.567  1.00  0.00    -0.040 A
HETATM   17  C19 UNL     1       4.455  18.724   4.742  1.00  0.00     0.040 C
HETATM   18  C17 UNL     1       4.910  19.800   2.734  1.00  0.00     0.040 C
HETATM   19  C18 UNL     1       4.800  20.106   4.244  1.00  0.00     0.009 C
ENDBRANCH   4  10
ENDBRANCH   3   4
BRANCH   2  20
HETATM   20  C20 UNL     1       2.956  17.788  -3.121  1.00  0.00     0.044 C
BRANCH  20  21
HETATM   21  C21 UNL     1       3.031  17.847  -4.307  1.00  0.00     0.082 C
BRANCH  21  22
HETATM   22  C22 UNL     1       3.031  17.131  -5.542  1.00  0.00     0.151 C
HETATM   23  N1  UNL     1       2.044  17.036  -6.518  1.00  0.00    -0.075 NA
BRANCH  22  24
HETATM   24  O1  UNL     1       4.109  16.433  -5.854  1.00  0.00    -0.348 OA
ATOM     25  H1  UNL     1       3.996  15.518  -6.085  1.00  0.00     0.219 HD
ENDBRANCH  22  24
ENDBRANCH  21  22
ENDBRANCH  20  21
BRANCH  20  26
HETATM   26  N2  UNL     1       1.262  17.318  -3.309  1.00  0.00    -0.330 N
HETATM   27  C23 UNL     1       0.515  18.409  -3.082  1.00  0.00     0.186 C
HETATM   28  N3  UNL     1      -0.942  18.284  -3.128  1.00  0.00    -0.064 NA
HETATM   29  N4  UNL     1       0.926  19.608  -2.783  1.00  0.00    -0.373 N
ATOM     30  H42 UNL     1       1.942  19.695  -2.751  1.00  0.00     0.158 HD
ATOM     31  H41 UNL     1       0.358  20.438  -2.610  1.00  0.00     0.158 HD
ATOM     32  H2  UNL     1       0.916  16.388  -3.547  1.00  0.00     0.168 HD
ENDBRANCH  20  26
ENDBRANCH   2  20
TORSDOF 7
ENDMDL