MODEL 4
REMARK VINA RESULT: -7.536520524      2.707      7.208
REMARK  4 active torsions:
REMARK  status: ('A' for Active; 'I' for Inactive)
REMARK    1  A    between atoms: N1_1  and  C1_5
REMARK    2  A    between atoms: C3_7  and  C4_8
REMARK       I    between atoms: C4_8  and  N2_10
REMARK    3  A    between atoms: N2_10  and  C5_12
REMARK    4  A    between atoms: C10_24  and  O3_25
ROOT
HETATM    1  C1  UNL     1       2.380  19.153   0.240  1.00  0.00     0.272 C
HETATM    2  C2  UNL     1       3.257  20.211   0.818  1.00  0.00     0.020 A
HETATM    3  C3  UNL     1       3.947  20.779   1.764  1.00  0.00     0.056 A
HETATM    4  C8  UNL     1       4.585  21.976   1.245  1.00  0.00     0.103 A
HETATM    5  N5  UNL     1       4.265  22.113   0.016  1.00  0.00    -0.369 N
ATOM      6  H5  UNL     1       4.594  22.873  -0.579  1.00  0.00     0.161 HD
HETATM    7  C9  UNL     1       3.416  21.101  -0.411  1.00  0.00     0.257 A
HETATM    8  O2  UNL     1       3.802  20.139  -1.303  1.00  0.00    -0.331 OA
HETATM    9  C10 UNL     1       2.693  19.262  -1.234  1.00  0.00     0.294 C
ENDROOT
BRANCH   3  10
HETATM   10  C4  UNL     1       4.045  20.221   3.121  1.00  0.00     0.258 C
HETATM   11  O1  UNL     1       4.393  19.034   3.315  1.00  0.00    -0.267 OA
HETATM   12  N2  UNL     1       3.746  21.025   4.241  1.00  0.00    -0.320 N
ATOM     13  H2  UNL     1       3.464  21.990   4.074  1.00  0.00     0.169 HD
BRANCH  12  14
HETATM   14  C5  UNL     1       3.812  20.580   5.580  1.00  0.00     0.069 A
HETATM   15  C6  UNL     1       3.705  21.434   6.682  1.00  0.00     0.138 A
HETATM   16  N3  UNL     1       3.806  20.711   7.797  1.00  0.00    -0.310 N
HETATM   17  N4  UNL     1       3.973  19.444   7.490  1.00  0.00    -0.310 N
ATOM     18  H3  UNL     1       3.762  21.085   8.745  1.00  0.00     0.186 HD
HETATM   19  C7  UNL     1       3.979  19.344   6.143  1.00  0.00     0.138 A
ATOM     20  H4  UNL     1       4.077  18.674   8.151  1.00  0.00     0.186 HD
ENDBRANCH  12  14
ENDBRANCH   3  10
BRANCH   1  21
HETATM   21  N1  UNL     1       2.789  17.814   0.636  1.00  0.00    -0.066 N
ATOM     22  H13 UNL     1       2.644  17.148  -0.123  1.00  0.00     0.275 HD
ATOM     23  H12 UNL     1       3.803  17.750   0.719  1.00  0.00     0.275 HD
ATOM     24  H11 UNL     1       2.330  17.502   1.491  1.00  0.00     0.275 HD
ENDBRANCH   1  21
BRANCH   9  25
HETATM   25  O3  UNL     1       1.601  19.829  -1.902  1.00  0.00    -0.369 OA
ATOM     26  H3  UNL     1       1.738  20.764  -1.995  1.00  0.00     0.212 HD
ENDBRANCH   9  25
TORSDOF 4
ENDMDL