MODEL 1
REMARK VINA RESULT: -6.390167586      0.000      0.000
REMARK  0 active torsions:
REMARK  status: ('A' for Active; 'I' for Inactive)
ROOT
HETATM    1  N1  UNL     1      17.373  -7.587   1.068  1.00  0.00    -0.100 NA
HETATM    2  C1  UNL     1      18.347  -7.254   0.096  1.00  0.00     0.078 A
HETATM    3  C2  UNL     1      17.999  -6.900  -1.195  1.00  0.00     0.134 A
HETATM    4  N2  UNL     1      18.951  -6.590  -2.093  1.00  0.00    -0.308 N
ATOM      5  H2  UNL     1      18.674  -6.331  -3.040  1.00  0.00     0.186 HD
HETATM    6  N3  UNL     1      20.245  -6.610  -1.781  1.00  0.00    -0.284 N
ATOM      7  H3  UNL     1      20.933  -6.366  -2.494  1.00  0.00     0.188 HD
HETATM    8  C3  UNL     1      20.666  -6.942  -0.554  1.00  0.00     0.148 A
HETATM    9  N4  UNL     1      21.888  -7.044   0.025  1.00  0.00    -0.284 N
ATOM     10  H4  UNL     1      22.789  -6.866  -0.420  1.00  0.00     0.188 HD
HETATM   11  N5  UNL     1      21.692  -7.414   1.271  1.00  0.00    -0.309 N
ATOM     12  H5  UNL     1      22.438  -7.569   1.948  1.00  0.00     0.186 HD
HETATM   13  C4  UNL     1      20.391  -7.561   1.537  1.00  0.00     0.124 A
HETATM   14  C5  UNL     1      19.705  -7.264   0.381  1.00  0.00     0.053 A
ENDROOT
TORSDOF 0
ENDMDL