MODEL 2
REMARK VINA RESULT: -5.570920436      1.943      3.445
REMARK  14 active torsions:
REMARK  status: ('A' for Active; 'I' for Inactive)
REMARK    1  A    between atoms: N1_1  and  C1_5
REMARK    2  A    between atoms: C1_5  and  C2_6
REMARK    3  A    between atoms: C2_6  and  O1_7
REMARK    4  A    between atoms: C4_10  and  O2_11
REMARK    5  A    between atoms: C4_10  and  C5_13
REMARK    6  A    between atoms: C5_13  and  O3_14
REMARK    7  A    between atoms: O3_14  and  C6_15
REMARK    8  A    between atoms: C6_15  and  O4_16
REMARK    9  A    between atoms: O4_16  and  C7_17
REMARK   10  A    between atoms: C7_17  and  C8_18
REMARK   11  A    between atoms: C8_18  and  O5_19
REMARK   12  A    between atoms: C9_21  and  C10_22
REMARK   13  A    between atoms: C9_21  and  C11_25
REMARK   14  A    between atoms: C10_22  and  O6_23
ROOT
HETATM    1  C1  UNL     1      19.042  -6.605  -2.920  1.00  0.00     0.170 C
HETATM    2  C3  UNL     1      20.383  -6.969  -2.330  1.00  0.00     0.084 C
HETATM    3  C4  UNL     1      19.843  -6.534  -0.985  1.00  0.00     0.104 C
HETATM    4  C9  UNL     1      18.466  -6.692  -1.525  1.00  0.00     0.137 C
ENDROOT
BRANCH   3   5
HETATM    5  O2  UNL     1      20.107  -5.201  -0.643  1.00  0.00    -0.386 OA
ATOM      6  H2  UNL     1      19.636  -4.880   0.116  1.00  0.00     0.210 HD
ENDBRANCH   3   5
BRANCH   3   7
HETATM    7  C5  UNL     1      20.257  -7.435   0.148  1.00  0.00     0.209 C
BRANCH   7   8
HETATM    8  O3  UNL     1      20.220  -6.794   1.360  1.00  0.00    -0.364 OA
BRANCH   8   9
HETATM    9  C6  UNL     1      19.715  -7.657   2.345  1.00  0.00     0.337 C
BRANCH   9  10
HETATM   10  O4  UNL     1      18.394  -7.940   2.160  1.00  0.00    -0.365 OA
BRANCH  10  11
HETATM   11  C7  UNL     1      17.882  -8.755   3.133  1.00  0.00     0.196 C
BRANCH  11  12
HETATM   12  C8  UNL     1      17.692  -8.055   4.447  1.00  0.00     0.190 C
BRANCH  12  13
HETATM   13  O5  UNL     1      16.458  -8.416   5.006  1.00  0.00    -0.399 OA
ATOM     14  H5  UNL     1      15.759  -7.923   4.591  1.00  0.00     0.209 HD
ENDBRANCH  12  13
ENDBRANCH  11  12
ENDBRANCH  10  11
ENDBRANCH   9  10
ENDBRANCH   8   9
ENDBRANCH   7   8
ENDBRANCH   3   7
BRANCH   4  15
HETATM   15  C10 UNL     1      17.859  -8.079  -1.351  1.00  0.00     0.190 C
BRANCH  15  16
HETATM   16  O6  UNL     1      16.466  -8.045  -1.381  1.00  0.00    -0.399 OA
ATOM     17  H6  UNL     1      16.085  -8.371  -0.574  1.00  0.00     0.209 HD
ENDBRANCH  15  16
ENDBRANCH   4  15
BRANCH   4  18
HETATM   18  C11 UNL     1      17.511  -5.619  -1.226  1.00  0.00     0.190 C
HETATM   19  O7  UNL     1      17.427  -5.198  -0.028  1.00  0.00    -0.647 OA
HETATM   20  O8  UNL     1      16.698  -5.038  -2.170  1.00  0.00    -0.647 OA
ENDBRANCH   4  18
BRANCH   1  21
HETATM   21  N1  UNL     1      18.502  -7.528  -3.823  1.00  0.00    -0.067 N
ATOM     22  H13 UNL     1      18.833  -8.476  -3.641  1.00  0.00     0.275 HD
ATOM     23  H12 UNL     1      17.507  -7.682  -3.661  1.00  0.00     0.275 HD
ATOM     24  H11 UNL     1      18.690  -7.237  -4.783  1.00  0.00     0.275 HD
ENDBRANCH   1  21
BRANCH   1  25
HETATM   25  C2  UNL     1      19.093  -5.235  -3.541  1.00  0.00     0.204 C
BRANCH  25  26
HETATM   26  O1  UNL     1      19.398  -5.402  -4.914  1.00  0.00    -0.398 OA
ATOM     27  H1  UNL     1      18.847  -4.801  -5.403  1.00  0.00     0.209 HD
ENDBRANCH  25  26
ENDBRANCH   1  25
TORSDOF 14
ENDMDL