MODEL 2
REMARK VINA RESULT: -6.125379989      0.063      1.794
REMARK  0 active torsions:
REMARK  status: ('A' for Active; 'I' for Inactive)
ROOT
HETATM    1  N1  UNL     1      15.700  -6.386  -2.305  1.00  0.00    -0.063 NA
HETATM    2  C1  UNL     1      16.976  -6.571  -1.706  1.00  0.00     0.195 A
HETATM    3  N2  UNL     1      18.191  -6.398  -2.278  1.00  0.00    -0.313 N
ATOM      4  H2  UNL     1      18.334  -6.103  -3.244  1.00  0.00     0.170 HD
HETATM    5  C2  UNL     1      19.181  -6.662  -1.418  1.00  0.00     0.152 A
HETATM    6  N3  UNL     1      20.530  -6.661  -1.428  1.00  0.00    -0.348 N
ATOM      7  H3  UNL     1      21.025  -6.402  -2.282  1.00  0.00     0.167 HD
HETATM    8  C3  UNL     1      21.240  -6.999  -0.322  1.00  0.00     0.107 A
HETATM    9  C4  UNL     1      20.633  -7.357   0.855  1.00  0.00     0.107 A
HETATM   10  N4  UNL     1      19.289  -7.365   0.887  1.00  0.00    -0.348 N
ATOM     11  H4  UNL     1      18.823  -7.629   1.754  1.00  0.00     0.167 HD
HETATM   12  C5  UNL     1      18.531  -7.038  -0.179  1.00  0.00     0.152 A
HETATM   13  N5  UNL     1      17.215  -6.961  -0.426  1.00  0.00    -0.313 N
ATOM     14  H5  UNL     1      16.487  -7.170   0.258  1.00  0.00     0.170 HD
ENDROOT
TORSDOF 0
ENDMDL