MODEL 5
REMARK VINA RESULT: -5.945306538      1.773      3.304
REMARK  0 active torsions:
REMARK  status: ('A' for Active; 'I' for Inactive)
ROOT
HETATM    1  N1  UNL     1      18.241  -8.608   2.323  1.00  0.00    -0.080 NA
HETATM    2  C1  UNL     1      18.424  -7.778   1.200  1.00  0.00     0.144 A
HETATM    3  N2  UNL     1      17.410  -7.310   0.448  1.00  0.00    -0.287 N
ATOM      4  H2  UNL     1      16.455  -7.566   0.700  1.00  0.00     0.188 HD
HETATM    5  N3  UNL     1      17.602  -6.530  -0.607  1.00  0.00    -0.308 N
ATOM      6  H3  UNL     1      16.786  -6.211  -1.130  1.00  0.00     0.186 HD
HETATM    7  C2  UNL     1      18.820  -6.139  -1.022  1.00  0.00     0.139 A
HETATM    8  C3  UNL     1      19.911  -6.582  -0.300  1.00  0.00     0.080 A
HETATM    9  N4  UNL     1      21.238  -6.381  -0.441  1.00  0.00    -0.299 N
ATOM     10  H4  UNL     1      21.690  -5.823  -1.165  1.00  0.00     0.187 HD
HETATM   11  N5  UNL     1      21.842  -7.039   0.531  1.00  0.00    -0.310 N
ATOM     12  H5  UNL     1      22.852  -7.067   0.673  1.00  0.00     0.186 HD
HETATM   13  C4  UNL     1      20.942  -7.670   1.308  1.00  0.00     0.124 A
HETATM   14  C5  UNL     1      19.698  -7.398   0.805  1.00  0.00     0.053 A
ENDROOT
TORSDOF 0
ENDMDL