MODEL 4
REMARK VINA RESULT: -6.009999854      1.293      4.135
REMARK  0 active torsions:
REMARK  status: ('A' for Active; 'I' for Inactive)
ROOT
HETATM    1  N1  UNL     1      21.666  -7.392   1.232  1.00  0.00    -0.098 NA
HETATM    2  C1  UNL     1      20.283  -7.380   0.939  1.00  0.00     0.093 A
HETATM    3  C2  UNL     1      19.338  -7.898   1.819  1.00  0.00     0.136 A
HETATM    4  N2  UNL     1      18.033  -7.864   1.492  1.00  0.00    -0.309 N
ATOM      5  H2  UNL     1      17.351  -8.247   2.147  1.00  0.00     0.186 HD
HETATM    6  N3  UNL     1      17.604  -7.349   0.350  1.00  0.00    -0.297 N
ATOM      7  H3  UNL     1      16.604  -7.349   0.152  1.00  0.00     0.187 HD
HETATM    8  C3  UNL     1      18.448  -6.829  -0.556  1.00  0.00     0.095 A
HETATM    9  C4  UNL     1      18.282  -6.241  -1.800  1.00  0.00     0.140 A
HETATM   10  N4  UNL     1      19.516  -5.923  -2.210  1.00  0.00    -0.309 N
ATOM     11  H4  UNL     1      19.736  -5.471  -3.098  1.00  0.00     0.186 HD
HETATM   12  N5  UNL     1      20.408  -6.279  -1.304  1.00  0.00    -0.297 N
ATOM     13  H5  UNL     1      21.415  -6.141  -1.390  1.00  0.00     0.187 HD
HETATM   14  C5  UNL     1      19.793  -6.853  -0.243  1.00  0.00     0.103 A
ENDROOT
TORSDOF 0
ENDMDL