MODEL 1
REMARK VINA RESULT: -6.911577193      0.000      0.000
REMARK  12 active torsions:
REMARK  status: ('A' for Active; 'I' for Inactive)
REMARK    1  A    between atoms: N1_1  and  C1_5
REMARK    2  A    between atoms: C2_6  and  O1_7
REMARK    3  A    between atoms: C2_6  and  C3_9
REMARK    4  A    between atoms: C3_9  and  O2_10
REMARK    5  A    between atoms: O2_10  and  C4_11
REMARK    6  A    between atoms: C7_17  and  C8_18
REMARK    7  A    between atoms: C7_17  and  C9_21
REMARK    8  A    between atoms: C8_18  and  O6_19
REMARK    9  A    between atoms: C9_21  and  O7_22
REMARK   10  A    between atoms: C9_21  and  C10_24
REMARK   11  A    between atoms: C10_24  and  C11_25
REMARK   12  A    between atoms: C11_25  and  O8_26
ROOT
HETATM    1  C1  UNL     1      18.509  -7.444  -0.159  1.00  0.00     0.237 C
HETATM    2  C2  UNL     1      19.141  -8.181   0.937  1.00  0.00     0.130 C
HETATM    3  C5  UNL     1      20.582  -7.988   1.219  1.00  0.00     0.209 C
HETATM    4  O5  UNL     1      21.234  -7.108   0.370  1.00  0.00    -0.387 OA
HETATM    5  C6  UNL     1      20.745  -7.196  -0.939  1.00  0.00     0.184 C
HETATM    6  C7  UNL     1      19.435  -6.457  -0.923  1.00  0.00     0.059 C
ENDROOT
BRANCH   6   7
HETATM    7  C8  UNL     1      19.624  -5.215  -0.094  1.00  0.00     0.180 C
BRANCH   7   8
HETATM    8  O6  UNL     1      20.811  -4.555  -0.387  1.00  0.00    -0.400 OA
ATOM      9  H6  UNL     1      20.833  -3.671  -0.037  1.00  0.00     0.209 HD
ENDBRANCH   7   8
ENDBRANCH   6   7
BRANCH   6  10
HETATM   10  C9  UNL     1      18.833  -6.264  -2.240  1.00  0.00     0.135 C
BRANCH  10  11
HETATM   11  O7  UNL     1      17.977  -7.372  -2.488  1.00  0.00    -0.395 OA
ATOM     12  H7  UNL     1      18.098  -7.631  -3.393  1.00  0.00     0.210 HD
ENDBRANCH  10  11
BRANCH  10  13
HETATM   13  C10 UNL     1      19.571  -6.006  -3.462  1.00  0.00     0.058 C
BRANCH  13  14
HETATM   14  C11 UNL     1      19.272  -6.754  -4.706  1.00  0.00     0.166 C
BRANCH  14  15
HETATM   15  O8  UNL     1      19.793  -8.072  -4.695  1.00  0.00    -0.401 OA
ATOM     16  H8  UNL     1      19.119  -8.735  -4.599  1.00  0.00     0.209 HD
ENDBRANCH  14  15
ENDBRANCH  13  14
ENDBRANCH  10  13
ENDBRANCH   6  10
BRANCH   1  17
HETATM   17  N1  UNL     1      17.284  -6.839   0.102  1.00  0.00    -0.071 N
ATOM     18  H13 UNL     1      16.561  -7.555   0.173  1.00  0.00     0.274 HD
ATOM     19  H12 UNL     1      17.283  -6.473   1.054  1.00  0.00     0.274 HD
ATOM     20  H11 UNL     1      16.976  -6.110  -0.541  1.00  0.00     0.274 HD
ENDBRANCH   1  17
BRANCH   2  21
HETATM   21  O1  UNL     1      18.997  -9.586   0.712  1.00  0.00    -0.383 OA
ATOM     22  H1  UNL     1      19.403 -10.065   1.426  1.00  0.00     0.210 HD
ENDBRANCH   2  21
BRANCH   2  23
HETATM   23  C3  UNL     1      18.392  -8.039   2.275  1.00  0.00     0.224 C
BRANCH  23  24
HETATM   24  O2  UNL     1      19.219  -8.159   3.374  1.00  0.00    -0.293 OA
BRANCH  24  25
HETATM   25  C4  UNL     1      18.736  -8.573   4.605  1.00  0.00     0.332 C
HETATM   26  O3  UNL     1      19.474  -9.081   5.460  1.00  0.00    -0.624 OA
HETATM   27  O4  UNL     1      17.388  -8.414   4.896  1.00  0.00    -0.624 OA
ENDBRANCH  24  25
ENDBRANCH  23  24
ENDBRANCH   2  23
TORSDOF 12
ENDMDL