MODEL 3
REMARK VINA RESULT: -7.129824045      1.037      1.378
REMARK  15 active torsions:
REMARK  status: ('A' for Active; 'I' for Inactive)
REMARK    1  A    between atoms: C2_2  and  O1_3
REMARK    2  A    between atoms: C2_2  and  C3_5
REMARK    3  A    between atoms: C2_2  and  C4_8
REMARK    4  A    between atoms: C3_5  and  O2_6
REMARK    5  A    between atoms: C4_8  and  N1_9
REMARK    6  A    between atoms: C4_8  and  C11_25
REMARK       I    between atoms: N1_9  and  C5_11
REMARK    7  A    between atoms: C5_11  and  C6_13
REMARK    8  A    between atoms: C6_13  and  C7_14
REMARK    9  A    between atoms: C6_13  and  O5_17
REMARK   10  A    between atoms: C7_14  and  O4_15
REMARK   11  A    between atoms: O5_17  and  C8_18
REMARK   12  A    between atoms: C8_18  and  C9_19
REMARK   13  A    between atoms: C9_19  and  O6_20
REMARK   14  A    between atoms: C9_19  and  C10_22
REMARK   15  A    between atoms: C10_22  and  O7_23
ROOT
HETATM    1  N1  UNL     1      18.508  -7.229  -0.794  1.00  0.00    -0.342 N
ATOM      2  H1  UNL     1      18.299  -8.224  -0.704  1.00  0.00     0.163 HD
HETATM    3  C5  UNL     1      19.180  -6.567   0.270  1.00  0.00     0.249 C
HETATM    4  O3  UNL     1      19.415  -5.342   0.112  1.00  0.00    -0.271 OA
ENDROOT
BRANCH   3   5
HETATM    5  C6  UNL     1      19.581  -7.298   1.509  1.00  0.00     0.236 C
BRANCH   5   6
HETATM    6  C7  UNL     1      21.035  -7.738   1.429  1.00  0.00     0.205 C
BRANCH   6   7
HETATM    7  O4  UNL     1      21.603  -7.250   0.253  1.00  0.00    -0.398 OA
ATOM      8  H4  UNL     1      21.944  -6.377   0.405  1.00  0.00     0.209 HD
ENDBRANCH   6   7
ENDBRANCH   5   6
BRANCH   5   9
HETATM    9  O5  UNL     1      18.733  -8.326   1.811  1.00  0.00    -0.372 OA
BRANCH   9  10
HETATM   10  C8  UNL     1      18.680  -8.639   3.164  1.00  0.00     0.202 C
BRANCH  10  11
HETATM   11  C9  UNL     1      17.337  -8.182   3.716  1.00  0.00     0.165 C
BRANCH  11  12
HETATM   12  O6  UNL     1      16.371  -9.171   3.535  1.00  0.00    -0.391 OA
ATOM     13  H6  UNL     1      16.410  -9.520   2.653  1.00  0.00     0.210 HD
ENDBRANCH  11  12
BRANCH  11  14
HETATM   14  C10 UNL     1      17.438  -7.972   5.232  1.00  0.00     0.198 C
BRANCH  14  15
HETATM   15  O7  UNL     1      16.184  -8.179   5.775  1.00  0.00    -0.398 OA
ATOM     16  H7  UNL     1      15.594  -7.536   5.402  1.00  0.00     0.209 HD
ENDBRANCH  14  15
ENDBRANCH  11  14
ENDBRANCH  10  11
ENDBRANCH   9  10
ENDBRANCH   5   9
ENDBRANCH   3   5
BRANCH   1  17
HETATM   17  C4  UNL     1      18.116  -6.543  -1.986  1.00  0.00     0.221 C
BRANCH  17  18
HETATM   18  C2  UNL     1      19.186  -6.555  -3.051  1.00  0.00     0.105 C
HETATM   19  C1  UNL     1      18.958  -7.633  -4.076  1.00  0.00     0.051 C
BRANCH  18  20
HETATM   20  O1  UNL     1      20.441  -6.764  -2.482  1.00  0.00    -0.385 OA
ATOM     21  H1  UNL     1      20.505  -7.683  -2.249  1.00  0.00     0.210 HD
ENDBRANCH  18  20
BRANCH  18  22
HETATM   22  C3  UNL     1      19.262  -5.243  -3.796  1.00  0.00     0.204 C
BRANCH  22  23
HETATM   23  O2  UNL     1      19.470  -5.547  -5.143  1.00  0.00    -0.398 OA
ATOM     24  H2  UNL     1      18.623  -5.519  -5.570  1.00  0.00     0.209 HD
ENDBRANCH  22  23
ENDBRANCH  18  22
ENDBRANCH  17  18
BRANCH  17  25
HETATM   25  C11 UNL     1      16.869  -7.133  -2.574  1.00  0.00     0.199 C
HETATM   26  O8  UNL     1      15.949  -6.369  -3.025  1.00  0.00    -0.646 OA
HETATM   27  O9  UNL     1      16.634  -8.485  -2.666  1.00  0.00    -0.646 OA
ENDBRANCH  17  25
ENDBRANCH   1  17
TORSDOF 15
ENDMDL