MODEL 3
REMARK VINA RESULT: -5.995101098      1.361      2.984
REMARK  0 active torsions:
REMARK  status: ('A' for Active; 'I' for Inactive)
ROOT
HETATM    1  N1  UNL     1      15.900  -6.186  -2.496  1.00  0.00    -0.079 NA
HETATM    2  C1  UNL     1      17.260  -6.253  -2.134  1.00  0.00     0.160 A
HETATM    3  N2  UNL     1      18.263  -5.853  -2.940  1.00  0.00    -0.286 N
ATOM      4  H2  UNL     1      18.032  -5.482  -3.862  1.00  0.00     0.188 HD
HETATM    5  N3  UNL     1      19.535  -5.923  -2.583  1.00  0.00    -0.310 N
ATOM      6  H3  UNL     1      20.240  -5.600  -3.245  1.00  0.00     0.186 HD
HETATM    7  C2  UNL     1      19.949  -6.395  -1.394  1.00  0.00     0.122 A
HETATM    8  C3  UNL     1      18.974  -6.826  -0.511  1.00  0.00     0.029 A
HETATM    9  C4  UNL     1      19.011  -7.356   0.762  1.00  0.00     0.122 A
HETATM   10  N4  UNL     1      17.740  -7.591   1.133  1.00  0.00    -0.310 N
ATOM     11  H4  UNL     1      17.451  -7.983   2.029  1.00  0.00     0.186 HD
HETATM   12  N5  UNL     1      16.920  -7.231   0.152  1.00  0.00    -0.297 N
ATOM     13  H5  UNL     1      15.903  -7.308   0.184  1.00  0.00     0.187 HD
HETATM   14  C5  UNL     1      17.630  -6.748  -0.895  1.00  0.00     0.103 A
ENDROOT
TORSDOF 0
ENDMDL