MODEL 4
REMARK VINA RESULT: -6.140356974      1.307      2.249
REMARK  0 active torsions:
REMARK  status: ('A' for Active; 'I' for Inactive)
ROOT
HETATM    1  N1  UNL     1      16.759  -6.965  -0.554  1.00  0.00    -0.080 NA
HETATM    2  C1  UNL     1      18.126  -6.867  -0.931  1.00  0.00     0.144 A
HETATM    3  N2  UNL     1      18.664  -6.552  -2.123  1.00  0.00    -0.287 N
ATOM      4  H2  UNL     1      18.126  -6.330  -2.961  1.00  0.00     0.188 HD
HETATM    5  N3  UNL     1      19.984  -6.570  -2.061  1.00  0.00    -0.297 N
ATOM      6  H3  UNL     1      20.607  -6.364  -2.841  1.00  0.00     0.187 HD
HETATM    7  C2  UNL     1      20.391  -6.901  -0.808  1.00  0.00     0.080 A
HETATM    8  C3  UNL     1      21.636  -7.055  -0.233  1.00  0.00     0.139 A
HETATM    9  N4  UNL     1      21.654  -7.399   1.069  1.00  0.00    -0.310 N
ATOM     10  H4  UNL     1      22.551  -7.524   1.537  1.00  0.00     0.186 HD
HETATM   11  N5  UNL     1      20.529  -7.583   1.764  1.00  0.00    -0.311 N
ATOM     12  H5  UNL     1      20.604  -7.843   2.747  1.00  0.00     0.186 HD
HETATM   13  C4  UNL     1      19.314  -7.442   1.238  1.00  0.00     0.124 A
HETATM   14  C5  UNL     1      19.212  -7.088  -0.098  1.00  0.00     0.053 A
ENDROOT
TORSDOF 0
ENDMDL