MODEL 1
REMARK VINA RESULT: -6.237659194      0.000      0.000
REMARK  0 active torsions:
REMARK  status: ('A' for Active; 'I' for Inactive)
ROOT
HETATM    1  N1  UNL     1      17.316  -7.301  -0.187  1.00  0.00    -0.385 N
ATOM      2  H11 UNL     1      17.335  -6.908  -1.129  1.00  0.00     0.157 HD
ATOM      3  H12 UNL     1      16.336  -7.506   0.009  1.00  0.00     0.157 HD
HETATM    4  C1  UNL     1      18.290  -7.518   0.632  1.00  0.00     0.109 A
HETATM    5  C2  UNL     1      18.263  -8.076   1.968  1.00  0.00     0.052 A
HETATM    6  C3  UNL     1      19.489  -8.125   2.458  1.00  0.00     0.054 A
HETATM    7  C4  UNL     1      20.392  -7.591   1.442  1.00  0.00     0.130 A
HETATM    8  N2  UNL     1      21.661  -7.292   1.111  1.00  0.00    -0.283 N
ATOM      9  H2  UNL     1      22.468  -7.442   1.716  1.00  0.00     0.188 HD
HETATM   10  N3  UNL     1      21.720  -6.781  -0.105  1.00  0.00    -0.271 N
ATOM     11  H3  UNL     1      22.565  -6.475  -0.585  1.00  0.00     0.189 HD
HETATM   12  C5  UNL     1      20.459  -6.733  -0.603  1.00  0.00     0.217 A
HETATM   13  N4  UNL     1      20.058  -6.254  -1.879  1.00  0.00    -0.061 NA
HETATM   14  N5  UNL     1      19.656  -7.233   0.359  1.00  0.00    -0.254 N
ENDROOT
TORSDOF 0
ENDMDL