MODEL 2
REMARK VINA RESULT: -4.139694141      2.994      4.491
REMARK  6 active torsions:
REMARK  status: ('A' for Active; 'I' for Inactive)
REMARK    1  A    between atoms: C2_2  and  C3_3
REMARK    2  A    between atoms: C3_3  and  N1_4
REMARK    3  A    between atoms: N2_8  and  C5_9
REMARK    4  A    between atoms: C5_9  and  C6_10
REMARK    5  A    between atoms: C6_10  and  C7_11
REMARK    6  A    between atoms: C6_10  and  C11_17
ROOT
HETATM    1  C6  UNL     1      17.817  -5.650  -2.317  1.00  0.00     0.084 C
ENDROOT
BRANCH   1   2
HETATM    2  C5  UNL     1      16.870  -5.690  -3.437  1.00  0.00     0.154 C
BRANCH   2   3
HETATM    3  N2  UNL     1      17.366  -6.279  -4.674  1.00  0.00    -0.241 N
HETATM    4  C4  UNL     1      17.114  -7.506  -5.144  1.00  0.00     0.393 A
HETATM    5  O1  UNL     1      17.777  -7.621  -6.271  1.00  0.00    -0.174 OA
HETATM    6  O2  UNL     1      16.414  -8.437  -4.705  1.00  0.00    -0.236 OA
HETATM    7  N1  UNL     1      18.443  -6.557  -6.567  1.00  0.00    -0.193 N
HETATM    8  C16 UNL     1      18.192  -5.699  -5.566  1.00  0.00     0.353 A
HETATM    9  O5  UNL     1      18.656  -4.547  -5.480  1.00  0.00    -0.244 OA
BRANCH   7  10
HETATM   10  C3  UNL     1      19.283  -6.317  -7.723  1.00  0.00     0.188 C
BRANCH  10  11
HETATM   11  C2  UNL     1      20.272  -7.396  -7.924  1.00  0.00    -0.015 C
HETATM   12  C1  UNL     1      20.732  -7.738  -9.123  1.00  0.00     0.008 C
ENDBRANCH  10  11
ENDBRANCH   7  10
ENDBRANCH   2   3
ENDBRANCH   1   2
BRANCH   1  13
HETATM   13  C7  UNL     1      17.182  -6.191  -1.082  1.00  0.00    -0.005 A
HETATM   14  C8  UNL     1      15.882  -6.599  -0.926  1.00  0.00     0.017 A
HETATM   15  C9  UNL     1      15.505  -7.044   0.282  1.00  0.00     0.032 A
HETATM   16  C10 UNL     1      16.457  -7.055   1.269  1.00  0.00     0.075 A
HETATM   17 CL1  UNL     1      16.241  -7.587   2.947  1.00  0.00    -0.076 Cl
HETATM   18  S1  UNL     1      17.838  -6.450   0.490  1.00  0.00    -0.082 SA
ENDBRANCH   1  13
BRANCH   1  19
HETATM   19  C11 UNL     1      19.170  -6.215  -2.446  1.00  0.00     0.033 A
HETATM   20  C12 UNL     1      19.415  -7.542  -2.249  1.00  0.00    -0.004 A
HETATM   21  C13 UNL     1      18.397  -8.570  -1.877  1.00  0.00     0.057 C
HETATM   22  S2  UNL     1      21.061  -8.025  -2.462  1.00  0.00    -0.033 SA
HETATM   23  C14 UNL     1      22.093  -6.769  -2.876  1.00  0.00     0.291 A
HETATM   24  O3  UNL     1      23.345  -6.909  -3.078  1.00  0.00    -0.260 OA
HETATM   25  N3  UNL     1      21.492  -5.580  -2.982  1.00  0.00    -0.284 N
HETATM   26  C15 UNL     1      20.209  -5.320  -2.797  1.00  0.00     0.256 A
ATOM     27  H3  UNL     1      22.086  -4.789  -3.233  1.00  0.00     0.172 HD
HETATM   28  O4  UNL     1      19.903  -4.076  -2.966  1.00  0.00    -0.267 OA
ENDBRANCH   1  19
TORSDOF 6
ENDMDL