MODEL 3
REMARK VINA RESULT: -0.631302718      1.024      1.034
REMARK  7 active torsions:
REMARK  status: ('A' for Active; 'I' for Inactive)
REMARK    1  A    between atoms: O1_2  and  C2_3
REMARK    2  A    between atoms: C2_3  and  C3_5
REMARK    3  A    between atoms: C3_5  and  C4_6
REMARK    4  A    between atoms: C6_9  and  C7_10
REMARK    5  A    between atoms: C9_13  and  S2_14
REMARK    6  A    between atoms: S2_14  and  C10_15
REMARK    7  A    between atoms: C10_15  and  C11_16
REMARK       I    between atoms: C11_16  and  N1_18
ROOT
HETATM    1  C11 UNL     1      17.415  -7.821   1.386  1.00  0.00     0.230 C
HETATM    2  O3  UNL     1      18.376  -8.327   0.725  1.00  0.00    -0.272 OA
HETATM    3  N1  UNL     1      17.333  -7.992   2.801  1.00  0.00    -0.330 N
HETATM    4  C12 UNL     1      18.364  -8.758   3.492  1.00  0.00     0.153 C
HETATM    5  C13 UNL     1      18.272  -8.359   4.950  1.00  0.00     0.187 C
HETATM    6  O4  UNL     1      17.023  -8.748   5.392  1.00  0.00    -0.387 OA
HETATM    7  C14 UNL     1      15.987  -8.036   4.863  1.00  0.00     0.208 C
HETATM    8  C15 UNL     1      16.256  -7.420   3.523  1.00  0.00     0.218 C
HETATM    9  C16 UNL     1      16.552  -5.993   3.749  1.00  0.00     0.087 C
HETATM   10  N2  UNL     1      16.785  -4.866   3.930  1.00  0.00    -0.195 NA
ENDROOT
BRANCH   1  11
HETATM   11  C10 UNL     1      16.361  -7.042   0.690  1.00  0.00     0.181 C
BRANCH  11  12
HETATM   12  S2  UNL     1      17.155  -5.776  -0.319  1.00  0.00    -0.130 SA
BRANCH  12  13
HETATM   13  C9  UNL     1      16.378  -5.619  -1.886  1.00  0.00     0.076 C
HETATM   14  C8  UNL     1      16.842  -5.988  -3.042  1.00  0.00     0.057 C
HETATM   15  C5  UNL     1      18.178  -6.633  -3.168  1.00  0.00     0.026 C
HETATM   16  N3  UNL     1      16.105  -5.759  -4.279  1.00  0.00    -0.325 N
HETATM   17  S1  UNL     1      19.147  -5.962  -4.527  1.00  0.00    -0.113 SA
HETATM   18  C6  UNL     1      18.529  -7.563  -2.359  1.00  0.00     0.009 C
HETATM   19  C4  UNL     1      18.012  -5.749  -5.914  1.00  0.00     0.154 C
HETATM   20  C17 UNL     1      16.657  -6.141  -5.521  1.00  0.00     0.236 C
HETATM   21  O5  UNL     1      15.935  -6.850  -6.314  1.00  0.00    -0.272 OA
ATOM     22  H3  UNL     1      15.184  -5.321  -4.247  1.00  0.00     0.169 HD
BRANCH  19  23
HETATM   23  C3  UNL     1      18.491  -6.479  -7.149  1.00  0.00     0.136 C
BRANCH  23  24
HETATM   24  C2  UNL     1      19.805  -7.090  -6.837  1.00  0.00     0.260 C
HETATM   25  O2  UNL     1      20.254  -7.059  -5.665  1.00  0.00    -0.265 OA
BRANCH  24  26
HETATM   26  O1  UNL     1      20.588  -7.713  -7.799  1.00  0.00    -0.326 OA
HETATM   27  C1  UNL     1      20.504  -7.290  -9.140  1.00  0.00     0.213 C
ENDBRANCH  24  26
ENDBRANCH  23  24
ENDBRANCH  19  23
BRANCH  18  28
HETATM   28  C7  UNL     1      19.817  -8.261  -2.398  1.00  0.00     0.143 C
HETATM   29 CL1  UNL     1      21.185  -7.292  -1.915  1.00  0.00    -0.126 Cl
ENDBRANCH  18  28
ENDBRANCH  12  13
ENDBRANCH  11  12
ENDBRANCH   1  11
TORSDOF 7
ENDMDL