MODEL 5
REMARK VINA RESULT: -5.924180173      3.778      8.011
REMARK  4 active torsions:
REMARK  status: ('A' for Active; 'I' for Inactive)
REMARK    1  A    between atoms: C1_2  and  C2_3
REMARK    2  A    between atoms: C2_3  and  N1_4
REMARK    3  A    between atoms: C6_8  and  C7_9
REMARK    4  A    between atoms: C8_10  and  C9_11
ROOT
HETATM    1  C7  UNL     1      16.008  -6.068  -3.947  1.00  0.00     0.002 C
HETATM    2  C8  UNL     1      16.130  -6.831  -2.905  1.00  0.00     0.030 C
ENDROOT
BRANCH   2   3
HETATM    3  C9  UNL     1      17.286  -7.081  -2.077  1.00  0.00     0.043 A
HETATM    4  N2  UNL     1      18.467  -7.421  -2.672  1.00  0.00    -0.365 N
HETATM    5  C10 UNL     1      19.581  -7.712  -2.000  1.00  0.00     0.089 A
ATOM      6  H2  UNL     1      18.499  -7.454  -3.691  1.00  0.00     0.165 HD
HETATM    7  C11 UNL     1      19.605  -7.685  -0.626  1.00  0.00     0.029 A
HETATM    8  C12 UNL     1      18.424  -7.347   0.011  1.00  0.00    -0.022 A
HETATM    9  C13 UNL     1      18.368  -7.352   1.394  1.00  0.00     0.012 A
HETATM   10  C17 UNL     1      17.257  -7.045  -0.709  1.00  0.00     0.001 A
HETATM   11  C14 UNL     1      17.222  -7.080   2.099  1.00  0.00     0.001 A
HETATM   12  C15 UNL     1      16.092  -6.793   1.370  1.00  0.00     0.001 A
HETATM   13  C16 UNL     1      16.085  -6.771  -0.010  1.00  0.00     0.014 A
ENDBRANCH   2   3
BRANCH   1  14
HETATM   14  C6  UNL     1      16.982  -5.245  -4.610  1.00  0.00     0.003 C
HETATM   15  C5  UNL     1      17.713  -5.730  -5.600  1.00  0.00    -0.077 C
HETATM   16  C4  UNL     1      18.708  -4.837  -6.252  1.00  0.00     0.064 C
HETATM   17  C18 UNL     1      17.492  -7.144  -5.995  1.00  0.00     0.064 C
HETATM   18  C3  UNL     1      19.497  -5.557  -7.317  1.00  0.00     0.276 C
HETATM   19  N1  UNL     1      19.665  -6.922  -6.924  1.00  0.00     0.090 N
HETATM   20  C19 UNL     1      18.391  -7.585  -7.123  1.00  0.00     0.276 C
BRANCH  19  21
HETATM   21  C2  UNL     1      20.766  -7.595  -7.534  1.00  0.00     0.287 C
BRANCH  21  22
HETATM   22  C1  UNL     1      20.656  -7.731  -9.028  1.00  0.00     0.144 C
HETATM   23 CL1  UNL     1      21.541  -9.139  -9.636  1.00  0.00    -0.129 Cl
ENDBRANCH  21  22
ENDBRANCH  19  21
ENDBRANCH   1  14
TORSDOF 4
ENDMDL