MODEL 3
REMARK VINA RESULT: -0.628206263      0.954      1.186
REMARK  4 active torsions:
REMARK  status: ('A' for Active; 'I' for Inactive)
REMARK    1  A    between atoms: C2_2  and  C3_3
REMARK    2  A    between atoms: C8_9  and  C9_10
REMARK    3  A    between atoms: N1_16  and  C15_17
REMARK    4  A    between atoms: C15_17  and  C16_18
ROOT
HETATM    1  C9  UNL     1      19.006  -6.268  -2.301  1.00  0.00     0.122 C
HETATM    2  C10 UNL     1      20.121  -6.043  -3.201  1.00  0.00     0.030 C
HETATM    3  C11 UNL     1      21.060  -7.015  -3.714  1.00  0.00     0.003 C
HETATM    4  C12 UNL     1      22.258  -7.053  -2.738  1.00  0.00     0.005 C
HETATM    5  C13 UNL     1      21.662  -7.085  -1.362  1.00  0.00     0.044 C
HETATM    6  C14 UNL     1      20.455  -7.997  -1.438  1.00  0.00     0.064 C
HETATM    7  N1  UNL     1      19.199  -7.378  -1.379  1.00  0.00    -0.360 N
ENDROOT
BRANCH   1   8
HETATM    8  C8  UNL     1      17.783  -6.536  -3.101  1.00  0.00    -0.027 A
HETATM    9  C3  UNL     1      17.738  -5.974  -4.391  1.00  0.00    -0.050 A
HETATM   10  C4  UNL     1      16.572  -6.005  -5.086  1.00  0.00     0.009 A
HETATM   11  C5  UNL     1      15.389  -6.574  -4.585  1.00  0.00     0.024 A
HETATM   12  C6  UNL     1      15.470  -7.110  -3.331  1.00  0.00     0.034 A
HETATM   13 CL1  UNL     1      13.985  -7.825  -2.668  1.00  0.00    -0.084 Cl
HETATM   14  C7  UNL     1      16.636  -7.107  -2.584  1.00  0.00     0.033 A
BRANCH   9  15
HETATM   15  C2  UNL     1      18.998  -5.489  -4.984  1.00  0.00     0.035 C
HETATM   16  C1  UNL     1      18.943  -5.622  -6.498  1.00  0.00     0.010 C
ENDBRANCH   9  15
ENDBRANCH   1   8
BRANCH   7  17
HETATM   17  C15 UNL     1      18.120  -8.017  -0.823  1.00  0.00     0.103 C
BRANCH  17  18
HETATM   18  C16 UNL     1      17.631  -7.651   0.526  1.00  0.00    -0.008 A
HETATM   19  C17 UNL     1      16.593  -8.256   1.101  1.00  0.00     0.006 A
HETATM   20  C18 UNL     1      16.350  -7.690   2.421  1.00  0.00     0.147 A
HETATM   21  N2  UNL     1      17.376  -6.691   2.566  1.00  0.00    -0.395 N
HETATM   22  C19 UNL     1      18.070  -6.684   1.498  1.00  0.00     0.095 A
ATOM     23  H2  UNL     1      17.522  -6.094   3.380  1.00  0.00     0.159 HD
ENDBRANCH  17  18
ENDBRANCH   7  17
TORSDOF 4
ENDMDL