MODEL 1
REMARK VINA RESULT: -6.139004373      0.000      0.000
REMARK  4 active torsions:
REMARK  status: ('A' for Active; 'I' for Inactive)
REMARK    1  A    between atoms: C2_2  and  C3_3
REMARK    2  A    between atoms: C3_3  and  C4_4
REMARK    3  A    between atoms: C7_7  and  C8_8
REMARK    4  A    between atoms: C8_8  and  N1_9
ROOT
HETATM    1  N1  UNL     1      16.415  -6.240  -3.017  1.00  0.00    -0.404 N
HETATM    2  C9  UNL     1      15.948  -5.343  -2.027  1.00  0.00     0.123 C
HETATM    3  C10 UNL     1      15.559  -6.228  -0.832  1.00  0.00     0.077 C
HETATM    4  C11 UNL     1      16.842  -6.926  -0.449  1.00  0.00     0.020 A
HETATM    5  N2  UNL     1      16.989  -7.343   0.834  1.00  0.00    -0.363 N
ATOM      6  H2  UNL     1      16.231  -7.174   1.496  1.00  0.00     0.165 HD
HETATM    7  C12 UNL     1      18.093  -7.970   1.261  1.00  0.00     0.007 A
HETATM    8  C13 UNL     1      18.246  -8.426   2.673  1.00  0.00     0.068 C
HETATM    9  C14 UNL     1      19.099  -8.186   0.345  1.00  0.00     0.049 A
HETATM   10  C15 UNL     1      19.010  -7.788  -0.966  1.00  0.00     0.045 A
HETATM   11 CL1  UNL     1      20.295  -8.068  -2.117  1.00  0.00    -0.084 Cl
HETATM   12  C16 UNL     1      17.840  -7.136  -1.371  1.00  0.00     0.004 A
HETATM   13  C17 UNL     1      17.738  -6.696  -2.810  1.00  0.00     0.159 C
ENDROOT
BRANCH   1  14
HETATM   14  C8  UNL     1      15.964  -6.067  -4.344  1.00  0.00     0.155 C
BRANCH  14  15
HETATM   15  C7  UNL     1      17.133  -6.191  -5.257  1.00  0.00    -0.041 A
HETATM   16  C6  UNL     1      17.375  -7.409  -5.897  1.00  0.00     0.009 A
HETATM   17  C5  UNL     1      18.452  -7.561  -6.745  1.00  0.00     0.007 A
HETATM   18  C4  UNL     1      19.339  -6.537  -7.004  1.00  0.00    -0.058 A
HETATM   19  C19 UNL     1      19.097  -5.335  -6.368  1.00  0.00     0.007 A
HETATM   20  C18 UNL     1      18.019  -5.175  -5.517  1.00  0.00     0.009 A
BRANCH  18  21
HETATM   21  C3  UNL     1      20.506  -6.682  -7.914  1.00  0.00     0.038 C
BRANCH  21  22
HETATM   22  C2  UNL     1      20.174  -7.464  -9.158  1.00  0.00     0.000 C
HETATM   23  C1  UNL     1      21.190  -8.577  -9.323  1.00  0.00     0.005 C
ENDBRANCH  21  22
ENDBRANCH  18  21
ENDBRANCH  14  15
ENDBRANCH   1  14
TORSDOF 4
ENDMDL