MODEL 2
REMARK VINA RESULT: -7.865770447      0.124      1.067
REMARK  4 active torsions:
REMARK  status: ('A' for Active; 'I' for Inactive)
REMARK    1  A    between atoms: C2_2  and  C3_3
REMARK    2  A    between atoms: N1_12  and  N2_14
REMARK    3  A    between atoms: N2_14  and  C13_16
REMARK    4  A    between atoms: C13_16  and  C14_17
ROOT
HETATM    1  C3  UNL     1      18.342  -7.555  -1.305  1.00  0.00    -0.027 A
HETATM    2  C4  UNL     1      17.933  -7.446  -0.053  1.00  0.00    -0.044 A
HETATM    3  C5  UNL     1      18.460  -8.026   1.211  1.00  0.00     0.040 C
HETATM    4  C6  UNL     1      17.209  -8.133   2.052  1.00  0.00     0.009 C
HETATM    5  C7  UNL     1      16.597  -6.749   1.812  1.00  0.00     0.039 C
HETATM    6  C8  UNL     1      16.772  -6.644   0.323  1.00  0.00    -0.055 A
HETATM    7  C9  UNL     1      16.075  -5.988  -0.589  1.00  0.00    -0.013 A
HETATM    8  C10 UNL     1      16.390  -5.999  -2.025  1.00  0.00     0.086 A
HETATM    9  C11 UNL     1      17.592  -6.846  -2.332  1.00  0.00     0.036 A
HETATM   10  N1  UNL     1      18.012  -6.980  -3.539  1.00  0.00    -0.303 N
ATOM     11  H1  UNL     1      18.827  -7.553  -3.752  1.00  0.00     0.186 HD
ENDROOT
BRANCH  10  12
HETATM   12  N2  UNL     1      17.314  -6.314  -4.547  1.00  0.00    -0.307 N
HETATM   13  C12 UNL     1      15.860  -6.443  -4.654  1.00  0.00     0.177 C
BRANCH  12  14
HETATM   14  C13 UNL     1      18.047  -5.518  -5.453  1.00  0.00     0.117 C
BRANCH  14  15
HETATM   15  C14 UNL     1      18.737  -6.137  -6.431  1.00  0.00    -0.038 A
HETATM   16  C15 UNL     1      19.861  -6.967  -6.059  1.00  0.00     0.010 A
HETATM   17  C16 UNL     1      20.592  -7.608  -6.925  1.00  0.00     0.024 A
HETATM   18  C17 UNL     1      20.232  -7.460  -8.331  1.00  0.00     0.030 A
HETATM   19 CL1  UNL     1      21.185  -8.303  -9.547  1.00  0.00    -0.085 Cl
HETATM   20  C18 UNL     1      19.226  -6.724  -8.731  1.00  0.00     0.002 A
HETATM   21  C19 UNL     1      18.347  -5.967  -7.838  1.00  0.00     0.068 A
ENDBRANCH  14  15
ENDBRANCH  12  14
ENDBRANCH  10  12
BRANCH   1  22
HETATM   22  C2  UNL     1      19.526  -8.372  -1.659  1.00  0.00     0.036 C
HETATM   23  C1  UNL     1      20.770  -7.526  -1.815  1.00  0.00     0.010 C
ENDBRANCH   1  22
TORSDOF 4
ENDMDL