MODEL 4
REMARK VINA RESULT: -4.991705801     10.423     12.006
REMARK  3 active torsions:
REMARK  status: ('A' for Active; 'I' for Inactive)
REMARK    1  A    between atoms: C6_7  and  C7_8
REMARK    2  A    between atoms: N1_11  and  C10_12
REMARK    3  A    between atoms: C10_12  and  C11_13
ROOT
HETATM    1  C7  UNL     1      18.205  -6.869  -3.888  1.00  0.00    -0.045 C
HETATM    2  C8  UNL     1      18.897  -6.774  -2.775  1.00  0.00     0.025 C
HETATM    3  C9  UNL     1      18.291  -7.363  -1.552  1.00  0.00     0.091 C
HETATM    4  N1  UNL     1      16.970  -6.906  -1.411  1.00  0.00    -0.365 N
HETATM    5  C17 UNL     1      16.178  -6.838  -2.571  1.00  0.00     0.132 C
HETATM    6  C18 UNL     1      16.873  -7.572  -3.732  1.00  0.00     0.060 C
ENDROOT
BRANCH   4   7
HETATM    7  C10 UNL     1      16.629  -6.080  -0.324  1.00  0.00     0.103 C
BRANCH   7   8
HETATM    8  C11 UNL     1      16.880  -6.730   0.987  1.00  0.00    -0.005 A
HETATM    9  C12 UNL     1      16.085  -6.447   2.106  1.00  0.00     0.016 A
HETATM   10  C13 UNL     1      16.308  -7.037   3.335  1.00  0.00     0.025 A
HETATM   11  C14 UNL     1      17.340  -7.940   3.495  1.00  0.00     0.005 A
HETATM   12  C15 UNL     1      17.612  -8.601   4.809  1.00  0.00     0.068 C
HETATM   13  N2  UNL     1      18.097  -8.205   2.414  1.00  0.00    -0.369 N
HETATM   14  C16 UNL     1      17.895  -7.639   1.209  1.00  0.00     0.100 A
ATOM     15  H2  UNL     1      18.865  -8.869   2.514  1.00  0.00     0.165 HD
ENDBRANCH   7   8
ENDBRANCH   4   7
BRANCH   1  16
HETATM   16  C6  UNL     1      18.684  -6.341  -5.138  1.00  0.00    -0.028 A
HETATM   17  C5  UNL     1      18.632  -4.982  -5.423  1.00  0.00     0.035 A
HETATM   18  C4  UNL     1      19.114  -4.515  -6.648  1.00  0.00     0.035 A
HETATM   19  C3  UNL     1      19.643  -5.374  -7.581  1.00  0.00     0.030 A
HETATM   20 CL1  UNL     1      19.041  -2.799  -6.992  1.00  0.00    -0.084 Cl
HETATM   21  C2  UNL     1      19.696  -6.715  -7.303  1.00  0.00    -0.060 A
HETATM   22  C1  UNL     1      20.262  -7.624  -8.304  1.00  0.00     0.048 C
HETATM   23  C19 UNL     1      19.216  -7.171  -6.085  1.00  0.00     0.018 A
ENDBRANCH   1  16
TORSDOF 3
ENDMDL