MODEL 5
REMARK VINA RESULT: 2.842859679      1.661      3.211
REMARK  7 active torsions:
REMARK  status: ('A' for Active; 'I' for Inactive)
REMARK    1  A    between atoms: C2_2  and  N1_3
REMARK       I    between atoms: N1_3  and  C4_5
REMARK    2  A    between atoms: C4_5  and  C5_7
REMARK    3  A    between atoms: N2_10  and  C8_11
REMARK    4  A    between atoms: C10_18  and  C11_19
REMARK    5  A    between atoms: C11_19  and  C12_20
REMARK    6  A    between atoms: C14_23  and  S2_24
REMARK    7  A    between atoms: S2_24  and  C15_27
ROOT
HETATM    1  C5  UNL     1      18.713  -6.176  -2.547  1.00  0.00     0.099 C
HETATM    2  C6  UNL     1      19.530  -5.748  -1.358  1.00  0.00     0.035 C
HETATM    3  C7  UNL     1      19.278  -6.631  -0.123  1.00  0.00     0.125 C
HETATM    4  N2  UNL     1      17.894  -6.677   0.183  1.00  0.00    -0.365 N
HETATM    5  C13 UNL     1      16.939  -6.609  -0.893  1.00  0.00     0.145 C
HETATM    6  C14 UNL     1      17.541  -7.047  -2.221  1.00  0.00     0.140 C
ENDROOT
BRANCH   4   7
HETATM    7  C8  UNL     1      17.353  -6.790   1.524  1.00  0.00     0.120 C
HETATM    8  N3  UNL     1      16.700  -5.877   2.125  1.00  0.00    -0.269 N
HETATM    9  S1  UNL     1      16.227  -6.389   3.686  1.00  0.00     0.236 S
ATOM     10  H3  UNL     1      16.487  -4.962   1.728  1.00  0.00     0.180 HD
HETATM   11  O2  UNL     1      14.785  -6.165   3.934  1.00  0.00    -0.205 OA
HETATM   12  O3  UNL     1      17.107  -5.844   4.769  1.00  0.00    -0.205 OA
HETATM   13  C9  UNL     1      16.594  -8.148   3.429  1.00  0.00     0.206 C
HETATM   14  C10 UNL     1      17.540  -8.027   2.304  1.00  0.00     0.003 C
BRANCH  14  15
HETATM   15  C11 UNL     1      18.489  -8.933   2.032  1.00  0.00     0.024 C
BRANCH  15  16
HETATM   16  C12 UNL     1      19.597  -9.406   2.814  1.00  0.00     0.085 C
HETATM   17 CL1  UNL     1      21.057  -9.952   2.068  1.00  0.00    -0.097 Cl
ENDBRANCH  15  16
ENDBRANCH  14  15
ENDBRANCH   4   7
BRANCH   6  18
HETATM   18  S2  UNL     1      16.250  -6.679  -3.418  1.00  0.00     0.154 S
HETATM   19  O4  UNL     1      15.011  -7.474  -3.085  1.00  0.00    -0.227 OA
HETATM   20  O5  UNL     1      15.873  -5.230  -3.313  1.00  0.00    -0.227 OA
BRANCH  18  21
HETATM   21  C15 UNL     1      16.715  -7.017  -5.067  1.00  0.00     0.101 C
HETATM   22  C16 UNL     1      16.837  -8.481  -5.402  1.00  0.00     0.026 C
HETATM   23  C17 UNL     1      15.559  -6.508  -5.954  1.00  0.00     0.026 C
ENDBRANCH  18  21
ENDBRANCH   6  18
BRANCH   1  24
HETATM   24  C4  UNL     1      19.640  -6.757  -3.549  1.00  0.00     0.225 C
HETATM   25  N1  UNL     1      19.648  -6.322  -4.876  1.00  0.00    -0.356 N
HETATM   26  C3  UNL     1      20.629  -6.941  -5.789  1.00  0.00     0.152 C
HETATM   27  O1  UNL     1      20.449  -7.669  -3.200  1.00  0.00    -0.273 OA
BRANCH  25  28
HETATM   28  C2  UNL     1      18.804  -5.326  -5.466  1.00  0.00     0.120 C
HETATM   29  C1  UNL     1      19.064  -5.054  -6.921  1.00  0.00     0.026 C
ENDBRANCH  25  28
ENDBRANCH   1  24
TORSDOF 7
ENDMDL