MODEL 1
REMARK VINA RESULT: -3.910453259      0.000      0.000
REMARK  7 active torsions:
REMARK  status: ('A' for Active; 'I' for Inactive)
REMARK    1  A    between atoms: C2_2  and  C3_3
REMARK    2  A    between atoms: C2_2  and  C17_19
REMARK    3  A    between atoms: C3_3  and  N1_4
REMARK    4  A    between atoms: N1_4  and  C4_5
REMARK    5  A    between atoms: N1_4  and  C11_13
REMARK    6  A    between atoms: C4_5  and  C5_6
REMARK    7  A    between atoms: C5_6  and  N2_7
ROOT
HETATM    1  N1  UNL     1      17.933  -5.977  -2.556  1.00  0.00    -0.362 N
ENDROOT
BRANCH   1   2
HETATM    2  C3  UNL     1      17.123  -5.893  -3.658  1.00  0.00     0.102 C
BRANCH   2   3
HETATM    3  C2  UNL     1      17.321  -6.728  -4.851  1.00  0.00    -0.009 C
HETATM    4  C1  UNL     1      16.691  -7.851  -5.071  1.00  0.00     0.026 C
BRANCH   3   5
HETATM    5  C17 UNL     1      18.280  -6.296  -5.852  1.00  0.00     0.040 C
HETATM    6 CL1  UNL     1      18.668  -4.602  -6.035  1.00  0.00    -0.084 Cl
HETATM    7  C18 UNL     1      18.870  -7.166  -6.632  1.00  0.00    -0.006 C
HETATM    8  C19 UNL     1      19.865  -6.702  -7.668  1.00  0.00     0.038 C
ENDBRANCH   3   5
ENDBRANCH   2   3
ENDBRANCH   1   2
BRANCH   1   9
HETATM    9  C4  UNL     1      17.617  -5.662  -1.251  1.00  0.00     0.105 C
BRANCH   9  10
HETATM   10  C5  UNL     1      16.670  -6.509  -0.446  1.00  0.00     0.190 A
HETATM   11  C8  UNL     1      16.339  -7.884  -0.992  1.00  0.00     0.047 A
HETATM   12  C9  UNL     1      14.888  -7.521  -0.951  1.00  0.00     0.006 A
HETATM   13  C10 UNL     1      15.257  -6.104  -0.491  1.00  0.00     0.047 A
BRANCH  10  14
HETATM   14  N2  UNL     1      17.282  -6.742   0.868  1.00  0.00     0.094 N
HETATM   15  C6  UNL     1      17.834  -8.079   0.831  1.00  0.00     0.310 C
HETATM   16  C7  UNL     1      16.384  -6.631   1.959  1.00  0.00     0.310 C
ENDBRANCH  10  14
ENDBRANCH   9  10
ENDBRANCH   1   9
BRANCH   1  17
HETATM   17  C11 UNL     1      19.205  -6.644  -2.728  1.00  0.00     0.088 C
HETATM   18  C12 UNL     1      19.557  -7.589  -1.649  1.00  0.00     0.026 C
HETATM   19  C13 UNL     1      20.721  -8.467  -2.085  1.00  0.00     0.002 C
HETATM   20  C14 UNL     1      21.864  -7.650  -2.617  1.00  0.00     0.000 C
HETATM   21  C15 UNL     1      21.446  -6.679  -3.667  1.00  0.00     0.002 C
HETATM   22  C16 UNL     1      20.363  -5.764  -3.070  1.00  0.00     0.026 C
ENDBRANCH   1  17
TORSDOF 7
ENDMDL