MODEL 3
REMARK VINA RESULT: 2.051772167      1.300      1.697
REMARK  2 active torsions:
REMARK  status: ('A' for Active; 'I' for Inactive)
REMARK    1  A    between atoms: N1_8  and  C8_9
REMARK    2  A    between atoms: C8_9  and  C9_10
ROOT
HETATM    1  C1  UNL     1      15.908  -6.115   2.625  1.00  0.00     0.036 C
HETATM    2  C2  UNL     1      16.914  -7.055   2.077  1.00  0.00    -0.022 C
HETATM    3  C3  UNL     1      17.344  -6.892   0.837  1.00  0.00    -0.037 C
HETATM    4  C4  UNL     1      16.711  -5.743   0.187  1.00  0.00     0.068 C
HETATM    5  C5  UNL     1      16.677  -5.730  -1.267  1.00  0.00    -0.007 C
HETATM    6  C6  UNL     1      17.427  -6.086  -2.279  1.00  0.00     0.003 C
HETATM    7  C7  UNL     1      16.418  -5.610  -3.246  1.00  0.00     0.103 C
HETATM    8  N1  UNL     1      16.664  -5.844  -4.591  1.00  0.00    -0.366 N
HETATM    9  C11 UNL     1      17.661  -5.069  -5.253  1.00  0.00     0.156 C
HETATM   10  C12 UNL     1      18.926  -5.788  -5.541  1.00  0.00     0.018 C
HETATM   11  C13 UNL     1      19.768  -6.425  -4.734  1.00  0.00     0.005 C
HETATM   12  C14 UNL     1      20.944  -7.029  -5.402  1.00  0.00     0.068 C
HETATM   13  N2  UNL     1      19.854  -6.705  -3.312  1.00  0.00    -0.355 N
HETATM   14  C15 UNL     1      21.100  -6.979  -2.759  1.00  0.00     0.156 C
HETATM   15  C16 UNL     1      18.746  -6.721  -2.404  1.00  0.00     0.045 C
HETATM   16  C17 UNL     1      19.451  -7.581  -1.668  1.00  0.00     0.032 C
HETATM   17  C18 UNL     1      19.179  -8.245  -0.412  1.00  0.00     0.026 C
HETATM   18  C19 UNL     1      18.335  -7.946   0.560  1.00  0.00     0.040 C
HETATM   19 CL1  UNL     1      18.445  -9.139   1.856  1.00  0.00    -0.084 Cl
ENDROOT
BRANCH   8  20
HETATM   20  C8  UNL     1      15.661  -6.373  -5.419  1.00  0.00     0.063 C
BRANCH  20  21
HETATM   21  C9  UNL     1      16.078  -7.413  -6.406  1.00  0.00     0.040 C
HETATM   22  C10 UNL     1      17.298  -8.198  -6.082  1.00  0.00     0.010 C
ENDBRANCH  20  21
ENDBRANCH   8  20
TORSDOF 2
ENDMDL