MODEL 5
REMARK VINA RESULT: -7.480274002      1.640      4.018
REMARK  5 active torsions:
REMARK  status: ('A' for Active; 'I' for Inactive)
REMARK    1  A    between atoms: C2_2  and  C3_3
REMARK    2  A    between atoms: C2_2  and  C7_9
REMARK    3  A    between atoms: C3_3  and  C4_4
REMARK    4  A    between atoms: C4_4  and  C5_5
REMARK    5  A    between atoms: C5_5  and  O1_7
ROOT
HETATM    1  C7  UNL     1      63.671  47.329  31.208  1.00  0.00     0.022 C
HETATM    2  C8  UNL     1      62.909  47.558  32.493  1.00  0.00     0.010 C
HETATM    3  C9  UNL     1      64.022  47.216  33.507  1.00  0.00     0.011 C
HETATM    4  C10 UNL     1      65.131  48.062  32.977  1.00  0.00    -0.032 C
HETATM    5  C11 UNL     1      64.673  49.492  33.368  1.00  0.00     0.016 C
HETATM    6  C12 UNL     1      65.057  47.942  31.489  1.00  0.00     0.025 C
HETATM    7  C13 UNL     1      66.124  47.337  30.722  1.00  0.00    -0.018 C
HETATM    8  C14 UNL     1      67.135  46.382  31.217  1.00  0.00    -0.083 C
HETATM    9  C15 UNL     1      68.392  47.046  31.737  1.00  0.00     0.034 C
HETATM   10  C16 UNL     1      68.619  46.879  33.216  1.00  0.00     0.014 C
HETATM   11  C17 UNL     1      67.187  46.753  33.779  1.00  0.00    -0.035 A
HETATM   12  C18 UNL     1      66.812  45.372  33.512  1.00  0.00     0.014 C
HETATM   13  C19 UNL     1      66.678  45.207  32.007  1.00  0.00     0.034 C
HETATM   14  C20 UNL     1      66.731  47.460  34.951  1.00  0.00     0.016 A
HETATM   15  C21 UNL     1      66.477  47.915  33.519  1.00  0.00     0.004 A
ENDROOT
BRANCH   1  16
HETATM   16  C2  UNL     1      63.004  47.925  30.023  1.00  0.00    -0.084 C
HETATM   17  C1  UNL     1      61.894  47.380  29.550  1.00  0.00     0.014 C
BRANCH  16  18
HETATM   18  C3  UNL     1      63.513  49.134  29.328  1.00  0.00     0.036 C
BRANCH  18  19
HETATM   19  C4  UNL     1      62.905  49.304  27.950  1.00  0.00     0.035 C
BRANCH  19  20
HETATM   20  C5  UNL     1      64.085  49.255  26.967  1.00  0.00     0.114 C
HETATM   21  C6  UNL     1      64.658  47.859  26.989  1.00  0.00     0.039 C
BRANCH  20  22
HETATM   22  O1  UNL     1      65.074  50.140  27.330  1.00  0.00    -0.396 OA
ATOM     23  H1  UNL     1      64.865  51.024  27.050  1.00  0.00     0.210 HD
ENDBRANCH  20  22
ENDBRANCH  19  20
ENDBRANCH  18  19
ENDBRANCH  16  18
ENDBRANCH   1  16
TORSDOF 5
ENDMDL