MODEL 2
REMARK VINA RESULT: -6.593187957      1.208      2.030
REMARK  4 active torsions:
REMARK  status: ('A' for Active; 'I' for Inactive)
REMARK    1  A    between atoms: C2_2  and  C3_3
REMARK    2  A    between atoms: C3_3  and  C4_4
REMARK    3  A    between atoms: C4_4  and  N1_5
REMARK    4  A    between atoms: N1_5  and  C5_7
ROOT
HETATM    1  C5  UNL     1      65.253  47.731  33.187  1.00  0.00     0.077 C
HETATM    2  C6  UNL     1      63.787  47.776  32.979  1.00  0.00     0.025 C
HETATM    3  C7  UNL     1      63.286  47.509  31.584  1.00  0.00     0.012 C
HETATM    4  C8  UNL     1      64.159  48.188  30.517  1.00  0.00    -0.032 C
HETATM    5  C9  UNL     1      64.019  49.662  30.925  1.00  0.00     0.016 C
HETATM    6  C10 UNL     1      65.539  47.648  30.781  1.00  0.00    -0.003 C
HETATM    7  C11 UNL     1      66.075  48.264  32.030  1.00  0.00     0.030 C
HETATM    8  C12 UNL     1      66.455  47.750  29.612  1.00  0.00     0.011 C
HETATM    9  C13 UNL     1      65.882  47.454  28.293  1.00  0.00    -0.006 C
HETATM   10  C14 UNL     1      65.950  48.662  27.418  1.00  0.00     0.005 C
HETATM   11  C15 UNL     1      64.923  49.713  27.684  1.00  0.00     0.001 C
HETATM   12  C16 UNL     1      63.661  49.292  28.310  1.00  0.00     0.011 C
HETATM   13  C17 UNL     1      63.686  47.996  29.129  1.00  0.00    -0.029 C
HETATM   14  C18 UNL     1      62.234  47.529  29.192  1.00  0.00     0.016 C
HETATM   15  C19 UNL     1      64.435  47.005  28.284  1.00  0.00    -0.036 C
HETATM   16  C20 UNL     1      64.413  45.576  28.751  1.00  0.00     0.016 C
HETATM   17  C21 UNL     1      63.946  46.947  26.879  1.00  0.00     0.016 C
ENDROOT
BRANCH   1  18
HETATM   18  N1  UNL     1      65.783  46.489  33.679  1.00  0.00    -0.417 N
ATOM     19  H1  UNL     1      65.582  45.597  33.225  1.00  0.00     0.153 HD
BRANCH  18  20
HETATM   20  C4  UNL     1      66.607  46.576  34.839  1.00  0.00     0.114 C
BRANCH  20  21
HETATM   21  C3  UNL     1      65.992  47.477  35.905  1.00  0.00     0.019 C
BRANCH  21  22
HETATM   22  C2  UNL     1      65.075  46.633  36.784  1.00  0.00    -0.003 C
HETATM   23  C1  UNL     1      63.633  47.001  36.601  1.00  0.00     0.005 C
ENDBRANCH  21  22
ENDBRANCH  20  21
ENDBRANCH  18  20
ENDBRANCH   1  18
TORSDOF 4
ENDMDL