MODEL 3
REMARK VINA RESULT: -7.247188569      3.684      6.323
REMARK  5 active torsions:
REMARK  status: ('A' for Active; 'I' for Inactive)
REMARK    1  A    between atoms: C2_2  and  C3_3
REMARK    2  A    between atoms: C3_3  and  C4_4
REMARK    3  A    between atoms: C4_4  and  C5_5
REMARK    4  A    between atoms: C5_5  and  C6_6
REMARK    5  A    between atoms: C16_16  and  O1_17
ROOT
HETATM    1  C6  UNL     1      65.501  47.926  33.241  1.00  0.00    -0.039 C
HETATM    2  C7  UNL     1      64.051  47.838  32.864  1.00  0.00     0.015 C
HETATM    3  C8  UNL     1      65.894  46.752  34.107  1.00  0.00     0.010 C
HETATM    4  C9  UNL     1      67.142  46.152  33.477  1.00  0.00     0.006 C
HETATM    5  C10 UNL     1      67.633  47.060  32.453  1.00  0.00    -0.004 C
HETATM    6  C11 UNL     1      67.615  46.662  30.990  1.00  0.00     0.003 C
HETATM    7  C12 UNL     1      67.796  45.254  30.723  1.00  0.00     0.006 C
HETATM    8  C13 UNL     1      66.726  44.527  29.884  1.00  0.00     0.005 C
HETATM    9  C14 UNL     1      65.916  45.622  29.379  1.00  0.00    -0.011 C
HETATM   10  C15 UNL     1      64.840  45.544  28.402  1.00  0.00     0.040 C
HETATM   11  C16 UNL     1      64.405  47.020  28.287  1.00  0.00     0.141 C
HETATM   12  C17 UNL     1      65.450  48.026  28.515  1.00  0.00     0.001 C
HETATM   13  C18 UNL     1      66.093  48.332  29.758  1.00  0.00    -0.018 C
HETATM   14  C19 UNL     1      66.281  47.346  30.872  1.00  0.00    -0.014 C
HETATM   15  C20 UNL     1      65.306  46.271  30.626  1.00  0.00     0.019 C
HETATM   16  C21 UNL     1      66.479  47.984  32.165  1.00  0.00     0.011 C
ENDROOT
BRANCH   1  17
HETATM   17  C5  UNL     1      65.636  49.164  34.137  1.00  0.00     0.010 C
BRANCH  17  18
HETATM   18  C4  UNL     1      65.457  48.834  35.587  1.00  0.00     0.001 C
BRANCH  18  19
HETATM   19  C3  UNL     1      64.255  49.561  36.140  1.00  0.00    -0.000 C
BRANCH  19  20
HETATM   20  C2  UNL     1      63.013  48.732  36.094  1.00  0.00    -0.005 C
HETATM   21  C1  UNL     1      63.341  47.293  36.488  1.00  0.00     0.005 C
ENDBRANCH  19  20
ENDBRANCH  18  19
ENDBRANCH  17  18
ENDBRANCH   1  17
BRANCH  11  22
HETATM   22  O1  UNL     1      64.069  47.140  26.905  1.00  0.00    -0.392 OA
ATOM     23  H1  UNL     1      64.918  47.094  26.480  1.00  0.00     0.210 HD
ENDBRANCH  11  22
TORSDOF 5
ENDMDL