MODEL 5
REMARK VINA RESULT: -7.169635929      1.661      3.331
REMARK  5 active torsions:
REMARK  status: ('A' for Active; 'I' for Inactive)
REMARK    1  A    between atoms: C2_2  and  C3_3
REMARK    2  A    between atoms: C3_3  and  C4_4
REMARK    3  A    between atoms: C4_4  and  C5_5
REMARK    4  A    between atoms: C5_5  and  C7_7
REMARK    5  A    between atoms: C15_15  and  O1_16
ROOT
HETATM    1  C7  UNL     1      63.247  47.319  28.971  1.00  0.00    -0.002 C
HETATM    2  C8  UNL     1      64.218  46.396  28.211  1.00  0.00     0.006 C
HETATM    3  C9  UNL     1      65.601  46.794  28.560  1.00  0.00     0.006 C
HETATM    4  C10 UNL     1      65.495  47.663  29.757  1.00  0.00     0.003 C
HETATM    5  C11 UNL     1      66.223  47.058  30.888  1.00  0.00    -0.036 C
HETATM    6  C12 UNL     1      65.977  45.602  31.111  1.00  0.00     0.016 C
HETATM    7  C13 UNL     1      67.720  47.201  30.580  1.00  0.00     0.012 C
HETATM    8  C14 UNL     1      68.604  46.677  31.643  1.00  0.00     0.032 C
HETATM    9  C15 UNL     1      68.210  46.899  33.040  1.00  0.00     0.118 C
HETATM   10  C16 UNL     1      66.795  47.272  33.309  1.00  0.00     0.037 C
HETATM   11  C17 UNL     1      66.057  47.867  32.158  1.00  0.00    -0.004 C
HETATM   12  C18 UNL     1      64.612  48.008  32.435  1.00  0.00     0.006 C
HETATM   13  C19 UNL     1      63.685  47.519  31.375  1.00  0.00     0.010 C
HETATM   14  C20 UNL     1      64.051  48.020  29.972  1.00  0.00    -0.036 C
HETATM   15  C21 UNL     1      63.859  49.515  30.103  1.00  0.00     0.016 C
ENDROOT
BRANCH   1  16
HETATM   16  C5  UNL     1      62.485  48.031  27.919  1.00  0.00    -0.014 C
HETATM   17  C6  UNL     1      63.162  49.304  27.447  1.00  0.00     0.010 C
BRANCH  16  18
HETATM   18  C4  UNL     1      61.058  48.356  28.134  1.00  0.00     0.005 C
BRANCH  18  19
HETATM   19  C3  UNL     1      60.189  47.295  28.729  1.00  0.00     0.000 C
BRANCH  19  20
HETATM   20  C2  UNL     1      58.797  47.277  28.136  1.00  0.00    -0.005 C
HETATM   21  C1  UNL     1      57.933  46.470  29.101  1.00  0.00     0.005 C
ENDBRANCH  19  20
ENDBRANCH  18  19
ENDBRANCH  16  18
ENDBRANCH   1  16
BRANCH   9  22
HETATM   22  O1  UNL     1      68.456  45.702  33.762  1.00  0.00    -0.396 OA
ATOM     23  H1  UNL     1      68.952  45.117  33.201  1.00  0.00     0.210 HD
ENDBRANCH   9  22
TORSDOF 5
ENDMDL