MODEL 2
REMARK VINA RESULT: -6.748304072      2.416      4.208
REMARK  4 active torsions:
REMARK  status: ('A' for Active; 'I' for Inactive)
REMARK    1  A    between atoms: C2_2  and  C3_3
REMARK    2  A    between atoms: C3_3  and  C4_4
REMARK    3  A    between atoms: C4_4  and  N1_5
REMARK    4  A    between atoms: N1_5  and  C5_8
ROOT
HETATM    1  C5  UNL     1      65.429  48.092  29.440  1.00  0.00     0.194 C
HETATM    2  C6  UNL     1      66.718  47.370  29.513  1.00  0.00     0.034 C
HETATM    3  C7  UNL     1      66.721  46.100  30.322  1.00  0.00     0.002 C
HETATM    4  C8  UNL     1      65.841  46.191  31.513  1.00  0.00     0.006 C
HETATM    5  C9  UNL     1      65.511  47.616  31.836  1.00  0.00     0.000 C
HETATM    6  C10 UNL     1      64.856  47.627  33.205  1.00  0.00    -0.005 C
HETATM    7  C11 UNL     1      65.134  48.937  33.956  1.00  0.00     0.014 C
HETATM    8  C12 UNL     1      64.781  48.682  35.430  1.00  0.00    -0.047 C
HETATM    9  C13 UNL     1      65.579  47.569  36.031  1.00  0.00     0.015 C
HETATM   10  C14 UNL     1      65.110  49.989  36.164  1.00  0.00     0.015 C
HETATM   11  C15 UNL     1      63.309  48.413  35.472  1.00  0.00     0.009 C
HETATM   12  C16 UNL     1      62.687  48.280  34.121  1.00  0.00     0.005 C
HETATM   13  C17 UNL     1      63.427  47.270  33.229  1.00  0.00    -0.010 C
HETATM   14  C18 UNL     1      62.722  47.089  31.961  1.00  0.00     0.006 C
HETATM   15  C19 UNL     1      63.390  47.417  30.692  1.00  0.00     0.012 C
HETATM   16  C20 UNL     1      64.669  48.173  30.762  1.00  0.00    -0.012 C
HETATM   17  C21 UNL     1      64.324  49.642  30.969  1.00  0.00     0.018 C
ENDROOT
BRANCH   1  18
HETATM   18  N1  UNL     1      64.563  47.693  28.355  1.00  0.00    -0.070 N
ATOM     19  H12 UNL     1      63.643  47.412  28.695  1.00  0.00     0.277 HD
ATOM     20  H11 UNL     1      64.858  46.806  27.947  1.00  0.00     0.277 HD
BRANCH  18  21
HETATM   21  C4  UNL     1      64.465  48.731  27.354  1.00  0.00     0.232 C
BRANCH  21  22
HETATM   22  C3  UNL     1      63.035  48.910  26.879  1.00  0.00     0.027 C
BRANCH  22  23
HETATM   23  C2  UNL     1      62.073  49.214  28.007  1.00  0.00    -0.003 C
HETATM   24  C1  UNL     1      61.115  48.032  28.117  1.00  0.00     0.005 C
ENDBRANCH  22  23
ENDBRANCH  21  22
ENDBRANCH  18  21
ENDBRANCH   1  18
TORSDOF 4
ENDMDL