MODEL 4
REMARK VINA RESULT: -8.636569678      1.532      7.176
REMARK  5 active torsions:
REMARK  status: ('A' for Active; 'I' for Inactive)
REMARK    1  A    between atoms: C2_2  and  C5_5
REMARK    2  A    between atoms: C6_6  and  N1_7
REMARK    3  A    between atoms: N1_7  and  C7_9
REMARK    4  A    between atoms: C7_9  and  C8_10
REMARK    5  A    between atoms: C8_10  and  C9_11
ROOT
HETATM    1  C7  UNL     1      64.421  48.591  31.595  1.00  0.00     0.057 C
ENDROOT
BRANCH   1   2
HETATM    2  N1  UNL     1      65.532  47.892  31.992  1.00  0.00    -0.396 N
ATOM      3  H1  UNL     1      66.425  48.223  31.626  1.00  0.00     0.159 HD
BRANCH   2   4
HETATM    4  C6  UNL     1      65.588  46.796  32.827  1.00  0.00     0.094 A
HETATM    5  C5  UNL     1      65.648  46.725  34.315  1.00  0.00     0.026 A
HETATM    6  C19 UNL     1      66.914  46.598  33.586  1.00  0.00    -0.021 A
HETATM    7  C20 UNL     1      67.984  47.628  33.447  1.00  0.00     0.017 C
HETATM    8  C21 UNL     1      67.548  45.193  33.511  1.00  0.00     0.017 C
BRANCH   5   9
HETATM    9  C2  UNL     1      65.309  47.717  35.319  1.00  0.00    -0.045 C
HETATM   10  C1  UNL     1      65.714  49.144  35.151  1.00  0.00     0.015 C
HETATM   11  C3  UNL     1      63.856  47.695  35.749  1.00  0.00     0.015 C
HETATM   12  C4  UNL     1      66.058  47.311  36.636  1.00  0.00     0.015 C
ENDBRANCH   5   9
ENDBRANCH   2   4
ENDBRANCH   1   2
BRANCH   1  13
HETATM   13  C8  UNL     1      63.360  47.941  30.773  1.00  0.00     0.053 C
BRANCH  13  14
HETATM   14  C9  UNL     1      63.527  48.009  29.281  1.00  0.00    -0.035 C
HETATM   15  C10 UNL     1      64.253  49.349  29.054  1.00  0.00     0.014 C
HETATM   16  C11 UNL     1      64.452  49.666  27.615  1.00  0.00    -0.013 C
HETATM   17  C12 UNL     1      63.113  49.699  26.929  1.00  0.00     0.009 C
HETATM   18  C16 UNL     1      65.289  48.574  26.997  1.00  0.00     0.009 C
HETATM   19  C13 UNL     1      62.437  48.383  27.120  1.00  0.00    -0.013 C
HETATM   20  C14 UNL     1      63.297  47.281  26.542  1.00  0.00     0.009 C
HETATM   21  C18 UNL     1      62.219  48.040  28.580  1.00  0.00     0.014 C
HETATM   22  C15 UNL     1      64.630  47.224  27.265  1.00  0.00    -0.013 C
HETATM   23  C17 UNL     1      64.473  46.959  28.746  1.00  0.00     0.014 C
ENDBRANCH  13  14
ENDBRANCH   1  13
TORSDOF 5
ENDMDL