MODEL 3
REMARK VINA RESULT: -8.996326714      1.403      5.752
REMARK  4 active torsions:
REMARK  status: ('A' for Active; 'I' for Inactive)
REMARK    1  A    between atoms: C2_2  and  N1_3
REMARK    2  A    between atoms: C2_2  and  C14_16
REMARK    3  A    between atoms: N1_3  and  C3_5
REMARK    4  A    between atoms: C14_16  and  C16_18
ROOT
HETATM    1  N1  UNL     1      66.030  47.939  32.111  1.00  0.00    -0.388 N
ATOM      2  H1  UNL     1      66.001  48.929  31.867  1.00  0.00     0.159 HD
ENDROOT
BRANCH   1   3
HETATM    3  C2  UNL     1      66.789  47.103  31.241  1.00  0.00    -0.000 C
HETATM    4  C1  UNL     1      68.116  47.172  31.232  1.00  0.00     0.038 C
BRANCH   3   5
HETATM    5  C14 UNL     1      65.989  46.216  30.365  1.00  0.00     0.034 C
HETATM    6  C15 UNL     1      66.633  44.852  30.391  1.00  0.00     0.017 C
BRANCH   5   7
HETATM    7  C16 UNL     1      65.723  46.712  28.994  1.00  0.00    -0.005 C
HETATM    8  C17 UNL     1      66.079  48.166  28.781  1.00  0.00     0.005 C
HETATM    9  C18 UNL     1      64.844  49.007  28.550  1.00  0.00     0.000 C
HETATM   10  C19 UNL     1      63.756  48.696  29.543  1.00  0.00     0.000 C
HETATM   11  C20 UNL     1      63.319  47.270  29.367  1.00  0.00     0.000 C
HETATM   12  C21 UNL     1      64.323  46.530  28.520  1.00  0.00     0.005 C
ENDBRANCH   5   7
ENDBRANCH   3   5
ENDBRANCH   1   3
BRANCH   1  13
HETATM   13  C3  UNL     1      65.314  47.565  33.270  1.00  0.00     0.089 C
HETATM   14  C4  UNL     1      63.884  48.069  33.279  1.00  0.00     0.010 C
HETATM   15  C5  UNL     1      63.809  49.546  33.499  1.00  0.00     0.011 C
HETATM   16  C13 UNL     1      63.160  47.267  34.347  1.00  0.00     0.015 C
HETATM   17  C6  UNL     1      64.301  49.827  34.900  1.00  0.00    -0.013 C
HETATM   18  C7  UNL     1      65.756  49.409  34.933  1.00  0.00     0.011 C
HETATM   19  C12 UNL     1      63.559  49.040  35.953  1.00  0.00     0.013 C
HETATM   20  C8  UNL     1      65.919  47.947  34.579  1.00  0.00     0.010 C
HETATM   21  C9  UNL     1      65.225  47.177  35.695  1.00  0.00     0.015 C
HETATM   22  C10 UNL     1      63.774  47.565  35.722  1.00  0.00    -0.043 C
HETATM   23  C11 UNL     1      62.989  46.773  36.722  1.00  0.00     0.015 C
ENDBRANCH   1  13
TORSDOF 4
ENDMDL