MODEL 5
REMARK VINA RESULT: -7.381188389      2.244      6.029
REMARK  4 active torsions:
REMARK  status: ('A' for Active; 'I' for Inactive)
REMARK    1  A    between atoms: C2_2  and  C3_3
REMARK    2  A    between atoms: C3_3  and  C4_4
REMARK    3  A    between atoms: C4_4  and  C5_5
REMARK    4  A    between atoms: C19_19  and  N1_20
ROOT
HETATM    1  C5  UNL     1      64.587  48.614  33.276  1.00  0.00    -0.034 C
HETATM    2  C6  UNL     1      64.445  49.961  32.713  1.00  0.00     0.010 C
HETATM    3  C7  UNL     1      63.983  50.086  31.298  1.00  0.00     0.006 C
HETATM    4  C8  UNL     1      63.961  48.820  30.536  1.00  0.00    -0.005 C
HETATM    5  C9  UNL     1      64.261  48.844  29.109  1.00  0.00    -0.006 C
HETATM    6  C10 UNL     1      63.182  49.005  28.120  1.00  0.00     0.005 C
HETATM    7  C11 UNL     1      63.754  48.237  26.914  1.00  0.00     0.001 C
HETATM    8  C12 UNL     1      64.852  47.329  27.495  1.00  0.00     0.005 C
HETATM    9  C13 UNL     1      64.499  47.323  28.916  1.00  0.00    -0.006 C
HETATM   10  C14 UNL     1      65.498  47.040  29.943  1.00  0.00    -0.009 C
HETATM   11  C15 UNL     1      66.917  47.190  29.478  1.00  0.00     0.011 C
HETATM   12  C16 UNL     1      65.207  48.038  31.020  1.00  0.00    -0.001 C
HETATM   13  C17 UNL     1      64.761  47.488  32.325  1.00  0.00     0.001 C
HETATM   14  C18 UNL     1      65.663  46.464  32.921  1.00  0.00     0.038 C
HETATM   15  C19 UNL     1      66.512  47.243  33.861  1.00  0.00     0.186 C
HETATM   16  C21 UNL     1      65.903  48.581  34.070  1.00  0.00     0.043 C
ENDROOT
BRANCH   1  17
HETATM   17  C4  UNL     1      63.513  48.240  34.277  1.00  0.00     0.010 C
BRANCH  17  18
HETATM   18  C3  UNL     1      63.255  49.279  35.310  1.00  0.00     0.000 C
BRANCH  18  19
HETATM   19  C2  UNL     1      63.128  48.552  36.650  1.00  0.00    -0.005 C
HETATM   20  C1  UNL     1      63.113  47.058  36.458  1.00  0.00     0.005 C
ENDBRANCH  18  19
ENDBRANCH  17  18
ENDBRANCH   1  17
BRANCH  15  21
HETATM   21  N1  UNL     1      66.749  46.526  35.105  1.00  0.00    -0.075 N
HETATM   22  C20 UNL     1      66.500  47.443  36.212  1.00  0.00     0.267 C
ATOM     23  H12 UNL     1      66.203  45.668  35.175  1.00  0.00     0.277 HD
ATOM     24  H11 UNL     1      67.676  46.103  35.145  1.00  0.00     0.277 HD
ENDBRANCH  15  21
TORSDOF 4
ENDMDL