MODEL 4
REMARK VINA RESULT: -9.633322336      0.330      2.063
REMARK  4 active torsions:
REMARK  status: ('A' for Active; 'I' for Inactive)
REMARK    1  A    between atoms: C1_2  and  C2_3
REMARK       I    between atoms: C1_2  and  N1_14
REMARK    2  A    between atoms: C2_3  and  C3_4
REMARK    3  A    between atoms: N1_14  and  C13_16
REMARK    4  A    between atoms: C13_16  and  C14_17
ROOT
HETATM    1  O1  UNL     1      68.123  47.465  31.447  1.00  0.00    -0.274 OA
HETATM    2  C1  UNL     1      67.024  46.981  31.762  1.00  0.00     0.218 C
HETATM    3  N1  UNL     1      65.978  46.959  30.761  1.00  0.00    -0.361 N
ATOM      4  H1  UNL     1      65.067  46.562  30.990  1.00  0.00     0.162 HD
ENDROOT
BRANCH   2   5
HETATM    5  C2  UNL     1      66.680  46.423  33.063  1.00  0.00     0.112 C
BRANCH   5   6
HETATM    6  C3  UNL     1      65.852  47.328  33.923  1.00  0.00    -0.031 C
HETATM    7  C4  UNL     1      64.407  47.128  33.384  1.00  0.00     0.014 C
HETATM    8  C5  UNL     1      63.487  48.002  34.157  1.00  0.00    -0.013 C
HETATM    9  C6  UNL     1      63.563  47.649  35.622  1.00  0.00     0.009 C
HETATM   10  C10 UNL     1      63.886  49.450  33.897  1.00  0.00     0.009 C
HETATM   11  C7  UNL     1      64.944  47.871  36.143  1.00  0.00    -0.013 C
HETATM   12  C8  UNL     1      65.337  49.304  35.940  1.00  0.00     0.009 C
HETATM   13  C12 UNL     1      65.884  46.963  35.374  1.00  0.00     0.014 C
HETATM   14  C9  UNL     1      65.251  49.671  34.473  1.00  0.00    -0.013 C
HETATM   15  C11 UNL     1      66.241  48.760  33.753  1.00  0.00     0.014 C
ENDBRANCH   5   6
ENDBRANCH   2   5
BRANCH   3  16
HETATM   16  C13 UNL     1      66.211  47.487  29.465  1.00  0.00     0.127 C
BRANCH  16  17
HETATM   17  C14 UNL     1      65.031  48.314  29.014  1.00  0.00     0.003 C
HETATM   18  C15 UNL     1      63.791  47.602  29.490  1.00  0.00     0.006 C
HETATM   19  C16 UNL     1      62.592  47.830  28.647  1.00  0.00     0.000 C
HETATM   20  C17 UNL     1      62.411  49.225  28.154  1.00  0.00     0.000 C
HETATM   21  C18 UNL     1      63.017  49.316  26.749  1.00  0.00     0.000 C
HETATM   22  C19 UNL     1      64.485  49.627  26.954  1.00  0.00     0.000 C
HETATM   23  C20 UNL     1      65.111  48.339  27.493  1.00  0.00     0.006 C
ENDBRANCH  16  17
ENDBRANCH   3  16
TORSDOF 4
ENDMDL