MODEL 4
REMARK VINA RESULT: -7.677141829      2.522      5.710
REMARK  5 active torsions:
REMARK  status: ('A' for Active; 'I' for Inactive)
REMARK    1  A    between atoms: C2_2  and  C3_3
REMARK    2  A    between atoms: C2_2  and  C5_7
REMARK    3  A    between atoms: C3_3  and  C4_4
REMARK    4  A    between atoms: C4_4  and  O1_5
REMARK    5  A    between atoms: C15_17  and  C16_18
ROOT
HETATM    1  C5  UNL     1      63.866  48.662  34.130  1.00  0.00    -0.005 C
HETATM    2  C6  UNL     1      65.238  49.227  34.268  1.00  0.00     0.015 C
HETATM    3  C7  UNL     1      65.647  48.357  33.063  1.00  0.00    -0.035 C
HETATM    4  C8  UNL     1      66.983  47.842  33.267  1.00  0.00     0.019 C
HETATM    5  C9  UNL     1      67.577  46.787  32.453  1.00  0.00    -0.043 C
HETATM    6  C10 UNL     1      68.832  46.255  33.176  1.00  0.00     0.015 C
HETATM    7  C11 UNL     1      66.745  45.700  31.913  1.00  0.00     0.014 C
HETATM    8  C12 UNL     1      66.730  46.377  30.596  1.00  0.00    -0.012 C
HETATM    9  C13 UNL     1      67.916  47.163  31.029  1.00  0.00     0.014 C
HETATM   10  C14 UNL     1      65.536  47.077  30.165  1.00  0.00     0.014 C
HETATM   11  C15 UNL     1      64.704  47.925  30.988  1.00  0.00    -0.036 C
HETATM   12  C19 UNL     1      63.829  47.253  32.022  1.00  0.00     0.015 C
HETATM   13  C20 UNL     1      64.446  47.516  33.381  1.00  0.00    -0.001 C
HETATM   14  C21 UNL     1      65.335  49.018  31.773  1.00  0.00     0.020 C
ENDROOT
BRANCH   1  15
HETATM   15  C2  UNL     1      63.092  48.428  35.381  1.00  0.00    -0.012 C
HETATM   16  C1  UNL     1      63.434  49.517  36.351  1.00  0.00     0.010 C
BRANCH  15  17
HETATM   17  C3  UNL     1      63.201  47.076  35.981  1.00  0.00     0.030 C
BRANCH  17  18
HETATM   18  C4  UNL     1      64.313  47.072  37.006  1.00  0.00     0.164 C
BRANCH  18  19
HETATM   19  O1  UNL     1      65.518  46.597  36.541  1.00  0.00    -0.401 OA
ATOM     20  H1  UNL     1      66.203  46.545  37.198  1.00  0.00     0.209 HD
ENDBRANCH  18  19
ENDBRANCH  17  18
ENDBRANCH  15  17
ENDBRANCH   1  15
BRANCH  11  21
HETATM   21  C16 UNL     1      63.720  48.629  30.025  1.00  0.00    -0.014 C
HETATM   22  C17 UNL     1      62.675  47.669  29.536  1.00  0.00     0.010 C
HETATM   23  C18 UNL     1      64.444  49.266  28.890  1.00  0.00     0.010 C
ENDBRANCH  11  21
TORSDOF 5
ENDMDL