MODEL 3
REMARK VINA RESULT: -6.675053367      2.297      5.960
REMARK  4 active torsions:
REMARK  status: ('A' for Active; 'I' for Inactive)
REMARK    1  A    between atoms: C2_2  and  C3_3
REMARK    2  A    between atoms: C13_13  and  C15_15
REMARK    3  A    between atoms: C15_15  and  C16_16
REMARK    4  A    between atoms: C16_16  and  N1_17
ROOT
HETATM    1  C3  UNL     1      63.676  48.112  27.764  1.00  0.00    -0.006 C
HETATM    2  C4  UNL     1      64.887  48.774  27.299  1.00  0.00     0.006 C
HETATM    3  C5  UNL     1      65.974  48.159  28.082  1.00  0.00     0.011 C
HETATM    4  C6  UNL     1      65.389  47.438  29.312  1.00  0.00    -0.029 C
HETATM    5  C7  UNL     1      65.548  45.959  29.050  1.00  0.00     0.011 C
HETATM    6  C8  UNL     1      65.773  45.136  30.274  1.00  0.00     0.006 C
HETATM    7  C9  UNL     1      66.787  45.689  31.231  1.00  0.00    -0.006 C
HETATM    8  C10 UNL     1      68.021  46.091  30.460  1.00  0.00     0.006 C
HETATM    9  C11 UNL     1      67.721  47.497  29.972  1.00  0.00     0.006 C
HETATM   10  C12 UNL     1      66.274  47.793  30.434  1.00  0.00     0.003 C
HETATM   11  C13 UNL     1      66.296  47.054  31.683  1.00  0.00    -0.034 C
HETATM   12  C14 UNL     1      65.127  46.962  32.567  1.00  0.00     0.016 C
HETATM   13  C19 UNL     1      63.987  47.859  29.263  1.00  0.00    -0.036 C
HETATM   14  C20 UNL     1      63.704  49.204  29.875  1.00  0.00     0.016 C
HETATM   15  C21 UNL     1      62.923  46.848  29.550  1.00  0.00     0.016 C
ENDROOT
BRANCH  11  16
HETATM   16  C15 UNL     1      67.399  47.604  32.580  1.00  0.00     0.040 C
BRANCH  16  17
HETATM   17  C16 UNL     1      67.126  47.283  34.030  1.00  0.00     0.272 C
BRANCH  17  18
HETATM   18  N1  UNL     1      68.040  46.296  34.556  1.00  0.00     0.080 N
HETATM   19  C17 UNL     1      69.281  46.435  33.818  1.00  0.00     0.309 C
HETATM   20  C18 UNL     1      67.586  44.947  34.463  1.00  0.00     0.309 C
ENDBRANCH  17  18
ENDBRANCH  16  17
ENDBRANCH  11  16
BRANCH   1  21
HETATM   21  C2  UNL     1      62.463  48.943  27.566  1.00  0.00     0.001 C
HETATM   22  C1  UNL     1      62.819  49.954  26.467  1.00  0.00     0.005 C
ENDBRANCH   1  21
TORSDOF 4
ENDMDL