MODEL 2
REMARK VINA RESULT: -8.635998194      2.655      6.073
REMARK  5 active torsions:
REMARK  status: ('A' for Active; 'I' for Inactive)
REMARK    1  A    between atoms: C14_14  and  C15_15
REMARK    2  A    between atoms: C15_15  and  C16_16
REMARK    3  A    between atoms: C16_16  and  C17_17
REMARK    4  A    between atoms: C17_17  and  C18_18
REMARK    5  A    between atoms: C18_18  and  O1_19
ROOT
HETATM    1  C1  UNL     1      64.808  49.024  28.417  1.00  0.00     0.015 C
HETATM    2  C2  UNL     1      64.531  47.963  29.489  1.00  0.00    -0.048 C
HETATM    3  C3  UNL     1      63.202  47.321  29.108  1.00  0.00     0.015 C
HETATM    4  C4  UNL     1      64.384  48.549  30.844  1.00  0.00     0.009 C
HETATM    5  C5  UNL     1      64.879  47.646  31.970  1.00  0.00     0.007 C
HETATM    6  C6  UNL     1      66.318  47.943  32.158  1.00  0.00     0.003 C
HETATM    7  C7  UNL     1      67.206  47.083  31.249  1.00  0.00    -0.035 C
HETATM    8  C8  UNL     1      66.950  47.361  29.798  1.00  0.00     0.011 C
HETATM    9  C9  UNL     1      65.602  46.922  29.349  1.00  0.00     0.009 C
HETATM   10  C10 UNL     1      67.142  45.633  31.549  1.00  0.00     0.014 C
HETATM   11  C11 UNL     1      67.685  45.211  32.866  1.00  0.00    -0.013 C
HETATM   12  C12 UNL     1      66.595  45.279  33.913  1.00  0.00     0.005 C
HETATM   13  C13 UNL     1      66.312  46.691  34.334  1.00  0.00     0.011 C
HETATM   14  C14 UNL     1      66.925  47.741  33.483  1.00  0.00    -0.032 C
HETATM   15  C19 UNL     1      68.395  47.498  33.172  1.00  0.00    -0.005 C
HETATM   16  C20 UNL     1      68.798  46.067  33.390  1.00  0.00     0.010 C
HETATM   17  C21 UNL     1      68.534  47.707  31.674  1.00  0.00     0.015 C
ENDROOT
BRANCH  14  18
HETATM   18  C15 UNL     1      66.948  49.050  34.292  1.00  0.00     0.010 C
BRANCH  18  19
HETATM   19  C16 UNL     1      65.877  49.170  35.281  1.00  0.00     0.003 C
BRANCH  19  20
HETATM   20  C17 UNL     1      64.601  49.828  34.845  1.00  0.00     0.026 C
BRANCH  20  21
HETATM   21  C18 UNL     1      63.336  49.267  35.417  1.00  0.00     0.164 C
BRANCH  21  22
HETATM   22  O1  UNL     1      62.756  50.040  36.401  1.00  0.00    -0.401 OA
ATOM     23  H1  UNL     1      63.367  50.558  36.911  1.00  0.00     0.209 HD
ENDBRANCH  21  22
ENDBRANCH  20  21
ENDBRANCH  19  20
ENDBRANCH  18  19
ENDBRANCH  14  18
TORSDOF 5
ENDMDL