MODEL 1
REMARK VINA RESULT: -6.888501394      0.000      0.000
REMARK  4 active torsions:
REMARK  status: ('A' for Active; 'I' for Inactive)
REMARK    1  A    between atoms: C13_13  and  C15_15
REMARK    2  A    between atoms: C16_16  and  C17_17
REMARK    3  A    between atoms: C17_17  and  N1_18
REMARK    4  A    between atoms: N1_18  and  C18_21
ROOT
HETATM    1  C1  UNL     1      64.231  49.374  31.672  1.00  0.00     0.015 C
HETATM    2  C2  UNL     1      64.470  48.220  31.089  1.00  0.00    -0.076 C
HETATM    3  C3  UNL     1      65.217  47.265  31.962  1.00  0.00     0.040 C
HETATM    4  C4  UNL     1      66.615  47.225  31.489  1.00  0.00    -0.002 C
HETATM    5  C5  UNL     1      66.964  48.200  30.400  1.00  0.00     0.012 C
HETATM    6  C6  UNL     1      66.466  47.118  29.427  1.00  0.00     0.003 C
HETATM    7  C7  UNL     1      66.841  46.152  30.409  1.00  0.00    -0.039 C
HETATM    8  C8  UNL     1      68.381  45.924  30.394  1.00  0.00     0.015 C
HETATM    9  C9  UNL     1      66.259  44.839  30.661  1.00  0.00     0.015 C
HETATM   10  C10 UNL     1      65.182  47.413  28.854  1.00  0.00    -0.029 C
HETATM   11  C11 UNL     1      64.791  46.280  27.907  1.00  0.00     0.016 C
HETATM   12  C12 UNL     1      65.475  48.549  27.834  1.00  0.00     0.016 C
HETATM   13  C13 UNL     1      64.026  47.914  29.699  1.00  0.00     0.003 C
HETATM   14  C14 UNL     1      63.454  49.170  29.127  1.00  0.00     0.025 C
ENDROOT
BRANCH  13  15
HETATM   15  C15 UNL     1      62.964  46.862  29.670  1.00  0.00    -0.015 C
HETATM   16  C16 UNL     1      61.546  47.120  29.649  1.00  0.00    -0.003 C
BRANCH  16  17
HETATM   17  C17 UNL     1      60.828  47.779  28.533  1.00  0.00     0.260 C
BRANCH  17  18
HETATM   18  N1  UNL     1      59.707  48.590  28.898  1.00  0.00    -0.064 N
ATOM     19  H12 UNL     1      59.761  48.917  29.862  1.00  0.00     0.278 HD
ATOM     20  H11 UNL     1      59.719  49.500  28.438  1.00  0.00     0.278 HD
BRANCH  18  21
HETATM   21  C18 UNL     1      58.493  47.855  28.632  1.00  0.00     0.115 C
HETATM   22  C19 UNL     1      57.318  48.761  28.338  1.00  0.00     0.045 C
HETATM   23  C20 UNL     1      58.698  46.989  27.402  1.00  0.00     0.045 C
HETATM   24  C21 UNL     1      58.118  46.939  29.772  1.00  0.00     0.045 C
ENDBRANCH  18  21
ENDBRANCH  17  18
ENDBRANCH  16  17
ENDBRANCH  13  15
TORSDOF 4
ENDMDL