MODEL 4
REMARK VINA RESULT: -9.331125870      1.416      2.186
REMARK  4 active torsions:
REMARK  status: ('A' for Active; 'I' for Inactive)
REMARK       I    between atoms: C1_2  and  N1_3
REMARK       I    between atoms: C1_2  and  N2_18
REMARK    1  A    between atoms: N1_3  and  C2_5
REMARK    2  A    between atoms: C2_5  and  C3_6
REMARK    3  A    between atoms: C3_6  and  C4_7
REMARK    4  A    between atoms: C4_7  and  C5_8
ROOT
HETATM    1  C3  UNL     1      63.687  48.982  28.295  1.00  0.00     0.020 C
ENDROOT
BRANCH   1   2
HETATM    2  C2  UNL     1      62.734  48.250  27.367  1.00  0.00     0.124 C
BRANCH   2   3
HETATM    3  N1  UNL     1      61.392  48.173  27.848  1.00  0.00    -0.343 N
HETATM    4  C1  UNL     1      60.988  47.295  28.878  1.00  0.00     0.318 C
HETATM    5  O1  UNL     1      61.837  46.526  29.426  1.00  0.00    -0.247 OA
HETATM    6  N2  UNL     1      59.644  47.239  29.334  1.00  0.00    -0.334 N
HETATM    7  C15 UNL     1      58.695  48.123  28.696  1.00  0.00     0.127 C
HETATM    8  C19 UNL     1      59.306  46.323  30.384  1.00  0.00     0.127 C
HETATM    9  C16 UNL     1      57.276  47.893  29.040  1.00  0.00     0.020 C
HETATM   10  C17 UNL     1      56.975  46.639  29.781  1.00  0.00     0.003 C
HETATM   11  C18 UNL     1      57.943  46.575  30.970  1.00  0.00     0.020 C
ATOM     12  H1  UNL     1      60.690  48.781  27.428  1.00  0.00     0.164 HD
ENDBRANCH   2   3
ENDBRANCH   1   2
BRANCH   1  13
HETATM   13  C4  UNL     1      64.763  48.096  28.824  1.00  0.00     0.006 C
BRANCH  13  14
HETATM   14  C5  UNL     1      65.361  48.515  30.118  1.00  0.00    -0.014 C
HETATM   15  C6  UNL     1      64.387  48.322  31.239  1.00  0.00     0.004 C
HETATM   16  C7  UNL     1      64.922  48.738  32.578  1.00  0.00     0.000 C
HETATM   17  C8  UNL     1      64.866  47.610  33.591  1.00  0.00     0.000 C
HETATM   18  C9  UNL     1      66.244  47.236  34.076  1.00  0.00     0.000 C
HETATM   19  C10 UNL     1      66.705  45.918  33.488  1.00  0.00     0.000 C
HETATM   20  C11 UNL     1      67.847  46.117  32.537  1.00  0.00     0.000 C
HETATM   21  C12 UNL     1      67.572  45.586  31.162  1.00  0.00     0.000 C
HETATM   22  C13 UNL     1      66.484  46.298  30.436  1.00  0.00     0.000 C
HETATM   23  C14 UNL     1      66.661  47.773  30.335  1.00  0.00     0.004 C
ENDBRANCH  13  14
ENDBRANCH   1  13
TORSDOF 4
ENDMDL