MODEL 1
REMARK VINA RESULT: -9.822656018      0.000      0.000
REMARK  4 active torsions:
REMARK  status: ('A' for Active; 'I' for Inactive)
REMARK    1  A    between atoms: C2_2  and  C3_3
REMARK    2  A    between atoms: C2_2  and  C14_17
REMARK    3  A    between atoms: C3_3  and  C4_4
REMARK    4  A    between atoms: C4_4  and  C5_5
ROOT
HETATM    1  C5  UNL     1      65.657  48.322  28.924  1.00  0.00    -0.014 C
HETATM    2  C6  UNL     1      64.849  48.793  30.113  1.00  0.00     0.007 C
HETATM    3  C7  UNL     1      63.385  48.992  29.810  1.00  0.00     0.039 C
HETATM    4  C8  UNL     1      62.741  47.765  29.218  1.00  0.00     0.126 C
HETATM    5  C9  UNL     1      61.924  48.195  28.033  1.00  0.00     0.040 C
HETATM    6  C10 UNL     1      60.511  47.736  28.308  1.00  0.00     0.030 C
HETATM    7  C11 UNL     1      60.603  46.901  29.539  1.00  0.00     0.233 C
HETATM    8  N1  UNL     1      61.884  47.093  30.140  1.00  0.00    -0.066 N
ATOM      9  H11 UNL     1      61.823  47.579  31.035  1.00  0.00     0.278 HD
ATOM     10  H12 UNL     1      62.288  46.220  30.477  1.00  0.00     0.278 HD
HETATM   11  C12 UNL     1      63.786  46.777  28.721  1.00  0.00     0.039 C
HETATM   12  C13 UNL     1      64.775  47.578  27.910  1.00  0.00     0.007 C
ENDROOT
BRANCH   1  13
HETATM   13  C4  UNL     1      66.713  47.352  29.347  1.00  0.00     0.005 C
BRANCH  13  14
HETATM   14  C3  UNL     1      66.466  46.452  30.484  1.00  0.00     0.005 C
BRANCH  14  15
HETATM   15  C2  UNL     1      67.355  46.512  31.678  1.00  0.00    -0.014 C
HETATM   16  C1  UNL     1      68.333  47.592  31.741  1.00  0.00     0.010 C
BRANCH  15  17
HETATM   17  C14 UNL     1      66.494  46.372  32.928  1.00  0.00    -0.010 C
HETATM   18  C15 UNL     1      67.258  46.312  34.201  1.00  0.00     0.010 C
HETATM   19  C16 UNL     1      66.228  46.782  35.228  1.00  0.00    -0.006 C
HETATM   20  C17 UNL     1      66.735  47.897  36.117  1.00  0.00     0.006 C
HETATM   21  C19 UNL     1      65.384  47.782  34.508  1.00  0.00    -0.040 C
HETATM   22  C18 UNL     1      66.244  48.876  35.070  1.00  0.00     0.010 C
HETATM   23  C20 UNL     1      63.966  47.923  35.019  1.00  0.00     0.015 C
HETATM   24  C21 UNL     1      65.511  47.517  33.043  1.00  0.00     0.014 C
ENDBRANCH  15  17
ENDBRANCH  14  15
ENDBRANCH  13  14
ENDBRANCH   1  13
TORSDOF 4
ENDMDL