MODEL 2
REMARK VINA RESULT: -8.471508584      1.579      2.972
REMARK  5 active torsions:
REMARK  status: ('A' for Active; 'I' for Inactive)
REMARK    1  A    between atoms: C3_3  and  O1_4
REMARK    2  A    between atoms: C9_11  and  C10_12
REMARK    3  A    between atoms: C10_12  and  C11_13
REMARK    4  A    between atoms: C11_13  and  C13_15
REMARK    5  A    between atoms: C18_20  and  C20_22
ROOT
HETATM    1  C10 UNL     1      64.454  47.672  31.133  1.00  0.00     0.014 C
ENDROOT
BRANCH   1   2
HETATM    2  C9  UNL     1      64.025  48.108  29.793  1.00  0.00     0.024 C
HETATM    3  C2  UNL     1      62.647  47.784  29.371  1.00  0.00    -0.056 C
HETATM    4  C1  UNL     1      61.885  46.839  29.869  1.00  0.00     0.017 C
HETATM    5  C3  UNL     1      62.107  48.615  28.244  1.00  0.00     0.146 C
HETATM    6  C4  UNL     1      63.115  48.742  27.132  1.00  0.00     0.037 C
HETATM    7  C5  UNL     1      64.539  48.741  27.532  1.00  0.00     0.012 C
HETATM    8  C6  UNL     1      64.907  47.766  28.635  1.00  0.00    -0.040 C
HETATM    9  C7  UNL     1      64.629  46.372  28.097  1.00  0.00     0.015 C
HETATM   10  C8  UNL     1      66.372  47.945  28.920  1.00  0.00     0.015 C
BRANCH   5  11
HETATM   11  O1  UNL     1      60.999  47.955  27.728  1.00  0.00    -0.391 OA
ATOM     12  H1  UNL     1      60.384  48.614  27.430  1.00  0.00     0.210 HD
ENDBRANCH   5  11
ENDBRANCH   1   2
BRANCH   1  13
HETATM   13  C11 UNL     1      64.186  48.686  32.220  1.00  0.00    -0.013 C
HETATM   14  C12 UNL     1      64.501  50.020  31.615  1.00  0.00     0.010 C
BRANCH  13  15
HETATM   15  C13 UNL     1      64.754  48.339  33.504  1.00  0.00    -0.002 C
HETATM   16  C14 UNL     1      64.860  49.542  34.465  1.00  0.00     0.006 C
HETATM   17  C15 UNL     1      65.759  49.070  35.595  1.00  0.00     0.005 C
HETATM   18  C16 UNL     1      65.969  47.650  35.254  1.00  0.00    -0.010 C
HETATM   19  C17 UNL     1      66.942  46.866  35.978  1.00  0.00     0.011 C
HETATM   20  C18 UNL     1      66.077  47.720  33.721  1.00  0.00    -0.037 C
HETATM   21  C19 UNL     1      66.267  46.321  33.240  1.00  0.00     0.016 C
BRANCH  20  22
HETATM   22  C20 UNL     1      67.225  48.545  33.238  1.00  0.00     0.005 C
HETATM   23  C21 UNL     1      68.281  47.859  32.466  1.00  0.00     0.006 C
ENDBRANCH  20  22
ENDBRANCH  13  15
ENDBRANCH   1  13
TORSDOF 5
ENDMDL