MODEL 4
REMARK VINA RESULT: -7.649084658      1.543      3.160
REMARK  4 active torsions:
REMARK  status: ('A' for Active; 'I' for Inactive)
REMARK    1  A    between atoms: C14_14  and  C15_15
REMARK    2  A    between atoms: C15_15  and  C16_16
REMARK    3  A    between atoms: C16_16  and  C17_17
REMARK    4  A    between atoms: C17_17  and  O1_18
ROOT
HETATM    1  C1  UNL     1      65.608  49.735  35.288  1.00  0.00     0.015 C
HETATM    2  C2  UNL     1      65.712  48.280  34.807  1.00  0.00    -0.044 C
HETATM    3  C3  UNL     1      64.575  47.539  35.457  1.00  0.00     0.015 C
HETATM    4  C4  UNL     1      67.046  47.773  35.302  1.00  0.00     0.009 C
HETATM    5  C5  UNL     1      67.273  46.347  34.900  1.00  0.00     0.001 C
HETATM    6  C6  UNL     1      66.626  45.967  33.613  1.00  0.00     0.005 C
HETATM    7  C7  UNL     1      66.446  47.172  32.675  1.00  0.00    -0.005 C
HETATM    8  C8  UNL     1      65.675  48.269  33.319  1.00  0.00    -0.002 C
HETATM    9  C9  UNL     1      64.236  48.294  32.784  1.00  0.00     0.006 C
HETATM   10  C10 UNL     1      64.423  48.708  31.318  1.00  0.00     0.011 C
HETATM   11  C11 UNL     1      65.034  47.543  30.609  1.00  0.00    -0.032 C
HETATM   12  C12 UNL     1      63.871  46.744  30.003  1.00  0.00     0.011 C
HETATM   13  C13 UNL     1      63.656  47.381  28.644  1.00  0.00     0.006 C
HETATM   14  C14 UNL     1      65.068  47.616  28.184  1.00  0.00    -0.010 C
HETATM   15  C18 UNL     1      65.789  48.070  29.408  1.00  0.00    -0.002 C
HETATM   16  C19 UNL     1      67.177  47.479  29.479  1.00  0.00     0.006 C
HETATM   17  C20 UNL     1      67.090  46.354  30.452  1.00  0.00     0.006 C
HETATM   18  C21 UNL     1      65.917  46.677  31.387  1.00  0.00    -0.001 C
ENDROOT
BRANCH  14  19
HETATM   19  C15 UNL     1      65.166  48.546  27.021  1.00  0.00     0.007 C
BRANCH  19  20
HETATM   20  C16 UNL     1      64.592  49.903  27.272  1.00  0.00     0.026 C
BRANCH  20  21
HETATM   21  C17 UNL     1      63.145  49.875  26.760  1.00  0.00     0.164 C
BRANCH  21  22
HETATM   22  O1  UNL     1      62.315  50.300  27.770  1.00  0.00    -0.401 OA
ATOM     23  H1  UNL     1      61.414  50.181  27.492  1.00  0.00     0.209 HD
ENDBRANCH  21  22
ENDBRANCH  20  21
ENDBRANCH  19  20
ENDBRANCH  14  19
TORSDOF 4
ENDMDL