MODEL 3
REMARK VINA RESULT: -8.634143372      1.084      5.503
REMARK  4 active torsions:
REMARK  status: ('A' for Active; 'I' for Inactive)
REMARK    1  A    between atoms: C2_2  and  C3_3
REMARK    2  A    between atoms: N1_9  and  C9_10
REMARK    3  A    between atoms: C9_10  and  C10_11
REMARK    4  A    between atoms: C13_14  and  C14_15
ROOT
HETATM    1  C3  UNL     1      64.958  48.336  28.577  1.00  0.00     0.014 C
HETATM    2  C4  UNL     1      64.084  47.641  27.514  1.00  0.00     0.013 C
HETATM    3  C5  UNL     1      62.815  48.372  27.258  1.00  0.00     0.001 C
HETATM    4  C6  UNL     1      62.215  48.693  28.610  1.00  0.00     0.002 C
HETATM    5  C7  UNL     1      62.874  47.900  29.718  1.00  0.00     0.037 C
HETATM    6  C8  UNL     1      64.316  48.406  29.876  1.00  0.00     0.235 C
HETATM    7  N1  UNL     1      64.937  47.756  31.052  1.00  0.00     0.125 N
HETATM    8  C13 UNL     1      66.151  47.167  30.738  1.00  0.00     0.424 C
HETATM    9  N2  UNL     1      66.929  47.914  29.719  1.00  0.00    -0.042 N
ATOM     10  H21 UNL     1      67.929  47.715  29.725  1.00  0.00     0.279 HD
ATOM     11  H22 UNL     1      67.015  48.914  29.906  1.00  0.00     0.279 HD
HETATM   12  C20 UNL     1      66.268  47.596  28.479  1.00  0.00     0.246 C
ENDROOT
BRANCH   8  13
HETATM   13  C14 UNL     1      67.131  46.569  31.615  1.00  0.00     0.047 C
HETATM   14  C15 UNL     1      67.759  47.493  32.632  1.00  0.00     0.008 C
HETATM   15  C16 UNL     1      68.906  46.772  33.318  1.00  0.00     0.000 C
HETATM   16  C17 UNL     1      68.263  45.722  34.195  1.00  0.00     0.000 C
HETATM   17  C18 UNL     1      67.546  44.755  33.286  1.00  0.00     0.000 C
HETATM   18  C19 UNL     1      66.469  45.473  32.511  1.00  0.00     0.008 C
ENDBRANCH   8  13
BRANCH   7  19
HETATM   19  C9  UNL     1      64.750  48.635  32.149  1.00  0.00     0.279 C
BRANCH  19  20
HETATM   20  C10 UNL     1      64.341  48.174  33.477  1.00  0.00     0.006 C
HETATM   21  C11 UNL     1      64.211  49.365  34.473  1.00  0.00     0.011 C
HETATM   22  C12 UNL     1      62.886  47.657  33.512  1.00  0.00     0.011 C
ENDBRANCH  19  20
ENDBRANCH   7  19
BRANCH   1  23
HETATM   23  C2  UNL     1      65.227  49.738  28.044  1.00  0.00     0.009 C
HETATM   24  C1  UNL     1      66.163  49.819  26.899  1.00  0.00     0.006 C
ENDBRANCH   1  23
TORSDOF 4
ENDMDL