MODEL 1
REMARK VINA RESULT: -7.831393007      0.000      0.000
REMARK  5 active torsions:
REMARK  status: ('A' for Active; 'I' for Inactive)
REMARK    1  A    between atoms: C2_2  and  C4_4
REMARK    2  A    between atoms: C4_4  and  O1_5
REMARK    3  A    between atoms: C14_16  and  C16_18
REMARK    4  A    between atoms: C16_18  and  C17_19
REMARK    5  A    between atoms: C17_19  and  N1_20
ROOT
HETATM    1  C4  UNL     1      64.593  48.234  33.692  1.00  0.00     0.062 C
HETATM    2  C5  UNL     1      65.313  46.931  33.571  1.00  0.00     0.044 C
HETATM    3  C6  UNL     1      66.333  47.059  32.491  1.00  0.00     0.001 C
HETATM    4  C7  UNL     1      65.749  47.269  31.130  1.00  0.00    -0.001 C
HETATM    5  C8  UNL     1      66.876  47.743  30.240  1.00  0.00     0.006 C
HETATM    6  C9  UNL     1      68.051  46.806  30.259  1.00  0.00     0.001 C
HETATM    7  C10 UNL     1      68.488  46.409  31.635  1.00  0.00     0.009 C
HETATM    8  C11 UNL     1      67.321  45.913  32.461  1.00  0.00    -0.044 C
HETATM    9  C12 UNL     1      67.740  45.579  33.863  1.00  0.00     0.015 C
HETATM   10  C13 UNL     1      66.752  44.671  31.834  1.00  0.00     0.015 C
HETATM   11  C14 UNL     1      64.609  48.231  31.158  1.00  0.00    -0.036 C
HETATM   12  C15 UNL     1      63.331  47.415  30.886  1.00  0.00     0.016 C
HETATM   13  C20 UNL     1      64.460  49.007  32.426  1.00  0.00     0.047 C
ENDROOT
BRANCH  11  14
HETATM   14  C16 UNL     1      64.668  49.230  30.012  1.00  0.00     0.040 C
BRANCH  14  15
HETATM   15  C17 UNL     1      63.547  48.978  29.033  1.00  0.00     0.272 C
BRANCH  15  16
HETATM   16  N1  UNL     1      64.039  48.973  27.667  1.00  0.00     0.080 N
HETATM   17  C18 UNL     1      64.414  47.587  27.371  1.00  0.00     0.309 C
HETATM   18  C19 UNL     1      65.225  49.775  27.500  1.00  0.00     0.309 C
ENDBRANCH  15  16
ENDBRANCH  14  15
ENDBRANCH  11  14
BRANCH   1  19
HETATM   19  C2  UNL     1      65.306  49.112  34.702  1.00  0.00     0.012 C
HETATM   20  C1  UNL     1      66.239  48.261  35.517  1.00  0.00     0.012 C
HETATM   21  C3  UNL     1      64.338  49.879  35.567  1.00  0.00     0.012 C
ENDBRANCH   1  19
BRANCH   1  22
HETATM   22  O1  UNL     1      63.329  47.944  34.257  1.00  0.00    -0.389 OA
ATOM     23  H1  UNL     1      63.506  47.440  35.043  1.00  0.00     0.210 HD
ENDBRANCH   1  22
TORSDOF 5
ENDMDL