MODEL 2
REMARK VINA RESULT: -6.284513846      2.437      3.334
REMARK  5 active torsions:
REMARK  status: ('A' for Active; 'I' for Inactive)
REMARK    1  A    between atoms: N1_1  and  C1_5
REMARK    2  A    between atoms: C1_5  and  C2_6
REMARK    3  A    between atoms: C2_6  and  C3_7
REMARK    4  A    between atoms: N2_8  and  C4_10
REMARK    5  A    between atoms: N4_14  and  O1_15
ROOT
HETATM    1  C4  UNL     1      19.268  19.031  -4.888  1.00  0.00     0.118 A
HETATM    2  N3  UNL     1      19.619  17.751  -5.282  1.00  0.00    -0.336 N
ATOM      3  H3  UNL     1      19.787  17.049  -4.561  1.00  0.00     0.168 HD
HETATM    4  C5  UNL     1      19.750  17.394  -6.555  1.00  0.00     0.215 A
HETATM    5  N4  UNL     1      19.542  18.266  -7.550  1.00  0.00    -0.220 N
HETATM    6  C6  UNL     1      19.198  19.527  -7.254  1.00  0.00     0.077 A
HETATM    7  C7  UNL     1      18.980  20.447  -8.260  1.00  0.00     0.033 A
HETATM    8  C8  UNL     1      18.628  21.735  -7.988  1.00  0.00     0.002 A
HETATM    9  C9  UNL     1      18.490  22.121  -6.667  1.00  0.00     0.001 A
HETATM   10  C10 UNL     1      18.701  21.228  -5.632  1.00  0.00     0.017 A
HETATM   11  C11 UNL     1      19.056  19.927  -5.911  1.00  0.00     0.037 A
ENDROOT
BRANCH   1  12
HETATM   12  N2  UNL     1      19.166  19.289  -3.696  1.00  0.00    -0.355 N
HETATM   13  C3  UNL     1      18.489  19.486  -2.548  1.00  0.00     0.064 C
ATOM     14  H2  UNL     1      20.136  19.437  -3.414  1.00  0.00     0.166 HD
BRANCH  13  15
HETATM   15  C2  UNL     1      19.366  19.846  -1.332  1.00  0.00     0.072 C
BRANCH  15  16
HETATM   16  C1  UNL     1      20.304  18.679  -1.097  1.00  0.00     0.234 C
BRANCH  16  17
HETATM   17  N1  UNL     1      21.609  18.935  -1.626  1.00  0.00    -0.079 N
ATOM     18  H13 UNL     1      21.836  18.290  -2.383  1.00  0.00     0.274 HD
ATOM     19  H12 UNL     1      21.633  19.810  -2.150  1.00  0.00     0.274 HD
ATOM     20  H11 UNL     1      22.322  18.917  -0.896  1.00  0.00     0.274 HD
ENDBRANCH  16  17
ENDBRANCH  15  16
ENDBRANCH  13  15
ENDBRANCH   1  12
BRANCH   5  21
HETATM   21  O1  UNL     1      19.664  17.944  -8.872  1.00  0.00    -0.282 OA
ATOM     22  H1  UNL     1      19.829  18.585  -9.555  1.00  0.00     0.245 HD
ENDBRANCH   5  21
TORSDOF 5
ENDMDL