MODEL 3
REMARK VINA RESULT: -6.571537865      1.462      5.513
REMARK  4 active torsions:
REMARK  status: ('A' for Active; 'I' for Inactive)
REMARK    1  A    between atoms: C2_2  and  C3_3
REMARK    2  A    between atoms: C3_3  and  N1_4
REMARK    3  A    between atoms: N1_4  and  C4_6
REMARK    4  A    between atoms: C6_8  and  C7_9
ROOT
HETATM    1  C4  UNL     1      16.057  22.042  -7.284  1.00  0.00     0.107 A
HETATM    2  C5  UNL     1      16.626  20.894  -6.732  1.00  0.00     0.078 A
HETATM    3  C6  UNL     1      17.987  20.646  -6.897  1.00  0.00     0.050 A
HETATM    4  N3  UNL     1      18.741  21.511  -7.582  1.00  0.00    -0.308 N
ATOM      5  H3  UNL     1      19.738  21.334  -7.703  1.00  0.00     0.170 HD
HETATM    6  C12 UNL     1      18.175  22.634  -8.120  1.00  0.00     0.326 A
HETATM    7  O1  UNL     1      18.933  23.413  -8.756  1.00  0.00    -0.247 OA
HETATM    8  N4  UNL     1      16.873  22.865  -7.961  1.00  0.00    -0.295 N
ATOM      9  H4  UNL     1      16.477  23.710  -8.374  1.00  0.00     0.172 HD
ENDROOT
BRANCH   3  10
HETATM   10  C7  UNL     1      18.578  19.440  -6.314  1.00  0.00    -0.007 A
HETATM   11  C8  UNL     1      19.527  18.675  -6.972  1.00  0.00     0.030 A
HETATM   12  C9  UNL     1      20.058  17.530  -6.363  1.00  0.00     0.088 A
HETATM   13  N2  UNL     1      19.678  17.139  -5.150  1.00  0.00    -0.375 N
HETATM   14  C10 UNL     1      18.772  17.845  -4.487  1.00  0.00     0.088 A
ATOM     15  H2  UNL     1      20.082  16.301  -4.732  1.00  0.00     0.164 HD
HETATM   16  C11 UNL     1      18.228  18.983  -5.063  1.00  0.00     0.030 A
ENDBRANCH   3  10
BRANCH   1  17
HETATM   17  N1  UNL     1      14.829  22.335  -7.179  1.00  0.00    -0.373 N
ATOM     18  H1  UNL     1      14.589  23.150  -6.613  1.00  0.00     0.161 HD
BRANCH  17  19
HETATM   19  C3  UNL     1      13.743  21.612  -7.792  1.00  0.00     0.147 C
BRANCH  19  20
HETATM   20  C2  UNL     1      13.758  21.723  -9.273  1.00  0.00    -0.018 C
HETATM   21  C1  UNL     1      13.590  22.851  -9.927  1.00  0.00     0.008 C
ENDBRANCH  19  20
ENDBRANCH  17  19
ENDBRANCH   1  17
TORSDOF 4
ENDMDL