MODEL 3
REMARK VINA RESULT: -6.761547790      3.248      5.763
REMARK  3 active torsions:
REMARK  status: ('A' for Active; 'I' for Inactive)
REMARK    1  A    between atoms: C3_4  and  C4_5
REMARK    2  A    between atoms: C4_5  and  C5_6
REMARK    3  A    between atoms: C5_6  and  C6_7
ROOT
HETATM    1  N1  UNL     1      20.005  17.078  -6.659  1.00  0.00    -0.191 NA
HETATM    2  C1  UNL     1      19.768  18.201  -6.455  1.00  0.00     0.107 C
HETATM    3  C2  UNL     1      19.470  19.562  -6.185  1.00  0.00     0.137 A
HETATM    4  C3  UNL     1      18.522  20.049  -5.277  1.00  0.00     0.052 A
HETATM    5  N3  UNL     1      18.614  21.385  -5.389  1.00  0.00    -0.300 N
ATOM      6  H3  UNL     1      18.054  22.051  -4.858  1.00  0.00     0.186 HD
HETATM    7  N4  UNL     1      19.538  21.718  -6.286  1.00  0.00    -0.265 N
ATOM      8  H4  UNL     1      19.785  22.675  -6.540  1.00  0.00     0.190 HD
HETATM    9  C11 UNL     1      20.097  20.624  -6.809  1.00  0.00     0.282 A
HETATM   10  O1  UNL     1      21.004  20.531  -7.684  1.00  0.00    -0.265 OA
ENDROOT
BRANCH   4  11
HETATM   11  C4  UNL     1      17.635  19.231  -4.412  1.00  0.00     0.065 C
BRANCH  11  12
HETATM   12  C5  UNL     1      17.968  19.527  -2.971  1.00  0.00     0.044 C
BRANCH  12  13
HETATM   13  C6  UNL     1      18.858  18.539  -2.360  1.00  0.00    -0.055 A
HETATM   14  C7  UNL     1      19.917  18.891  -1.555  1.00  0.00     0.024 A
HETATM   15  C8  UNL     1      20.751  17.950  -0.990  1.00  0.00     0.088 A
HETATM   16  N2  UNL     1      20.525  16.643  -1.230  1.00  0.00    -0.375 N
HETATM   17  C9  UNL     1      19.502  16.237  -2.010  1.00  0.00     0.088 A
ATOM     18  H2  UNL     1      21.141  15.945  -0.812  1.00  0.00     0.164 HD
HETATM   19  C10 UNL     1      18.660  17.194  -2.581  1.00  0.00     0.024 A
ENDBRANCH  12  13
ENDBRANCH  11  12
ENDBRANCH   4  11
TORSDOF 3
ENDMDL