MODEL 1
REMARK VINA RESULT: -6.973572607      0.000      0.000
REMARK  4 active torsions:
REMARK  status: ('A' for Active; 'I' for Inactive)
REMARK    1  A    between atoms: O1_1  and  N1_3
REMARK    2  A    between atoms: C1_5  and  C2_6
REMARK    3  A    between atoms: N2_10  and  C6_11
REMARK    4  A    between atoms: C6_11  and  C7_12
ROOT
HETATM    1  C2  UNL     1      19.336  19.780  -7.390  1.00  0.00    -0.003 A
HETATM    2  C3  UNL     1      19.981  20.086  -8.575  1.00  0.00     0.015 A
HETATM    3  C4  UNL     1      19.597  21.249  -9.210  1.00  0.00     0.018 A
HETATM    4  C5  UNL     1      18.600  22.062  -8.659  1.00  0.00     0.090 A
HETATM    5  N2  UNL     1      17.993  21.737  -7.504  1.00  0.00    -0.361 N
HETATM    6  C12 UNL     1      18.359  20.605  -6.875  1.00  0.00     0.103 A
ENDROOT
BRANCH   5   7
HETATM    7  C6  UNL     1      16.974  22.536  -6.908  1.00  0.00     0.166 C
BRANCH   7   8
HETATM    8  C7  UNL     1      15.606  22.023  -7.115  1.00  0.00    -0.037 A
HETATM    9  C8  UNL     1      15.019  21.987  -8.359  1.00  0.00     0.026 A
HETATM   10  C9  UNL     1      13.741  21.502  -8.517  1.00  0.00     0.088 A
HETATM   11  N3  UNL     1      13.066  21.063  -7.442  1.00  0.00    -0.375 N
HETATM   12  C10 UNL     1      13.572  21.067  -6.201  1.00  0.00     0.088 A
ATOM     13  H3  UNL     1      12.119  20.709  -7.577  1.00  0.00     0.164 HD
HETATM   14  C11 UNL     1      14.855  21.556  -6.056  1.00  0.00     0.026 A
ENDBRANCH   7   8
ENDBRANCH   5   7
BRANCH   1  15
HETATM   15  C1  UNL     1      19.698  18.564  -6.670  1.00  0.00     0.126 C
HETATM   16  N1  UNL     1      19.830  17.458  -7.298  1.00  0.00    -0.280 N
ATOM     17  H1  UNL     1      19.681  17.426  -8.306  1.00  0.00     0.193 HD
BRANCH  16  18
HETATM   18  O1  UNL     1      20.165  16.330  -6.631  1.00  0.00    -0.290 OA
ATOM     19  H1  UNL     1      19.499  15.695  -6.396  1.00  0.00     0.244 HD
ENDBRANCH  16  18
ENDBRANCH   1  15
TORSDOF 4
ENDMDL