MODEL 4
REMARK VINA RESULT: -6.070408237      3.205      5.483
REMARK  3 active torsions:
REMARK  status: ('A' for Active; 'I' for Inactive)
REMARK    1  A    between atoms: C2_5  and  S1_6
REMARK    2  A    between atoms: S1_6  and  C3_8
REMARK    3  A    between atoms: C3_8  and  C4_9
ROOT
HETATM    1  S1  UNL     1      19.781  18.572  -6.058  1.00  0.00     0.074 S
HETATM    2  O2  UNL     1      20.050  17.021  -6.632  1.00  0.00    -0.251 OA
ENDROOT
BRANCH   1   3
HETATM    3  C2  UNL     1      19.603  19.736  -7.307  1.00  0.00     0.127 A
HETATM    4  N1  UNL     1      19.393  21.065  -7.264  1.00  0.00    -0.293 N
HETATM    5  C1  UNL     1      19.324  21.529  -8.512  1.00  0.00     0.370 A
ATOM      6  H1  UNL     1      19.301  21.624  -6.416  1.00  0.00     0.172 HD
HETATM    7  O1  UNL     1      19.136  22.727  -8.900  1.00  0.00    -0.238 OA
HETATM    8  O3  UNL     1      19.486  20.530  -9.338  1.00  0.00    -0.271 OA
HETATM    9  C8  UNL     1      19.655  19.438  -8.667  1.00  0.00     0.186 A
ENDBRANCH   1   3
BRANCH   1  10
HETATM   10  C3  UNL     1      18.499  18.621  -4.849  1.00  0.00     0.172 C
BRANCH  10  11
HETATM   11  C4  UNL     1      18.933  17.932  -3.605  1.00  0.00     0.021 A
HETATM   12  C5  UNL     1      19.076  18.476  -2.347  1.00  0.00     0.027 A
HETATM   13  C6  UNL     1      19.504  17.494  -1.460  1.00  0.00     0.019 A
HETATM   14  C7  UNL     1      19.609  16.351  -2.225  1.00  0.00     0.088 A
HETATM   15  N2  UNL     1      19.269  16.637  -3.483  1.00  0.00    -0.368 N
ATOM     16  H2  UNL     1      19.265  15.962  -4.248  1.00  0.00     0.165 HD
ENDBRANCH  10  11
ENDBRANCH   1  10
TORSDOF 3
ENDMDL