MODEL 3
REMARK VINA RESULT: -6.517853108      3.434      6.652
REMARK  4 active torsions:
REMARK  status: ('A' for Active; 'I' for Inactive)
REMARK    1  A    between atoms: N1_1  and  N2_4
REMARK    2  A    between atoms: C1_6  and  O1_7
REMARK    3  A    between atoms: O1_7  and  N3_8
REMARK    4  A    between atoms: C2_10  and  C3_11
ROOT
HETATM    1  C3  UNL     1      18.919  17.692  -2.658  1.00  0.00    -0.008 A
HETATM    2  C4  UNL     1      19.432  16.565  -2.057  1.00  0.00     0.014 A
HETATM    3  C5  UNL     1      19.656  16.524  -0.692  1.00  0.00     0.002 A
HETATM    4  C6  UNL     1      19.368  17.617   0.079  1.00  0.00     0.012 A
HETATM    5  C7  UNL     1      18.856  18.748  -0.511  1.00  0.00    -0.025 A
HETATM    6  C8  UNL     1      18.579  19.819   0.290  1.00  0.00     0.012 A
HETATM    7  C9  UNL     1      18.073  20.954  -0.251  1.00  0.00     0.001 A
HETATM    8  C10 UNL     1      17.844  21.018  -1.587  1.00  0.00     0.001 A
HETATM    9  C11 UNL     1      18.116  19.941  -2.429  1.00  0.00     0.013 A
HETATM   10  C12 UNL     1      18.627  18.791  -1.885  1.00  0.00    -0.014 A
ENDROOT
BRANCH   1  11
HETATM   11  C2  UNL     1      18.702  17.691  -4.077  1.00  0.00     0.126 C
HETATM   12  N3  UNL     1      19.521  16.964  -4.817  1.00  0.00    -0.271 N
ATOM     13  H3  UNL     1      20.272  16.434  -4.374  1.00  0.00     0.194 HD
BRANCH  12  14
HETATM   14  O1  UNL     1      19.365  16.921  -6.181  1.00  0.00    -0.232 OA
BRANCH  14  15
HETATM   15  C1  UNL     1      19.626  18.080  -6.891  1.00  0.00     0.274 C
HETATM   16  N2  UNL     1      19.552  18.072  -8.167  1.00  0.00    -0.295 N
ATOM     17  H2  UNL     1      19.303  17.211  -8.656  1.00  0.00     0.187 HD
BRANCH  16  18
HETATM   18  N1  UNL     1      19.813  19.239  -8.899  1.00  0.00    -0.344 N
ATOM     19  H12 UNL     1      19.400  20.118  -8.587  1.00  0.00     0.176 HD
ATOM     20  H11 UNL     1      20.406  19.205  -9.729  1.00  0.00     0.176 HD
ENDBRANCH  16  18
ENDBRANCH  14  15
ENDBRANCH  12  14
ENDBRANCH   1  11
TORSDOF 4
ENDMDL