MODEL 4
REMARK VINA RESULT: -6.292823824      2.022      6.287
REMARK  5 active torsions:
REMARK  status: ('A' for Active; 'I' for Inactive)
REMARK    1  A    between atoms: C2_2  and  N1_3
REMARK    2  A    between atoms: N1_3  and  C3_5
REMARK    3  A    between atoms: C6_10  and  N3_11
REMARK    4  A    between atoms: N3_11  and  C7_13
REMARK    5  A    between atoms: C7_13  and  C8_14
ROOT
HETATM    1  C3  UNL     1      13.924  22.003  -9.310  1.00  0.00     0.679 A
HETATM    2  N2  UNL     1      13.408  21.041  -8.530  1.00  0.00    -0.202 N
ATOM      3  H2  UNL     1      12.571  20.549  -8.843  1.00  0.00     0.183 HD
HETATM    4  C4  UNL     1      13.953  20.706  -7.354  1.00  0.00     0.110 A
HETATM    5  C5  UNL     1      15.080  21.332  -6.878  1.00  0.00     0.066 A
HETATM    6  C6  UNL     1      15.632  22.341  -7.684  1.00  0.00     0.118 A
HETATM    7  N5  UNL     1      15.046  22.631  -8.843  1.00  0.00    -0.177 N
ATOM      8  H5  UNL     1      15.458  23.365  -9.419  1.00  0.00     0.185 HD
ENDROOT
BRANCH   6   9
HETATM    9  N3  UNL     1      16.670  22.921  -7.252  1.00  0.00    -0.372 N
ATOM     10  H3  UNL     1      16.647  23.274  -6.295  1.00  0.00     0.161 HD
BRANCH   9  11
HETATM   11  C7  UNL     1      17.866  23.121  -7.996  1.00  0.00     0.160 C
BRANCH  11  12
HETATM   12  C8  UNL     1      18.682  21.861  -7.968  1.00  0.00    -0.038 A
HETATM   13  C9  UNL     1      18.972  21.242  -9.184  1.00  0.00     0.025 A
HETATM   14  C10 UNL     1      19.720  20.087  -9.129  1.00  0.00     0.088 A
HETATM   15  N4  UNL     1      20.156  19.570  -7.965  1.00  0.00    -0.375 N
HETATM   16  C11 UNL     1      19.892  20.145  -6.780  1.00  0.00     0.088 A
ATOM     17  H4  UNL     1      20.706  18.712  -7.985  1.00  0.00     0.164 HD
HETATM   18  C12 UNL     1      19.145  21.304  -6.796  1.00  0.00     0.025 A
ENDBRANCH  11  12
ENDBRANCH   9  11
ENDBRANCH   6   9
BRANCH   1  19
HETATM   19  N1  UNL     1      13.415  22.347 -10.452  1.00  0.00    -0.226 N
ATOM     20  H1  UNL     1      13.245  21.637 -11.164  1.00  0.00     0.177 HD
BRANCH  19  21
HETATM   21  C2  UNL     1      13.086  23.730 -10.728  1.00  0.00     0.133 C
HETATM   22  C1  UNL     1      11.930  24.174  -9.853  1.00  0.00     0.027 C
ENDBRANCH  19  21
ENDBRANCH   1  19
TORSDOF 5
ENDMDL