MODEL 1
REMARK VINA RESULT: -6.451045380      0.000      0.000
REMARK  4 active torsions:
REMARK  status: ('A' for Active; 'I' for Inactive)
REMARK    1  A    between atoms: N1_1  and  C1_5
REMARK    2  A    between atoms: C1_5  and  C2_6
REMARK    3  A    between atoms: C2_6  and  N2_7
REMARK    4  A    between atoms: C5_11  and  C6_12
ROOT
HETATM    1  N2  UNL     1      19.393  16.500  -2.816  1.00  0.00    -0.375 N
ATOM      2  H2  UNL     1      20.224  16.152  -3.294  1.00  0.00     0.161 HD
HETATM    3  C3  UNL     1      18.706  17.388  -3.430  1.00  0.00     0.103 A
HETATM    4  C4  UNL     1      19.095  17.841  -4.688  1.00  0.00     0.078 A
HETATM    5  C5  UNL     1      18.371  18.810  -5.387  1.00  0.00     0.048 A
HETATM    6  N4  UNL     1      17.263  19.312  -4.812  1.00  0.00    -0.351 N
ATOM      7  H4  UNL     1      16.710  20.020  -5.294  1.00  0.00     0.166 HD
HETATM    8  C11 UNL     1      16.888  18.868  -3.587  1.00  0.00     0.182 A
HETATM    9  N5  UNL     1      17.591  17.940  -2.929  1.00  0.00    -0.339 N
ATOM     10  H5  UNL     1      17.267  17.641  -2.010  1.00  0.00     0.168 HD
ENDROOT
BRANCH   1  11
HETATM   11  C2  UNL     1      19.114  15.951  -1.539  1.00  0.00     0.148 C
BRANCH  11  12
HETATM   12  C1  UNL     1      19.862  16.611  -0.403  1.00  0.00     0.249 C
BRANCH  12  13
HETATM   13  N1  UNL     1      20.558  15.636   0.417  1.00  0.00    -0.078 N
ATOM     14  H13 UNL     1      19.980  15.327   1.198  1.00  0.00     0.274 HD
ATOM     15  H12 UNL     1      20.659  14.746  -0.069  1.00  0.00     0.274 HD
ATOM     16  H11 UNL     1      21.460  15.990   0.737  1.00  0.00     0.274 HD
ENDBRANCH  12  13
ENDBRANCH  11  12
ENDBRANCH   1  11
BRANCH   5  17
HETATM   17  C6  UNL     1      18.816  19.262  -6.715  1.00  0.00     0.006 A
HETATM   18  C7  UNL     1      18.708  20.572  -7.100  1.00  0.00     0.016 A
HETATM   19  C8  UNL     1      19.120  21.041  -8.356  1.00  0.00     0.018 A
HETATM   20  C9  UNL     1      19.654  20.116  -9.221  1.00  0.00     0.087 A
HETATM   21  N3  UNL     1      19.762  18.827  -8.847  1.00  0.00    -0.374 N
HETATM   22  C10 UNL     1      19.353  18.388  -7.616  1.00  0.00     0.101 A
ATOM     23  H3  UNL     1      20.161  18.156  -9.503  1.00  0.00     0.164 HD
ENDBRANCH   5  17
TORSDOF 4
ENDMDL