MODEL 5
REMARK VINA RESULT: -6.551275973      1.820      3.510
REMARK  4 active torsions:
REMARK  status: ('A' for Active; 'I' for Inactive)
REMARK    1  A    between atoms: C2_3  and  N2_4
REMARK    2  A    between atoms: C3_8  and  N4_9
REMARK    3  A    between atoms: C4_12  and  C5_13
REMARK    4  A    between atoms: C5_13  and  C6_14
ROOT
HETATM    1  N1  UNL     1      20.593  21.069  -8.721  1.00  0.00    -0.195 NA
HETATM    2  C1  UNL     1      20.005  20.062  -8.629  1.00  0.00     0.081 C
HETATM    3  C2  UNL     1      19.289  18.796  -8.531  1.00  0.00     0.282 C
ENDROOT
BRANCH   3   4
HETATM    4  N2  UNL     1      19.421  18.286  -7.193  1.00  0.00    -0.221 N
HETATM    5  O1  UNL     1      19.928  17.123  -6.911  1.00  0.00    -0.152 OA
HETATM    6  N3  UNL     1      19.934  16.897  -5.650  1.00  0.00    -0.224 N
HETATM    7  C3  UNL     1      19.400  17.975  -5.041  1.00  0.00     0.146 A
ATOM      8  H3  UNL     1      20.281  16.055  -5.191  1.00  0.00     0.198 HD
HETATM    9  C4  UNL     1      19.064  18.879  -6.025  1.00  0.00     0.087 A
BRANCH   7  10
HETATM   10  N4  UNL     1      19.260  18.078  -3.748  1.00  0.00    -0.382 N
ATOM     11  H42 UNL     1      19.961  17.969  -3.014  1.00  0.00     0.157 HD
ATOM     12  H41 UNL     1      18.373  18.290  -3.292  1.00  0.00     0.157 HD
ENDBRANCH   7  10
BRANCH   9  13
HETATM   13  C5  UNL     1      18.489  20.209  -5.826  1.00  0.00     0.102 C
BRANCH  13  14
HETATM   14  C6  UNL     1      17.054  20.369  -6.156  1.00  0.00    -0.052 A
HETATM   15  C7  UNL     1      16.119  19.479  -5.654  1.00  0.00     0.007 A
HETATM   16  C8  UNL     1      14.782  19.606  -5.949  1.00  0.00     0.001 A
HETATM   17  C9  UNL     1      14.338  20.627  -6.753  1.00  0.00     0.000 A
HETATM   18  C10 UNL     1      15.262  21.517  -7.256  1.00  0.00     0.001 A
HETATM   19  C11 UNL     1      16.601  21.391  -6.962  1.00  0.00     0.007 A
ENDBRANCH  13  14
ENDBRANCH   9  13
ENDBRANCH   3   4
TORSDOF 4
ENDMDL