MODEL 1
REMARK VINA RESULT: -9.925894031      0.000      0.000
REMARK  2 active torsions:
REMARK  status: ('A' for Active; 'I' for Inactive)
REMARK    1  A    between atoms: N1_1  and  C1_4
REMARK    2  A    between atoms: C3_10  and  C4_11
ROOT
HETATM    1  C4  UNL     1      12.096  -0.943  17.265  1.00  0.00    -0.020 A
HETATM    2  C5  UNL     1      10.904  -1.550  17.669  1.00  0.00     0.013 A
HETATM    3  C6  UNL     1      10.109  -0.997  18.655  1.00  0.00     0.018 A
HETATM    4  C7  UNL     1      10.491   0.180  19.261  1.00  0.00     0.040 A
HETATM    5  C8  UNL     1      11.666   0.822  18.893  1.00  0.00     0.031 A
HETATM    6  C9  UNL     1      12.423   0.233  17.909  1.00  0.00     0.029 A
HETATM    7  C10 UNL     1      12.249   2.061  19.402  1.00  0.00     0.194 C
HETATM    8  O1  UNL     1      12.967   2.667  18.567  1.00  0.00    -0.287 OA
HETATM    9  C11 UNL     1      12.136   2.695  20.698  1.00  0.00     0.037 A
HETATM   10  C12 UNL     1      13.191   3.540  20.990  1.00  0.00     0.017 A
HETATM   11  C13 UNL     1      13.238   4.223  22.185  1.00  0.00     0.001 A
HETATM   12  C14 UNL     1      12.251   4.103  23.138  1.00  0.00     0.002 A
HETATM   13  C15 UNL     1      11.200   3.264  22.850  1.00  0.00     0.025 A
HETATM   14  C16 UNL     1      11.141   2.561  21.634  1.00  0.00     0.081 A
HETATM   15  S1  UNL     1       9.682   1.623  21.645  1.00  0.00     0.246 S
HETATM   16  O2  UNL     1       9.634   0.842  22.939  1.00  0.00    -0.214 OA
HETATM   17  O3  UNL     1       8.485   2.563  21.679  1.00  0.00    -0.214 OA
HETATM   18  C17 UNL     1       9.535   0.608  20.261  1.00  0.00     0.281 C
HETATM   19  O4  UNL     1       8.360   0.157  20.107  1.00  0.00    -0.274 OA
ENDROOT
BRANCH   1  20
HETATM   20  C3  UNL     1      12.926  -1.545  16.227  1.00  0.00     0.036 A
HETATM   21  C1  UNL     1      14.067  -2.298  16.310  1.00  0.00     0.126 A
HETATM   22  N2  UNL     1      14.486  -2.653  15.065  1.00  0.00    -0.285 N
HETATM   23  N3  UNL     1      13.626  -2.133  14.205  1.00  0.00    -0.309 N
ATOM     24  H2  UNL     1      15.308  -3.213  14.839  1.00  0.00     0.188 HD
HETATM   25  C2  UNL     1      12.657  -1.449  14.861  1.00  0.00     0.123 A
ATOM     26  H3  UNL     1      13.684  -2.233  13.192  1.00  0.00     0.186 HD
BRANCH  21  27
HETATM   27  N1  UNL     1      14.656  -2.619  17.400  1.00  0.00    -0.384 N
ATOM     28  H12 UNL     1      15.626  -2.928  17.470  1.00  0.00     0.157 HD
ATOM     29  H11 UNL     1      14.223  -2.605  18.324  1.00  0.00     0.157 HD
ENDBRANCH  21  27
ENDBRANCH   1  20
TORSDOF 2
ENDMDL