MODEL 2
REMARK VINA RESULT: -9.185558828      0.226      1.706
REMARK  3 active torsions:
REMARK  status: ('A' for Active; 'I' for Inactive)
REMARK    1  A    between atoms: N1_1  and  N2_4
REMARK    2  A    between atoms: C12_17  and  C13_18
REMARK    3  A    between atoms: C13_18  and  C14_19
ROOT
HETATM    1  N2  UNL     1      12.537   3.383  21.727  1.00  0.00    -0.306 N
ATOM      2  H2  UNL     1      12.025   3.549  22.594  1.00  0.00     0.186 HD
HETATM    3  C1  UNL     1      12.199   2.328  21.153  1.00  0.00     0.071 A
HETATM    4  C2  UNL     1      12.718   1.761  19.898  1.00  0.00     0.004 A
HETATM    5  C3  UNL     1      13.712   2.188  19.023  1.00  0.00     0.014 A
HETATM    6  C4  UNL     1      14.003   1.440  17.902  1.00  0.00     0.001 A
HETATM    7  C5  UNL     1      13.335   0.285  17.638  1.00  0.00     0.001 A
HETATM    8  C6  UNL     1      12.352  -0.157  18.490  1.00  0.00     0.013 A
HETATM    9  C7  UNL     1      12.051   0.594  19.629  1.00  0.00    -0.012 A
HETATM   10  C8  UNL     1      11.078   0.336  20.681  1.00  0.00    -0.011 A
HETATM   11  C9  UNL     1      10.187  -0.697  20.854  1.00  0.00     0.013 A
HETATM   12  C10 UNL     1       9.366  -0.724  21.946  1.00  0.00     0.002 A
HETATM   13  C11 UNL     1       9.436   0.277  22.864  1.00  0.00     0.021 A
HETATM   14  C12 UNL     1      10.365   1.385  22.712  1.00  0.00     0.024 A
HETATM   15  C18 UNL     1      11.159   1.379  21.615  1.00  0.00     0.022 A
ENDROOT
BRANCH  14  16
HETATM   16  C13 UNL     1      10.350   2.292  23.787  1.00  0.00    -0.093 C
BRANCH  16  17
HETATM   17  C14 UNL     1      10.354   3.100  24.739  1.00  0.00     0.146 A
HETATM   18  C15 UNL     1       9.978   2.619  26.109  1.00  0.00     0.271 A
HETATM   19  O1  UNL     1       9.777   1.410  26.392  1.00  0.00    -0.266 OA
HETATM   20  N3  UNL     1       9.832   3.581  27.145  1.00  0.00    -0.299 N
HETATM   21  C16 UNL     1      10.032   4.939  26.912  1.00  0.00     0.181 A
ATOM     22  H3  UNL     1       9.574   3.269  28.081  1.00  0.00     0.171 HD
HETATM   23  S1  UNL     1       9.810   5.970  28.181  1.00  0.00    -0.040 SA
HETATM   24  N4  UNL     1      10.390   5.456  25.639  1.00  0.00    -0.299 N
HETATM   25  C17 UNL     1      10.554   4.576  24.558  1.00  0.00     0.271 A
ATOM     26  H4  UNL     1      10.527   6.459  25.511  1.00  0.00     0.171 HD
HETATM   27  O2  UNL     1      10.864   5.046  23.437  1.00  0.00    -0.266 OA
ENDBRANCH  16  17
ENDBRANCH  14  16
BRANCH   1  28
HETATM   28  N1  UNL     1      13.433   4.353  21.449  1.00  0.00    -0.345 N
ATOM     29  H12 UNL     1      13.353   4.677  20.485  1.00  0.00     0.176 HD
ATOM     30  H11 UNL     1      14.159   4.820  21.991  1.00  0.00     0.176 HD
ENDBRANCH   1  28
TORSDOF 3
ENDMDL