MODEL 3
REMARK VINA RESULT: -8.593117959      3.223      4.818
REMARK  2 active torsions:
REMARK  status: ('A' for Active; 'I' for Inactive)
REMARK       I    between atoms: N1_2  and  C2_4
REMARK       I    between atoms: C2_4  and  N2_6
REMARK    1  A    between atoms: N2_6  and  C3_8
REMARK    2  A    between atoms: C7_14  and  N4_15
ROOT
HETATM    1  C3  UNL     1      13.492   0.416  18.827  1.00  0.00     0.687 A
HETATM    2  N3  UNL     1      12.191   0.086  18.840  1.00  0.00    -0.189 N
ATOM      3  H3  UNL     1      11.695  -0.399  18.093  1.00  0.00     0.184 HD
HETATM    4  C4  UNL     1      11.650   0.500  19.998  1.00  0.00     0.076 A
HETATM    5  C5  UNL     1      10.359   0.410  20.508  1.00  0.00     0.034 A
HETATM    6  C6  UNL     1      10.133   0.941  21.743  1.00  0.00     0.032 A
HETATM    7  C7  UNL     1      11.109   1.562  22.514  1.00  0.00     0.035 A
HETATM    8  C15 UNL     1      12.369   1.639  21.994  1.00  0.00     0.061 A
HETATM    9  C16 UNL     1      12.643   1.108  20.737  1.00  0.00     0.078 A
HETATM   10  N9  UNL     1      13.739   1.036  19.992  1.00  0.00    -0.189 N
ATOM     11  H9  UNL     1      14.650   1.403  20.269  1.00  0.00     0.184 HD
ENDROOT
BRANCH   7  12
HETATM   12  N4  UNL     1      10.723   2.062  23.768  1.00  0.00    -0.353 N
HETATM   13  C8  UNL     1      10.321   3.222  24.046  1.00  0.00     0.087 A
HETATM   14  C9  UNL     1       9.981   3.546  25.336  1.00  0.00     0.051 A
HETATM   15  C12 UNL     1      10.217   4.178  23.063  1.00  0.00     0.108 A
HETATM   16  C10 UNL     1      10.065   2.565  26.461  1.00  0.00     0.072 C
HETATM   17  N5  UNL     1       9.560   4.807  25.555  1.00  0.00    -0.301 N
HETATM   18  N6  UNL     1       9.456   5.728  24.630  1.00  0.00    -0.283 N
ATOM     19  H5  UNL     1       9.305   5.062  26.509  1.00  0.00     0.186 HD
HETATM   20  C11 UNL     1       9.777   5.458  23.354  1.00  0.00     0.152 A
ATOM     21  H6  UNL     1       9.128   6.661  24.880  1.00  0.00     0.188 HD
HETATM   22  N8  UNL     1       9.761   6.209  22.229  1.00  0.00    -0.331 N
HETATM   23  C13 UNL     1      10.188   5.418  21.226  1.00  0.00     0.184 A
HETATM   24  C14 UNL     1       9.355   7.602  22.162  1.00  0.00     0.158 C
HETATM   25  N7  UNL     1      10.460   4.205  21.725  1.00  0.00    -0.347 N
ATOM     26  H7  UNL     1      10.801   3.414  21.179  1.00  0.00     0.167 HD
ATOM     27  H4  UNL     1      10.775   1.407  24.548  1.00  0.00     0.166 HD
ENDBRANCH   7  12
BRANCH   1  28
HETATM   28  N2  UNL     1      14.319   0.168  17.863  1.00  0.00    -0.141 N
HETATM   29  C2  UNL     1      14.239  -1.060  17.152  1.00  0.00     0.334 C
HETATM   30  N1  UNL     1      14.049  -1.024  15.754  1.00  0.00    -0.347 N
HETATM   31  O1  UNL     1      14.331  -2.178  17.721  1.00  0.00    -0.247 OA
HETATM   32  C1  UNL     1      13.967  -2.265  15.022  1.00  0.00     0.151 C
ATOM     33  H1  UNL     1      13.970  -0.131  15.266  1.00  0.00     0.163 HD
ATOM     34  H2  UNL     1      15.030   0.856  17.613  1.00  0.00     0.189 HD
ENDBRANCH   1  28
TORSDOF 2
ENDMDL