MODEL 5
REMARK VINA RESULT: -9.026166393      1.917      2.356
REMARK  3 active torsions:
REMARK  status: ('A' for Active; 'I' for Inactive)
REMARK    1  A    between atoms: O1_2  and  C2_3
REMARK    2  A    between atoms: C6_9  and  N2_10
REMARK    3  A    between atoms: N2_10  and  C7_12
ROOT
HETATM    1  N2  UNL     1      10.087   1.427  23.428  1.00  0.00    -0.021 N
ATOM      2  H2  UNL     1       9.634   0.746  24.036  1.00  0.00     0.203 HD
ENDROOT
BRANCH   1   3
HETATM    3  C6  UNL     1      10.349   2.619  23.866  1.00  0.00     0.698 A
HETATM    4  N1  UNL     1      11.245   2.873  24.829  1.00  0.00    -0.189 N
HETATM    5  C5  UNL     1      11.298   4.200  25.068  1.00  0.00     0.076 A
ATOM      6  H1  UNL     1      11.803   2.168  25.310  1.00  0.00     0.184 HD
HETATM    7  C4  UNL     1      12.021   5.002  25.928  1.00  0.00     0.035 A
HETATM    8  C14 UNL     1      10.398   4.807  24.218  1.00  0.00     0.079 A
HETATM    9  C3  UNL     1      11.859   6.390  25.952  1.00  0.00     0.039 A
HETATM   10  C2  UNL     1      10.959   6.997  25.104  1.00  0.00     0.070 A
HETATM   11  C15 UNL     1      10.250   6.177  24.255  1.00  0.00     0.069 A
HETATM   12  N5  UNL     1       9.843   3.802  23.504  1.00  0.00    -0.189 N
ATOM     13  H5  UNL     1       9.132   3.930  22.784  1.00  0.00     0.184 HD
BRANCH  10  14
HETATM   14  O1  UNL     1      10.804   8.373  25.134  1.00  0.00    -0.356 OA
HETATM   15  C1  UNL     1      11.757   9.168  25.810  1.00  0.00     0.210 C
ENDBRANCH  10  14
ENDBRANCH   1   3
BRANCH   1  16
HETATM   16  C7  UNL     1      10.440   1.071  22.072  1.00  0.00     0.707 A
HETATM   17  N3  UNL     1       9.591   0.446  21.379  1.00  0.00    -0.112 N
HETATM   18  S1  UNL     1       9.912  -0.020  19.768  1.00  0.00     0.278 S
ATOM     19  H3  UNL     1       8.688   0.213  21.792  1.00  0.00     0.197 HD
HETATM   20  O2  UNL     1       9.766  -1.506  19.600  1.00  0.00    -0.200 OA
HETATM   21  O3  UNL     1       8.938   0.679  18.836  1.00  0.00    -0.200 OA
HETATM   22  C8  UNL     1      11.520   0.520  19.369  1.00  0.00     0.107 A
HETATM   23  C9  UNL     1      12.074   0.297  18.144  1.00  0.00     0.028 A
HETATM   24  C13 UNL     1      12.245   1.190  20.330  1.00  0.00     0.072 A
HETATM   25  C10 UNL     1      13.363   0.739  17.847  1.00  0.00     0.002 A
HETATM   26  C11 UNL     1      14.093   1.402  18.780  1.00  0.00     0.002 A
HETATM   27  C12 UNL     1      13.545   1.634  20.024  1.00  0.00     0.031 A
HETATM   28  N4  UNL     1      11.708   1.440  21.608  1.00  0.00    -0.189 N
ATOM     29  H4  UNL     1      12.306   1.943  22.264  1.00  0.00     0.184 HD
ENDBRANCH   1  16
TORSDOF 3
ENDMDL