MODEL 1
REMARK VINA RESULT: -8.879366389      0.000      0.000
REMARK  5 active torsions:
REMARK  status: ('A' for Active; 'I' for Inactive)
REMARK    1  A    between atoms: C1_2  and  N1_3
REMARK    2  A    between atoms: C1_2  and  N6_14
REMARK    3  A    between atoms: N1_3  and  C2_5
REMARK    4  A    between atoms: N6_14  and  C3_16
REMARK    5  A    between atoms: C4_19  and  C5_20
ROOT
HETATM    1  C3  UNL     1      11.616   0.742  21.336  1.00  0.00     0.121 A
HETATM    2  N7  UNL     1      11.294   1.469  22.465  1.00  0.00    -0.327 N
ATOM      3  H7  UNL     1      10.599   1.098  23.112  1.00  0.00     0.169 HD
HETATM    4  C4  UNL     1      11.866   2.641  22.733  1.00  0.00     0.117 A
HETATM    5  N9  UNL     1      12.773   3.106  21.871  1.00  0.00    -0.341 N
ATOM      6  H9  UNL     1      13.205   4.005  22.085  1.00  0.00     0.167 HD
HETATM    7  C10 UNL     1      13.163   2.487  20.745  1.00  0.00     0.047 A
HETATM    8  C11 UNL     1      14.112   3.031  19.895  1.00  0.00     0.030 A
HETATM    9  C12 UNL     1      14.476   2.364  18.759  1.00  0.00     0.002 A
HETATM   10  C13 UNL     1      13.897   1.154  18.468  1.00  0.00     0.001 A
HETATM   11  C14 UNL     1      12.944   0.621  19.334  1.00  0.00     0.017 A
HETATM   12  C15 UNL     1      12.559   1.273  20.483  1.00  0.00     0.035 A
ENDROOT
BRANCH   1  13
HETATM   13  N6  UNL     1      11.031  -0.316  21.191  1.00  0.00    -0.318 N
ATOM     14  H6  UNL     1      11.749  -1.022  21.358  1.00  0.00     0.170 HD
BRANCH  13  15
HETATM   15  C1  UNL     1       9.933  -1.023  20.925  1.00  0.00     0.192 C
HETATM   16  S1  UNL     1       9.536  -2.444  21.675  1.00  0.00    -0.040 SA
BRANCH  15  17
HETATM   17  N1  UNL     1       8.981  -0.591  19.945  1.00  0.00    -0.163 N
ATOM     18  H1  UNL     1       9.005  -0.933  18.984  1.00  0.00     0.186 HD
BRANCH  17  19
HETATM   19  C2  UNL     1       8.085   0.263  20.347  1.00  0.00     0.716 A
HETATM   20  N2  UNL     1       6.805  -0.010  20.677  1.00  0.00    -0.115 N
HETATM   21  N3  UNL     1       6.253   1.118  21.022  1.00  0.00    -0.213 N
ATOM     22  H2  UNL     1       6.355  -0.925  20.659  1.00  0.00     0.207 HD
HETATM   23  N4  UNL     1       7.100   2.122  20.938  1.00  0.00    -0.213 N
ATOM     24  H3  UNL     1       5.283   1.213  21.321  1.00  0.00     0.210 HD
HETATM   25  N5  UNL     1       8.227   1.587  20.521  1.00  0.00    -0.115 N
ATOM     26  H4  UNL     1       6.921   3.104  21.150  1.00  0.00     0.210 HD
ATOM     27  H5  UNL     1       9.089   2.104  20.353  1.00  0.00     0.207 HD
ENDBRANCH  17  19
ENDBRANCH  15  17
ENDBRANCH  13  15
ENDBRANCH   1  13
BRANCH   4  28
HETATM   28  C5  UNL     1      11.535   3.432  23.938  1.00  0.00     0.011 A
HETATM   29  C6  UNL     1      12.157   4.592  24.265  1.00  0.00     0.032 A
HETATM   30  C7  UNL     1      11.758   5.246  25.424  1.00  0.00     0.088 A
HETATM   31  N8  UNL     1      10.785   4.772  26.225  1.00  0.00    -0.375 N
HETATM   32  C8  UNL     1      10.153   3.633  25.929  1.00  0.00     0.088 A
ATOM     33  H8  UNL     1      10.527   5.288  27.065  1.00  0.00     0.164 HD
HETATM   34  C9  UNL     1      10.536   2.971  24.785  1.00  0.00     0.032 A
ENDBRANCH   4  28
TORSDOF 5
ENDMDL