MODEL 5
REMARK VINA RESULT: -7.990571317      3.006      3.233
REMARK  1 active torsions:
REMARK  status: ('A' for Active; 'I' for Inactive)
REMARK    1  A    between atoms: C4_5  and  N2_6
ROOT
HETATM    1  N2  UNL     1      12.601   3.471  22.069  1.00  0.00    -0.321 N
HETATM    2  C5  UNL     1      13.344   4.526  21.711  1.00  0.00     0.098 A
HETATM    3  C6  UNL     1      13.904   4.319  20.469  1.00  0.00     0.031 A
HETATM    4  C7  UNL     1      13.497   3.092  20.037  1.00  0.00    -0.005 A
HETATM    5  C8  UNL     1      13.729   2.361  18.898  1.00  0.00     0.044 A
HETATM    6  C9  UNL     1      13.157   1.127  18.770  1.00  0.00     0.048 A
HETATM    7  C10 UNL     1      12.349   0.614  19.773  1.00  0.00     0.022 A
HETATM    8  C11 UNL     1      12.119   1.348  20.910  1.00  0.00     0.047 A
HETATM    9  C12 UNL     1      12.684   2.591  21.064  1.00  0.00     0.050 A
HETATM   10  C13 UNL     1      11.654  -0.677  19.813  1.00  0.00     0.077 A
HETATM   11  N3  UNL     1      10.860  -0.725  20.881  1.00  0.00    -0.306 N
ATOM     12  H3  UNL     1      10.794   0.057  21.531  1.00  0.00     0.171 HD
HETATM   13  C14 UNL     1      10.141  -1.863  21.064  1.00  0.00     0.324 A
HETATM   14  O1  UNL     1       9.376  -1.928  22.079  1.00  0.00    -0.247 OA
HETATM   15  N4  UNL     1      10.242  -2.885  20.196  1.00  0.00    -0.317 N
ATOM     16  H4  UNL     1       9.687  -3.723  20.367  1.00  0.00     0.170 HD
HETATM   17  C15 UNL     1      11.041  -2.856  19.111  1.00  0.00     0.124 A
HETATM   18  C16 UNL     1      11.783  -1.712  18.898  1.00  0.00     0.078 A
HETATM   19  N5  UNL     1      12.595  -1.764  17.734  1.00  0.00    -0.327 N
ATOM     20  H5  UNL     1      12.616  -2.677  17.279  1.00  0.00     0.168 HD
HETATM   21  C17 UNL     1      13.315  -0.861  17.147  1.00  0.00     0.193 C
HETATM   22  N6  UNL     1      14.018  -1.252  15.980  1.00  0.00    -0.063 NA
HETATM   23  N7  UNL     1      13.493   0.502  17.536  1.00  0.00    -0.330 N
ATOM     24  H7  UNL     1      13.919   1.108  16.836  1.00  0.00     0.168 HD
ENDROOT
BRANCH   1  25
HETATM   25  C4  UNL     1      11.866   3.323  23.294  1.00  0.00     0.041 A
HETATM   26  C3  UNL     1      10.876   2.393  23.428  1.00  0.00     0.047 A
HETATM   27  C2  UNL     1      10.177   2.261  24.604  1.00  0.00     0.092 A
HETATM   28  N1  UNL     1      10.432   3.035  25.675  1.00  0.00    -0.371 N
HETATM   29  C1  UNL     1       9.682   2.885  26.922  1.00  0.00     0.154 C
HETATM   30  C19 UNL     1      11.406   3.945  25.531  1.00  0.00     0.092 A
HETATM   31  C18 UNL     1      12.138   4.126  24.387  1.00  0.00     0.047 A
ENDBRANCH   1  25
TORSDOF 1
ENDMDL