MODEL 4
REMARK VINA RESULT: -6.638131605      1.924      2.488
REMARK  6 active torsions:
REMARK  status: ('A' for Active; 'I' for Inactive)
REMARK    1  A    between atoms: C2_4  and  C3_5
REMARK    2  A    between atoms: C3_5  and  O1_7
REMARK    3  A    between atoms: C3_5  and  C5_9
REMARK    4  A    between atoms: C5_9  and  C6_10
REMARK    5  A    between atoms: C6_10  and  C7_11
REMARK    6  A    between atoms: N4_17  and  C9_19
ROOT
HETATM    1  C6  UNL     1       9.970   1.178  22.618  1.00  0.00    -0.018 C
ENDROOT
BRANCH   1   2
HETATM    2  C5  UNL     1       9.961   0.344  21.734  1.00  0.00    -0.057 C
BRANCH   2   3
HETATM    3  C3  UNL     1       9.968  -0.662  20.676  1.00  0.00     0.148 C
HETATM    4  C4  UNL     1       9.138  -0.252  19.493  1.00  0.00     0.063 C
BRANCH   3   5
HETATM    5  C2  UNL     1      11.410  -0.865  20.260  1.00  0.00     0.214 C
HETATM    6  S1  UNL     1      11.359  -2.035  18.843  1.00  0.00    -0.021 SA
HETATM    7  N1  UNL     1      12.271  -1.015  17.707  1.00  0.00    -0.300 N
HETATM    8  C1  UNL     1      12.479  -1.300  16.306  1.00  0.00     0.167 C
HETATM    9  C13 UNL     1      12.706   0.077  18.499  1.00  0.00     0.180 C
HETATM   10  N5  UNL     1      11.931   0.323  19.629  1.00  0.00    -0.348 N
HETATM   11  S2  UNL     1      14.041   0.958  18.060  1.00  0.00    -0.040 SA
ATOM     12  H5  UNL     1      11.747   1.263  19.980  1.00  0.00     0.163 HD
ENDBRANCH   3   5
BRANCH   3  13
HETATM   13  O1  UNL     1       9.474  -1.887  21.143  1.00  0.00    -0.375 OA
ATOM     14  H1  UNL     1       8.532  -1.806  21.242  1.00  0.00     0.212 HD
ENDBRANCH   3  13
ENDBRANCH   2   3
ENDBRANCH   1   2
BRANCH   1  15
HETATM   15  C7  UNL     1       9.998   2.166  23.672  1.00  0.00     0.222 A
HETATM   16  N2  UNL     1      10.216   1.984  24.986  1.00  0.00    -0.269 N
HETATM   17  N3  UNL     1      10.159   3.149  25.617  1.00  0.00    -0.263 N
ATOM     18  H2  UNL     1      10.398   1.085  25.431  1.00  0.00     0.190 HD
HETATM   19  C8  UNL     1       9.901   4.065  24.669  1.00  0.00     0.242 A
ATOM     20  H3  UNL     1      10.284   3.316  26.615  1.00  0.00     0.190 HD
HETATM   21  N4  UNL     1       9.771   5.318  24.880  1.00  0.00    -0.347 N
HETATM   22  O2  UNL     1       9.809   3.431  23.499  1.00  0.00    -0.252 OA
ATOM     23  H4  UNL     1       9.575   5.900  24.065  1.00  0.00     0.163 HD
BRANCH  21  24
HETATM   24  C9  UNL     1       9.870   5.992  26.134  1.00  0.00     0.022 C
HETATM   25  C10 UNL     1       9.795   7.501  25.862  1.00  0.00     0.037 C
HETATM   26  C11 UNL     1       8.726   5.635  27.064  1.00  0.00     0.037 C
HETATM   27  C12 UNL     1      11.160   5.731  26.857  1.00  0.00     0.037 C
ENDBRANCH  21  24
ENDBRANCH   1  15
TORSDOF 6
ENDMDL