MODEL 4
REMARK VINA RESULT: -8.329221890      2.526      6.685
REMARK  2 active torsions:
REMARK  status: ('A' for Active; 'I' for Inactive)
REMARK    1  A    between atoms: C4_4  and  N1_5
REMARK    2  A    between atoms: N1_5  and  C5_7
ROOT
HETATM    1  C1  UNL     1       9.813   1.877  23.689  1.00  0.00     0.018 C
HETATM    2  C2  UNL     1      10.416   1.516  22.715  1.00  0.00    -0.070 C
HETATM    3  C3  UNL     1      11.134   1.068  21.559  1.00  0.00     0.112 A
HETATM    4  C4  UNL     1      11.976   1.911  20.876  1.00  0.00     0.070 A
HETATM    5  C11 UNL     1      12.638   1.419  19.772  1.00  0.00     0.019 A
HETATM    6  C12 UNL     1      13.500   2.245  19.055  1.00  0.00     0.016 A
HETATM    7  C13 UNL     1      14.162   1.758  17.952  1.00  0.00     0.001 A
HETATM    8  C14 UNL     1      13.962   0.450  17.569  1.00  0.00     0.002 A
HETATM    9  C15 UNL     1      13.104  -0.379  18.279  1.00  0.00     0.031 A
HETATM   10  C16 UNL     1      12.437   0.102  19.385  1.00  0.00     0.049 A
HETATM   11  N7  UNL     1      11.616  -0.725  20.048  1.00  0.00    -0.317 N
HETATM   12  C17 UNL     1      11.434  -2.113  19.602  1.00  0.00     0.159 C
HETATM   13  C18 UNL     1      10.975  -0.231  21.126  1.00  0.00     0.268 A
HETATM   14  O1  UNL     1      10.199  -1.035  21.743  1.00  0.00    -0.266 OA
ENDROOT
BRANCH   4  15
HETATM   15  N1  UNL     1      12.177   3.269  21.282  1.00  0.00    -0.339 N
ATOM     16  H1  UNL     1      12.949   3.504  21.905  1.00  0.00     0.167 HD
BRANCH  15  17
HETATM   17  C5  UNL     1      11.380   4.199  20.861  1.00  0.00     0.124 A
HETATM   18  N2  UNL     1      10.983   4.235  19.576  1.00  0.00    -0.338 N
HETATM   19  C6  UNL     1      10.156   5.232  19.218  1.00  0.00     0.183 A
ATOM     20  H2  UNL     1      11.297   3.535  18.903  1.00  0.00     0.168 HD
HETATM   21  N3  UNL     1       9.724   6.174  20.087  1.00  0.00    -0.337 N
HETATM   22  C7  UNL     1      10.108   6.157  21.377  1.00  0.00     0.138 A
ATOM     23  H3  UNL     1       9.097   6.908  19.760  1.00  0.00     0.168 HD
HETATM   24  N4  UNL     1       9.866   6.920  22.457  1.00  0.00    -0.283 N
HETATM   25  C10 UNL     1      10.962   5.143  21.786  1.00  0.00     0.098 A
HETATM   26  N5  UNL     1      10.524   6.420  23.477  1.00  0.00    -0.283 N
ATOM     27  H4  UNL     1       9.272   7.749  22.480  1.00  0.00     0.188 HD
HETATM   28  C8  UNL     1      11.217   5.326  23.128  1.00  0.00     0.133 A
ATOM     29  H5  UNL     1      10.510   6.814  24.419  1.00  0.00     0.188 HD
HETATM   30  N6  UNL     1      11.974   4.560  23.828  1.00  0.00    -0.379 N
HETATM   31  C9  UNL     1      12.253   4.730  25.218  1.00  0.00     0.147 C
ATOM     32  H6  UNL     1      12.410   3.770  23.355  1.00  0.00     0.160 HD
ENDBRANCH  15  17
ENDBRANCH   4  15
TORSDOF 2
ENDMDL