MODEL 5
REMARK VINA RESULT: -9.926295479      2.017      2.761
REMARK  4 active torsions:
REMARK  status: ('A' for Active; 'I' for Inactive)
REMARK    1  A    between atoms: C2_3  and  C3_4
REMARK    2  A    between atoms: C3_4  and  C4_5
REMARK    3  A    between atoms: C11_16  and  N3_17
REMARK    4  A    between atoms: N3_17  and  C12_19
ROOT
HETATM    1  O1  UNL     1      11.054   2.115  18.384  1.00  0.00    -0.263 OA
HETATM    2  C1  UNL     1      12.022   2.444  19.118  1.00  0.00     0.310 A
HETATM    3  C2  UNL     1      13.355   2.075  19.029  1.00  0.00     0.120 A
HETATM    4  N1  UNL     1      14.051   2.654  20.013  1.00  0.00    -0.184 N
ATOM      5  H1  UNL     1      15.051   2.563  20.193  1.00  0.00     0.184 HD
HETATM    6  C10 UNL     1      13.161   3.388  20.723  1.00  0.00     0.722 A
HETATM    7  N2  UNL     1      13.003   4.212  21.775  1.00  0.00    -0.019 N
ATOM      8  H2  UNL     1      13.757   4.507  22.396  1.00  0.00     0.203 HD
HETATM    9  C11 UNL     1      11.721   4.596  21.900  1.00  0.00     0.713 A
HETATM   10  N6  UNL     1      11.063   3.992  20.894  1.00  0.00    -0.107 N
ATOM     11  H6  UNL     1      10.064   4.076  20.704  1.00  0.00     0.207 HD
HETATM   12  N7  UNL     1      11.936   3.261  20.183  1.00  0.00    -0.031 N
ENDROOT
BRANCH   9  13
HETATM   13  N3  UNL     1      11.226   5.393  22.814  1.00  0.00    -0.190 N
ATOM     14  H3  UNL     1      10.805   6.282  22.545  1.00  0.00     0.184 HD
BRANCH  13  15
HETATM   15  C12 UNL     1      11.277   5.019  24.163  1.00  0.00     0.050 A
HETATM   16  C13 UNL     1      12.061   5.751  25.030  1.00  0.00     0.032 A
HETATM   17  C14 UNL     1      12.111   5.389  26.340  1.00  0.00     0.034 A
HETATM   18  C15 UNL     1      11.395   4.308  26.810  1.00  0.00     0.059 A
HETATM   19  N4  UNL     1      11.278   3.755  28.033  1.00  0.00    -0.300 N
HETATM   20  C17 UNL     1      10.619   3.589  25.929  1.00  0.00     0.011 A
HETATM   21  N5  UNL     1      10.462   2.734  27.921  1.00  0.00    -0.311 N
ATOM     22  H4  UNL     1      11.738   4.073  28.887  1.00  0.00     0.187 HD
HETATM   23  C16 UNL     1      10.028   2.578  26.674  1.00  0.00     0.120 A
ATOM     24  H5  UNL     1      10.194   2.131  28.699  1.00  0.00     0.186 HD
HETATM   25  C18 UNL     1      10.536   3.922  24.579  1.00  0.00     0.045 A
ENDBRANCH  13  15
ENDBRANCH   9  13
BRANCH   3  26
HETATM   26  C3  UNL     1      13.815   1.271  18.097  1.00  0.00     0.047 C
BRANCH  26  27
HETATM   27  C4  UNL     1      13.794  -0.187  18.236  1.00  0.00    -0.034 A
HETATM   28  C5  UNL     1      14.356  -0.956  17.253  1.00  0.00     0.011 A
HETATM   29  C6  UNL     1      14.370  -2.352  17.324  1.00  0.00     0.001 A
HETATM   30  C7  UNL     1      13.799  -2.947  18.420  1.00  0.00     0.000 A
HETATM   31  C8  UNL     1      13.220  -2.216  19.438  1.00  0.00     0.001 A
HETATM   32  C9  UNL     1      13.231  -0.826  19.320  1.00  0.00     0.011 A
ENDBRANCH  26  27
ENDBRANCH   3  26
TORSDOF 4
ENDMDL