MODEL 3
REMARK VINA RESULT: -8.987116122      2.788      7.986
REMARK  1 active torsions:
REMARK  status: ('A' for Active; 'I' for Inactive)
REMARK       I    between atoms: C2_4  and  N2_5
REMARK       I    between atoms: C2_4  and  N8_31
REMARK    1  A    between atoms: C6_14  and  C7_15
ROOT
HETATM    1  C1  UNL     1       7.155   9.762  25.597  1.00  0.00     0.165 C
HETATM    2  N1  UNL     1       7.875   8.566  25.950  1.00  0.00    -0.230 N
ATOM      3  H1  UNL     1       8.885   8.619  26.086  1.00  0.00     0.177 HD
HETATM    4  C2  UNL     1       7.274   7.409  26.104  1.00  0.00     0.688 C
HETATM    5  N2  UNL     1       8.003   6.247  26.451  1.00  0.00    -0.174 N
ATOM      6  H2  UNL     1       7.933   5.883  27.401  1.00  0.00     0.186 HD
HETATM    7  C3  UNL     1       8.754   5.635  25.601  1.00  0.00     0.151 A
HETATM    8  N3  UNL     1       8.894   6.054  24.334  1.00  0.00    -0.326 N
ATOM      9  H3  UNL     1       8.383   6.886  24.040  1.00  0.00     0.169 HD
HETATM   10  C4  UNL     1       9.677   5.429  23.429  1.00  0.00     0.119 A
HETATM   11  N4  UNL     1       9.804   5.865  22.165  1.00  0.00    -0.351 N
ATOM     12  H4  UNL     1       9.287   6.699  21.889  1.00  0.00     0.166 HD
HETATM   13  C5  UNL     1      10.577   5.262  21.241  1.00  0.00     0.102 A
HETATM   14  C6  UNL     1      11.294   4.135  21.564  1.00  0.00    -0.008 A
HETATM   15  C12 UNL     1      11.193   3.653  22.847  1.00  0.00     0.031 A
HETATM   16  C13 UNL     1      10.385   4.296  23.788  1.00  0.00     0.038 A
HETATM   17  C14 UNL     1      10.278   3.828  25.063  1.00  0.00     0.078 A
HETATM   18  N6  UNL     1      10.838   2.772  25.679  1.00  0.00    -0.350 N
ATOM     19  H6  UNL     1      11.482   2.101  25.260  1.00  0.00     0.166 HD
HETATM   20  C15 UNL     1      10.394   2.761  26.950  1.00  0.00     0.181 A
HETATM   21  N7  UNL     1       9.554   3.824  27.113  1.00  0.00    -0.347 N
ATOM     22  H7  UNL     1       9.070   4.063  27.979  1.00  0.00     0.167 HD
HETATM   23  C16 UNL     1       9.460   4.504  25.963  1.00  0.00     0.106 A
HETATM   24  N8  UNL     1       5.870   7.294  25.927  1.00  0.00    -0.126 N
ATOM     25  H8  UNL     1       5.231   7.964  26.354  1.00  0.00     0.197 HD
HETATM   26  C17 UNL     1       5.389   6.235  25.150  1.00  0.00     0.196 C
HETATM   27  N9  UNL     1       4.980   5.364  24.488  1.00  0.00    -0.171 NA
ENDROOT
BRANCH  14  28
HETATM   28  C7  UNL     1      12.137   3.452  20.604  1.00  0.00    -0.009 A
HETATM   29  C8  UNL     1      13.447   3.096  20.871  1.00  0.00     0.015 A
HETATM   30  C9  UNL     1      14.218   2.445  19.929  1.00  0.00     0.018 A
HETATM   31  C10 UNL     1      13.695   2.133  18.690  1.00  0.00     0.087 A
HETATM   32  N5  UNL     1      12.429   2.482  18.439  1.00  0.00    -0.374 N
HETATM   33  C11 UNL     1      11.674   3.109  19.337  1.00  0.00     0.100 A
ATOM     34  H5  UNL     1      12.028   2.259  17.528  1.00  0.00     0.164 HD
ENDBRANCH  14  28
TORSDOF 1
ENDMDL