MODEL 4
REMARK VINA RESULT: -5.551918851      4.495      6.373
REMARK  5 active torsions:
REMARK  status: ('A' for Active; 'I' for Inactive)
REMARK    1  A    between atoms: C3_3  and  C4_4
REMARK    2  A    between atoms: C7_7  and  O1_8
REMARK    3  A    between atoms: C8_10  and  O2_11
REMARK    4  A    between atoms: C10_14  and  O3_15
REMARK    5  A    between atoms: C11_17  and  O4_18
ROOT
HETATM    1  C4  UNL     1     104.951  18.470  14.101  1.00  0.00     0.011 C
HETATM    2  C5  UNL     1     104.372  17.303  14.814  1.00  0.00     0.018 C
HETATM    3  C6  UNL     1     102.910  17.485  14.602  1.00  0.00     0.054 C
HETATM    4  C7  UNL     1     102.008  16.846  15.582  1.00  0.00     0.154 C
HETATM    5  C8  UNL     1     100.606  17.071  15.054  1.00  0.00     0.149 C
HETATM    6  C9  UNL     1     100.408  18.313  14.297  1.00  0.00     0.069 C
HETATM    7  C10 UNL     1     101.382  19.413  14.479  1.00  0.00     0.155 C
HETATM    8  C11 UNL     1     102.770  18.990  14.853  1.00  0.00     0.090 C
HETATM    9  C12 UNL     1     103.839  19.514  13.966  1.00  0.00     0.049 C
ENDROOT
BRANCH   1  10
HETATM   10  C3  UNL     1     105.468  18.232  12.750  1.00  0.00    -0.026 C
HETATM   11  C2  UNL     1     105.997  19.090  11.919  1.00  0.00    -0.035 C
HETATM   12  C1  UNL     1     106.465  18.637  10.580  1.00  0.00     0.036 C
ENDBRANCH   1  10
BRANCH   8  13
HETATM   13  O4  UNL     1     103.017  19.354  16.144  1.00  0.00    -0.387 OA
ATOM     14  H4  UNL     1     103.870  19.750  16.271  1.00  0.00     0.210 HD
ENDBRANCH   8  13
BRANCH   4  15
HETATM   15  O1  UNL     1     102.214  15.478  15.733  1.00  0.00    -0.393 OA
ATOM     16  H1  UNL     1     101.922  15.133  16.569  1.00  0.00     0.210 HD
ENDBRANCH   4  15
BRANCH   7  17
HETATM   17  O3  UNL     1     100.912  20.344  15.409  1.00  0.00    -0.392 OA
ATOM     18  H3  UNL     1     101.127  20.075  16.294  1.00  0.00     0.210 HD
ENDBRANCH   7  17
BRANCH   5  19
HETATM   19  O2  UNL     1      99.701  16.912  16.123  1.00  0.00    -0.393 OA
ATOM     20  H2  UNL     1     100.142  16.437  16.817  1.00  0.00     0.210 HD
ENDBRANCH   5  19
TORSDOF 5
ENDMDL