MODEL 5
REMARK VINA RESULT: -5.155287694      1.795      3.326
REMARK  6 active torsions:
REMARK  status: ('A' for Active; 'I' for Inactive)
REMARK    1  A    between atoms: C8_8  and  C9_9
REMARK    2  A    between atoms: C9_9  and  O1_10
REMARK    3  A    between atoms: C10_12  and  O2_13
REMARK    4  A    between atoms: C11_15  and  C12_16
REMARK    5  A    between atoms: C12_16  and  O3_17
REMARK    6  A    between atoms: C13_19  and  O4_20
ROOT
HETATM    1  C1  UNL     1      99.695  19.469  14.476  1.00  0.00     0.017 C
HETATM    2  C2  UNL     1     100.754  18.697  14.307  1.00  0.00    -0.060 C
HETATM    3  C3  UNL     1     101.841  19.374  13.519  1.00  0.00     0.041 C
HETATM    4  C4  UNL     1     103.085  19.424  14.343  1.00  0.00    -0.003 C
HETATM    5  C5  UNL     1     102.754  19.070  15.767  1.00  0.00     0.011 C
HETATM    6  C6  UNL     1     102.969  17.611  15.881  1.00  0.00     0.009 A
HETATM    7  C7  UNL     1     103.908  17.214  14.787  1.00  0.00     0.027 A
HETATM    8  C8  UNL     1     104.045  18.380  13.841  1.00  0.00     0.020 C
HETATM    9  C10 UNL     1     102.847  16.250  14.282  1.00  0.00     0.137 A
HETATM   10  C11 UNL     1     101.908  16.729  15.361  1.00  0.00     0.041 A
HETATM   11  C13 UNL     1     100.654  17.373  14.907  1.00  0.00     0.160 C
ENDROOT
BRANCH   8  12
HETATM   12  C9  UNL     1     105.459  18.948  13.836  1.00  0.00     0.169 C
BRANCH  12  13
HETATM   13  O1  UNL     1     106.403  17.944  14.044  1.00  0.00    -0.400 OA
ATOM     14  H1  UNL     1     106.883  18.089  14.851  1.00  0.00     0.209 HD
ENDBRANCH  12  13
ENDBRANCH   8  12
BRANCH   9  15
HETATM   15  O2  UNL     1     103.296  14.957  14.346  1.00  0.00    -0.394 OA
ATOM     16  H2  UNL     1     103.817  14.743  13.581  1.00  0.00     0.210 HD
ENDBRANCH   9  15
BRANCH  10  17
HETATM   17  C12 UNL     1     101.580  15.595  16.308  1.00  0.00     0.179 C
BRANCH  17  18
HETATM   18  O3  UNL     1     101.354  15.989  17.606  1.00  0.00    -0.400 OA
ATOM     19  H3  UNL     1     101.251  15.271  18.220  1.00  0.00     0.209 HD
ENDBRANCH  17  18
ENDBRANCH  10  17
BRANCH  11  20
HETATM   20  O4  UNL     1      99.759  17.430  15.976  1.00  0.00    -0.390 OA
ATOM     21  H4  UNL     1     100.186  17.084  16.752  1.00  0.00     0.210 HD
ENDBRANCH  11  20
TORSDOF 6
ENDMDL