MODEL 3
REMARK VINA RESULT: -5.661289744      2.510      3.614
REMARK  4 active torsions:
REMARK  status: ('A' for Active; 'I' for Inactive)
REMARK    1  A    between atoms: O1_1  and  C1_3
REMARK    2  A    between atoms: C4_9  and  C5_10
REMARK    3  A    between atoms: C11_16  and  O2_17
REMARK    4  A    between atoms: C12_19  and  O3_20
ROOT
HETATM    1  C1  UNL     1     104.714  17.410  19.630  1.00  0.00     0.150 C
HETATM    2  C2  UNL     1     106.045  17.831  19.158  1.00  0.00     0.062 C
HETATM    3  C3  UNL     1     106.071  18.238  17.699  1.00  0.00     0.235 C
HETATM    4  N1  UNL     1     105.367  17.327  16.873  1.00  0.00    -0.068 N
ATOM      5  H11 UNL     1     105.812  16.409  16.875  1.00  0.00     0.277 HD
ATOM      6  H12 UNL     1     105.480  17.561  15.887  1.00  0.00     0.277 HD
HETATM    7  C4  UNL     1     103.939  17.225  17.235  1.00  0.00     0.223 C
HETATM    8  C12 UNL     1     103.859  16.664  18.636  1.00  0.00     0.178 C
ENDROOT
BRANCH   7   9
HETATM    9  C5  UNL     1     103.377  16.307  16.244  1.00  0.00     0.054 C
HETATM   10  C6  UNL     1     102.042  15.666  16.532  1.00  0.00     0.010 C
HETATM   11  C7  UNL     1     100.848  16.537  16.227  1.00  0.00     0.001 C
HETATM   12  C8  UNL     1     101.002  17.194  14.848  1.00  0.00     0.008 C
HETATM   13  C9  UNL     1     102.268  17.925  14.911  1.00  0.00     0.023 A
HETATM   14  C10 UNL     1     103.453  17.943  14.140  1.00  0.00     0.046 A
HETATM   15  C11 UNL     1     103.296  16.737  14.840  1.00  0.00     0.068 A
BRANCH  15  16
HETATM   16  O2  UNL     1     102.889  15.629  14.042  1.00  0.00    -0.389 OA
ATOM     17  H2  UNL     1     103.212  14.830  14.440  1.00  0.00     0.210 HD
ENDBRANCH  15  16
ENDBRANCH   7   9
BRANCH   8  18
HETATM   18  O3  UNL     1     102.547  16.859  19.138  1.00  0.00    -0.391 OA
ATOM     19  H3  UNL     1     102.182  15.982  19.121  1.00  0.00     0.210 HD
ENDBRANCH   8  18
BRANCH   1  20
HETATM   20  O1  UNL     1     104.863  16.585  20.757  1.00  0.00    -0.393 OA
ATOM     21  H1  UNL     1     105.631  16.037  20.643  1.00  0.00     0.210 HD
ENDBRANCH   1  20
TORSDOF 4
ENDMDL