MODEL 2
REMARK VINA RESULT: -5.940372861      1.647      2.464
REMARK  6 active torsions:
REMARK  status: ('A' for Active; 'I' for Inactive)
REMARK    1  A    between atoms: C2_2  and  C3_3
REMARK    2  A    between atoms: C5_5  and  O1_6
REMARK    3  A    between atoms: C5_5  and  C6_8
REMARK    4  A    between atoms: C10_12  and  O2_13
REMARK    5  A    between atoms: C11_15  and  O3_16
REMARK    6  A    between atoms: C12_18  and  O4_19
ROOT
HETATM    1  C3  UNL     1     103.783  17.300  18.186  1.00  0.00     0.041 C
HETATM    2  C4  UNL     1     104.658  17.235  16.955  1.00  0.00     0.052 C
HETATM    3  C5  UNL     1     103.842  17.865  15.821  1.00  0.00     0.093 C
HETATM    4  C10 UNL     1     102.425  17.465  15.826  1.00  0.00     0.184 C
HETATM    5  C11 UNL     1     102.049  16.318  16.705  1.00  0.00     0.179 C
HETATM    6  C12 UNL     1     102.740  16.250  18.012  1.00  0.00     0.157 C
ENDROOT
BRANCH   3   7
HETATM    7  O1  UNL     1     103.931  19.247  16.114  1.00  0.00    -0.386 OA
ATOM      8  H1  UNL     1     104.457  19.575  15.394  1.00  0.00     0.210 HD
ENDBRANCH   3   7
BRANCH   3   9
HETATM    9  C6  UNL     1     104.563  17.735  14.514  1.00  0.00    -0.018 C
HETATM   10  C7  UNL     1     104.650  16.376  13.944  1.00  0.00     0.018 C
HETATM   11  C8  UNL     1     106.002  18.215  14.777  1.00  0.00     0.018 C
HETATM   12  C9  UNL     1     103.997  18.689  13.486  1.00  0.00     0.018 C
ENDBRANCH   3   9
BRANCH   4  13
HETATM   13  O2  UNL     1     101.923  17.160  14.536  1.00  0.00    -0.390 OA
ATOM     14  H2  UNL     1     102.200  17.776  13.868  1.00  0.00     0.210 HD
ENDBRANCH   4  13
BRANCH   1  15
HETATM   15  C2  UNL     1     104.527  17.068  19.451  1.00  0.00    -0.030 C
HETATM   16  C1  UNL     1     105.776  17.439  19.664  1.00  0.00     0.007 C
ENDBRANCH   1  15
BRANCH   5  17
HETATM   17  O3  UNL     1     102.200  15.074  16.059  1.00  0.00    -0.390 OA
ATOM     18  H3  UNL     1     102.719  14.462  16.568  1.00  0.00     0.210 HD
ENDBRANCH   5  17
BRANCH   6  19
HETATM   19  O4  UNL     1     101.843  16.331  19.102  1.00  0.00    -0.392 OA
ATOM     20  H4  UNL     1     101.371  17.153  19.038  1.00  0.00     0.210 HD
ENDBRANCH   6  19
TORSDOF 6
ENDMDL