MODEL 5
REMARK VINA RESULT: -4.817621745      2.392      4.486
REMARK  5 active torsions:
REMARK  status: ('A' for Active; 'I' for Inactive)
REMARK    1  A    between atoms: C6_6  and  O1_7
REMARK    2  A    between atoms: C7_9  and  O2_10
REMARK    3  A    between atoms: C8_12  and  O3_13
REMARK    4  A    between atoms: C11_17  and  C12_18
REMARK    5  A    between atoms: C12_18  and  O4_19
ROOT
HETATM    1  C1  UNL     1     100.774  16.705  15.373  1.00  0.00     0.015 C
HETATM    2  C2  UNL     1     102.275  16.617  15.691  1.00  0.00    -0.043 C
HETATM    3  C3  UNL     1     102.336  15.742  16.950  1.00  0.00     0.015 C
HETATM    4  C4  UNL     1     102.944  15.983  14.529  1.00  0.00     0.012 C
HETATM    5  C5  UNL     1     104.262  16.501  14.141  1.00  0.00     0.042 C
HETATM    6  C6  UNL     1     104.537  17.932  14.376  1.00  0.00     0.092 C
HETATM    7  C7  UNL     1     105.633  18.086  15.441  1.00  0.00     0.181 C
HETATM    8  C8  UNL     1     105.173  17.650  16.786  1.00  0.00     0.150 C
HETATM    9  C9  UNL     1     103.791  17.981  17.157  1.00  0.00     0.040 C
HETATM   10  C10 UNL     1     102.784  17.983  16.045  1.00  0.00     0.005 C
HETATM   11  C11 UNL     1     103.369  18.729  14.890  1.00  0.00     0.051 C
ENDROOT
BRANCH  11  12
HETATM   12  C12 UNL     1     102.419  19.109  13.821  1.00  0.00     0.172 C
BRANCH  12  13
HETATM   13  O4  UNL     1     102.768  20.310  13.226  1.00  0.00    -0.400 OA
ATOM     14  H4  UNL     1     102.036  20.913  13.194  1.00  0.00     0.209 HD
ENDBRANCH  12  13
ENDBRANCH  11  12
BRANCH   6  15
HETATM   15  O1  UNL     1     105.017  18.603  13.247  1.00  0.00    -0.387 OA
ATOM     16  H1  UNL     1     105.547  18.058  12.677  1.00  0.00     0.210 HD
ENDBRANCH   6  15
BRANCH   7  17
HETATM   17  O2  UNL     1     106.086  19.406  15.456  1.00  0.00    -0.390 OA
ATOM     18  H2  UNL     1     106.939  19.444  15.873  1.00  0.00     0.210 HD
ENDBRANCH   7  17
BRANCH   8  19
HETATM   19  O3  UNL     1     106.035  18.273  17.724  1.00  0.00    -0.393 OA
ATOM     20  H3  UNL     1     106.921  18.125  17.413  1.00  0.00     0.210 HD
ENDBRANCH   8  19
TORSDOF 5
ENDMDL