MODEL 5
REMARK VINA RESULT: -6.004788871      2.546      3.278
REMARK  2 active torsions:
REMARK  status: ('A' for Active; 'I' for Inactive)
REMARK    1  A    between atoms: O1_1  and  C1_3
REMARK    2  A    between atoms: C7_13  and  C8_14
ROOT
HETATM    1  C1  UNL     1     103.629  17.053  16.552  1.00  0.00     0.348 C
HETATM    2  N1  UNL     1     103.003  17.928  15.555  1.00  0.00    -0.040 N
ATOM      3  H11 UNL     1     102.073  18.216  15.859  1.00  0.00     0.280 HD
ATOM      4  H12 UNL     1     102.750  17.401  14.718  1.00  0.00     0.280 HD
HETATM    5  C2  UNL     1     103.793  19.054  15.220  1.00  0.00     0.217 C
HETATM    6  C3  UNL     1     103.578  19.490  13.777  1.00  0.00     0.036 C
HETATM    7  C4  UNL     1     104.894  19.373  13.083  1.00  0.00     0.005 C
HETATM    8  C5  UNL     1     105.793  18.556  13.968  1.00  0.00     0.034 C
HETATM    9  C6  UNL     1     105.252  18.917  15.354  1.00  0.00     0.152 C
HETATM   10  O2  UNL     1     105.708  18.062  16.313  1.00  0.00    -0.374 OA
HETATM   11  C7  UNL     1     104.681  17.833  17.233  1.00  0.00     0.183 C
ENDROOT
BRANCH  11  12
HETATM   12  C8  UNL     1     105.287  17.192  18.440  1.00  0.00     0.044 C
HETATM   13  C9  UNL     1     106.677  17.631  18.747  1.00  0.00     0.010 C
HETATM   14  C10 UNL     1     106.848  18.138  20.157  1.00  0.00     0.028 C
HETATM   15  C11 UNL     1     106.177  17.303  21.187  1.00  0.00     0.232 C
HETATM   16  N2  UNL     1     105.087  16.504  20.696  1.00  0.00    -0.075 N
HETATM   17  C12 UNL     1     104.412  17.322  19.674  1.00  0.00     0.239 C
ATOM     18  H22 UNL     1     105.376  15.587  20.357  1.00  0.00     0.277 HD
ATOM     19  H21 UNL     1     104.461  16.174  21.430  1.00  0.00     0.277 HD
ENDBRANCH  11  12
BRANCH   1  20
HETATM   20  O1  UNL     1     104.107  15.950  15.843  1.00  0.00    -0.368 OA
ATOM     21  H1  UNL     1     104.300  16.267  14.969  1.00  0.00     0.212 HD
ENDBRANCH   1  20
TORSDOF 2
ENDMDL