MODEL 1
REMARK VINA RESULT: -7.076129294      0.000      0.000
REMARK  6 active torsions:
REMARK  status: ('A' for Active; 'I' for Inactive)
REMARK    1  A    between atoms: N1_1  and  C1_5
REMARK    2  A    between atoms: C1_5  and  C2_6
REMARK    3  A    between atoms: C1_5  and  C8_12
REMARK    4  A    between atoms: C10_14  and  O1_15
REMARK    5  A    between atoms: C11_17  and  O2_18
REMARK    6  A    between atoms: C12_20  and  O3_21
ROOT
HETATM    1  C8  UNL     1     106.469  17.372  21.523  1.00  0.00     0.050 C
HETATM    2  C9  UNL     1     105.326  17.408  22.474  1.00  0.00     0.043 C
HETATM    3  C10 UNL     1     105.933  17.392  23.874  1.00  0.00     0.150 C
HETATM    4  C11 UNL     1     107.417  17.548  23.725  1.00  0.00     0.176 C
HETATM    5  C12 UNL     1     107.697  17.852  22.269  1.00  0.00     0.155 C
ENDROOT
BRANCH   1   6
HETATM    6  C1  UNL     1     106.326  17.886  20.177  1.00  0.00     0.194 C
BRANCH   6   7
HETATM    7  N1  UNL     1     107.651  17.729  19.518  1.00  0.00    -0.074 N
ATOM      8  H13 UNL     1     107.611  17.215  18.638  1.00  0.00     0.274 HD
ATOM      9  H12 UNL     1     108.021  18.599  19.135  1.00  0.00     0.274 HD
ATOM     10  H11 UNL     1     108.260  17.299  20.215  1.00  0.00     0.274 HD
ENDBRANCH   6   7
BRANCH   6  11
HETATM   11  C2  UNL     1     105.343  17.465  19.196  1.00  0.00     0.016 C
HETATM   12  C3  UNL     1     105.637  17.871  17.758  1.00  0.00     0.007 C
HETATM   13  C4  UNL     1     104.288  17.907  17.024  1.00  0.00     0.000 C
HETATM   14  C5  UNL     1     103.579  16.583  17.132  1.00  0.00     0.000 C
HETATM   15  C6  UNL     1     103.463  16.064  18.522  1.00  0.00     0.000 C
HETATM   16  C7  UNL     1     104.847  16.076  19.156  1.00  0.00     0.007 C
ENDBRANCH   6  11
ENDBRANCH   1   6
BRANCH   5  17
HETATM   17  O3  UNL     1     108.835  17.083  21.924  1.00  0.00    -0.392 OA
ATOM     18  H3  UNL     1     109.338  17.507  21.239  1.00  0.00     0.210 HD
ENDBRANCH   5  17
BRANCH   3  19
HETATM   19  O1  UNL     1     105.423  18.423  24.658  1.00  0.00    -0.393 OA
ATOM     20  H1  UNL     1     104.773  18.101  25.271  1.00  0.00     0.210 HD
ENDBRANCH   3  19
BRANCH   4  21
HETATM   21  O2  UNL     1     107.925  18.617  24.469  1.00  0.00    -0.390 OA
ATOM     22  H2  UNL     1     107.682  19.462  24.109  1.00  0.00     0.210 HD
ENDBRANCH   4  21
TORSDOF 6
ENDMDL