MODEL 1
REMARK VINA RESULT: -5.868421130      0.000      0.000
REMARK  8 active torsions:
REMARK  status: ('A' for Active; 'I' for Inactive)
REMARK    1  A    between atoms: C2_2  and  C3_6
REMARK    2  A    between atoms: C3_6  and  C4_7
REMARK    3  A    between atoms: C4_7  and  C5_8
REMARK    4  A    between atoms: C7_10  and  N2_11
REMARK    5  A    between atoms: N2_11  and  N3_13
REMARK    6  A    between atoms: C8_18  and  O1_19
REMARK    7  A    between atoms: C9_21  and  O2_22
REMARK    8  A    between atoms: C10_24  and  O3_25
ROOT
HETATM    1  C5  UNL     1     104.557  18.059  16.722  1.00  0.00     0.099 C
HETATM    2  C6  UNL     1     104.298  16.690  16.198  1.00  0.00     0.049 C
HETATM    3  C7  UNL     1     103.466  16.789  14.914  1.00  0.00     0.133 C
HETATM    4  C8  UNL     1     104.230  17.540  13.842  1.00  0.00     0.173 C
HETATM    5  C9  UNL     1     105.395  18.292  14.391  1.00  0.00     0.178 C
HETATM    6  C10 UNL     1     105.109  19.004  15.683  1.00  0.00     0.165 C
ENDROOT
BRANCH   1   7
HETATM    7  C4  UNL     1     105.457  17.932  17.875  1.00  0.00    -0.092 C
BRANCH   7   8
HETATM    8  C3  UNL     1     106.205  17.846  18.835  1.00  0.00    -0.054 C
BRANCH   8   9
HETATM    9  C2  UNL     1     107.092  17.769  19.964  1.00  0.00     0.053 C
HETATM   10  C1  UNL     1     106.510  17.620  21.330  1.00  0.00     0.078 C
HETATM   11  N1  UNL     1     108.377  17.823  19.860  1.00  0.00    -0.396 N
ATOM     12  H12 UNL     1     109.006  17.768  20.661  1.00  0.00     0.156 HD
ATOM     13  H11 UNL     1     108.774  17.925  18.926  1.00  0.00     0.156 HD
ENDBRANCH   8   9
ENDBRANCH   7   8
ENDBRANCH   1   7
BRANCH   6  14
HETATM   14  O3  UNL     1     104.319  20.135  15.511  1.00  0.00    -0.392 OA
ATOM     15  H3  UNL     1     103.418  19.999  15.778  1.00  0.00     0.210 HD
ENDBRANCH   6  14
BRANCH   3  16
HETATM   16  N2  UNL     1     102.240  17.483  15.290  1.00  0.00    -0.315 N
ATOM     17  H2  UNL     1     102.287  18.465  15.560  1.00  0.00     0.182 HD
BRANCH  16  18
HETATM   18  N3  UNL     1     101.136  16.902  15.288  1.00  0.00    -0.253 N
HETATM   19  N4  UNL     1     100.005  16.686  15.762  1.00  0.00    -0.331 N
ATOM     20  H42 UNL     1      99.993  17.317  16.562  1.00  0.00     0.178 HD
ATOM     21  H41 UNL     1      99.102  16.211  15.762  1.00  0.00     0.178 HD
ATOM     22  H3  UNL     1     101.186  16.283  14.479  1.00  0.00     0.207 HD
ENDBRANCH  16  18
ENDBRANCH   3  16
BRANCH   5  23
HETATM   23  O2  UNL     1     105.848  19.225  13.473  1.00  0.00    -0.390 OA
ATOM     24  H2  UNL     1     106.004  20.061  13.897  1.00  0.00     0.210 HD
ENDBRANCH   5  23
BRANCH   4  25
HETATM   25  O1  UNL     1     104.748  16.575  12.946  1.00  0.00    -0.391 OA
ATOM     26  H1  UNL     1     105.663  16.787  12.804  1.00  0.00     0.210 HD
ENDBRANCH   4  25
TORSDOF 8
ENDMDL