MODEL 4
REMARK VINA RESULT: -6.021778572      1.661      3.673
REMARK  5 active torsions:
REMARK  status: ('A' for Active; 'I' for Inactive)
REMARK    1  A    between atoms: C2_2  and  C3_3
REMARK    2  A    between atoms: C4_4  and  O1_5
REMARK    3  A    between atoms: C5_7  and  O2_8
REMARK    4  A    between atoms: C6_10  and  O3_11
REMARK    5  A    between atoms: C7_13  and  O4_14
ROOT
HETATM    1  C3  UNL     1     104.317  17.157  18.106  1.00  0.00     0.021 C
HETATM    2  C4  UNL     1     105.243  17.626  19.166  1.00  0.00     0.154 C
HETATM    3  C5  UNL     1     106.719  17.474  18.774  1.00  0.00     0.178 C
HETATM    4  C6  UNL     1     107.213  18.710  18.044  1.00  0.00     0.178 C
HETATM    5  C7  UNL     1     106.922  18.667  16.573  1.00  0.00     0.154 C
HETATM    6  C8  UNL     1     105.407  18.531  16.413  1.00  0.00     0.021 C
HETATM    7  C9  UNL     1     104.951  18.872  15.029  1.00  0.00     0.007 C
HETATM    8  C10 UNL     1     104.408  17.576  14.461  1.00  0.00     0.001 C
HETATM    9  C11 UNL     1     103.873  16.882  15.704  1.00  0.00     0.005 C
HETATM   10  C12 UNL     1     104.964  17.141  16.730  1.00  0.00    -0.001 C
ENDROOT
BRANCH   1  11
HETATM   11  C2  UNL     1     103.625  15.860  18.383  1.00  0.00     0.003 C
HETATM   12  C1  UNL     1     102.152  15.925  18.516  1.00  0.00     0.005 C
ENDBRANCH   1  11
BRANCH   2  13
HETATM   13  O1  UNL     1     105.008  17.028  20.407  1.00  0.00    -0.393 OA
ATOM     14  H1  UNL     1     104.658  16.147  20.339  1.00  0.00     0.210 HD
ENDBRANCH   2  13
BRANCH   3  15
HETATM   15  O2  UNL     1     107.470  17.416  19.972  1.00  0.00    -0.390 OA
ATOM     16  H2  UNL     1     107.763  16.519  20.079  1.00  0.00     0.210 HD
ENDBRANCH   3  15
BRANCH   4  17
HETATM   17  O3  UNL     1     108.580  18.889  18.265  1.00  0.00    -0.390 OA
ATOM     18  H3  UNL     1     108.876  19.698  17.864  1.00  0.00     0.210 HD
ENDBRANCH   4  17
BRANCH   5  19
HETATM   19  O4  UNL     1     107.256  19.911  16.043  1.00  0.00    -0.393 OA
ATOM     20  H4  UNL     1     106.469  20.443  16.043  1.00  0.00     0.210 HD
ENDBRANCH   5  19
TORSDOF 5
ENDMDL