MODEL 2
REMARK VINA RESULT: -5.023261057      1.922      4.173
REMARK  5 active torsions:
REMARK  status: ('A' for Active; 'I' for Inactive)
REMARK    1  A    between atoms: C2_2  and  O1_3
REMARK    2  A    between atoms: C5_7  and  C6_8
REMARK    3  A    between atoms: C6_8  and  O2_9
REMARK    4  A    between atoms: C7_11  and  O3_12
REMARK    5  A    between atoms: C10_16  and  O4_17
ROOT
HETATM    1  C1  UNL     1     101.812  21.533  13.364  1.00  0.00     0.045 C
HETATM    2  C2  UNL     1     102.084  20.614  14.530  1.00  0.00     0.055 C
HETATM    3  C3  UNL     1     101.558  19.252  14.167  1.00  0.00     0.038 C
HETATM    4  C4  UNL     1     102.105  18.167  15.037  1.00  0.00     0.017 C
HETATM    5  C5  UNL     1     103.604  18.095  14.907  1.00  0.00     0.013 C
HETATM    6  C7  UNL     1     103.965  16.990  13.900  1.00  0.00     0.129 C
HETATM    7  C8  UNL     1     105.439  16.842  13.888  1.00  0.00     0.035 C
HETATM    8  C9  UNL     1     106.252  18.061  13.806  1.00  0.00     0.034 C
HETATM    9  C10 UNL     1     105.640  19.348  14.195  1.00  0.00     0.123 C
HETATM   10  C11 UNL     1     104.141  19.341  14.280  1.00  0.00     0.030 C
HETATM   11  C12 UNL     1     103.573  20.578  14.886  1.00  0.00     0.045 C
ENDROOT
BRANCH   2  12
HETATM   12  O1  UNL     1     101.407  21.128  15.631  1.00  0.00    -0.390 OA
ATOM     13  H1  UNL     1     100.607  20.625  15.734  1.00  0.00     0.210 HD
ENDBRANCH   2  12
BRANCH   5  14
HETATM   14  C6  UNL     1     104.174  17.736  16.236  1.00  0.00     0.176 C
BRANCH  14  15
HETATM   15  O2  UNL     1     103.241  17.392  17.189  1.00  0.00    -0.400 OA
ATOM     16  H2  UNL     1     102.835  18.128  17.631  1.00  0.00     0.209 HD
ENDBRANCH  14  15
ENDBRANCH   5  14
BRANCH   9  17
HETATM   17  O4  UNL     1     106.105  19.798  15.450  1.00  0.00    -0.395 OA
ATOM     18  H4  UNL     1     106.692  20.541  15.368  1.00  0.00     0.210 HD
ENDBRANCH   9  17
BRANCH   6  19
HETATM   19  O3  UNL     1     103.368  15.821  14.392  1.00  0.00    -0.395 OA
ATOM     20  H3  UNL     1     102.437  16.006  14.434  1.00  0.00     0.210 HD
ENDBRANCH   6  19
TORSDOF 5
ENDMDL