MODEL 2
REMARK VINA RESULT: -9.507851973      2.115      3.511
REMARK  4 active torsions:
REMARK  status: ('A' for Active; 'I' for Inactive)
REMARK    1  A    between atoms: C5_5  and  C6_6
REMARK    2  A    between atoms: C7_7  and  C8_8
REMARK    3  A    between atoms: C9_9  and  C10_10
REMARK    4  A    between atoms: C10_10  and  N1_12
ROOT
HETATM    1  C10 UNL     1      10.564  10.138  24.766  1.00  0.00     0.269 C
HETATM    2  C11 UNL     1      11.837   9.696  24.042  1.00  0.00     0.078 C
HETATM    3  C12 UNL     1       9.840  10.960  23.787  1.00  0.00     0.112 C
HETATM    4  N2  UNL     1       9.259  11.591  23.007  1.00  0.00    -0.194 NA
ENDROOT
BRANCH   1   5
HETATM    5  C9  UNL     1       9.775   8.958  25.122  1.00  0.00    -0.047 C
HETATM    6  C8  UNL     1       9.067   7.991  25.363  1.00  0.00    -0.063 C
BRANCH   6   7
HETATM    7  C7  UNL     1       8.146   6.864  25.591  1.00  0.00     0.026 A
HETATM    8  C6  UNL     1       8.643   5.589  25.801  1.00  0.00    -0.007 A
HETATM    9  C16 UNL     1       7.674   4.647  26.146  1.00  0.00     0.052 A
HETATM   10  C15 UNL     1       6.320   5.015  26.263  1.00  0.00     0.004 A
HETATM   11  N3  UNL     1       7.698   3.337  26.383  1.00  0.00    -0.354 N
HETATM   12  C14 UNL     1       5.908   6.304  26.037  1.00  0.00     0.016 A
HETATM   13  C22 UNL     1       5.588   3.912  26.574  1.00  0.00     0.003 A
HETATM   14  C13 UNL     1       6.834   7.243  25.695  1.00  0.00     0.022 A
HETATM   15  C17 UNL     1       6.476   2.844  26.649  1.00  0.00     0.043 A
HETATM   16  C21 UNL     1       4.259   3.678  26.827  1.00  0.00     0.014 A
HETATM   17  C18 UNL     1       6.014   1.561  26.982  1.00  0.00     0.030 A
HETATM   18  C19 UNL     1       4.676   1.346  27.232  1.00  0.00     0.002 A
HETATM   19  C20 UNL     1       3.813   2.432  27.146  1.00  0.00     0.001 A
ATOM     20  H3  UNL     1       8.547   2.772  26.364  1.00  0.00     0.166 HD
BRANCH   8  21
HETATM   21  C5  UNL     1      10.006   5.291  25.625  1.00  0.00     0.037 C
HETATM   22  C4  UNL     1      10.245   3.807  26.394  1.00  0.00     0.052 C
HETATM   23  C3  UNL     1      11.506   3.666  25.797  1.00  0.00    -0.007 C
HETATM   24  C2  UNL     1      12.419   3.174  25.201  1.00  0.00    -0.053 C
HETATM   25  C32 UNL     1      12.567   4.776  26.078  1.00  0.00     0.173 C
HETATM   26  C1  UNL     1      13.556   2.571  24.460  1.00  0.00     0.046 C
HETATM   27  C31 UNL     1      12.255   4.865  24.721  1.00  0.00     0.075 C
HETATM   28  C23 UNL     1      10.744   4.923  24.411  1.00  0.00     0.052 C
HETATM   29  C30 UNL     1      12.989   5.091  23.553  1.00  0.00     0.008 C
HETATM   30  C24 UNL     1      10.750   5.763  23.204  1.00  0.00    -0.042 A
HETATM   31  C25 UNL     1       9.759   6.403  22.502  1.00  0.00     0.008 A
HETATM   32  C29 UNL     1      12.017   5.855  22.666  1.00  0.00    -0.032 A
HETATM   33  C26 UNL     1       9.993   7.103  21.322  1.00  0.00     0.001 A
HETATM   34  C27 UNL     1      11.266   7.164  20.833  1.00  0.00     0.001 A
HETATM   35  C28 UNL     1      12.315   6.528  21.509  1.00  0.00     0.011 A
HETATM   36  O1  UNL     1      13.280   5.313  26.910  1.00  0.00    -0.291 OA
ENDBRANCH   8  21
ENDBRANCH   6   7
ENDBRANCH   1   5
BRANCH   1  37
HETATM   37  N1  UNL     1      10.892  10.857  25.946  1.00  0.00    -0.046 N
ATOM     38  H13 UNL     1      11.858  11.184  25.943  1.00  0.00     0.277 HD
ATOM     39  H12 UNL     1      10.431  11.766  25.986  1.00  0.00     0.277 HD
ATOM     40  H11 UNL     1      10.682  10.282  26.761  1.00  0.00     0.277 HD
ENDBRANCH   1  37
TORSDOF 4
ENDMDL