MODEL 2
REMARK VINA RESULT: -8.374694595      2.582      6.856
REMARK  2 active torsions:
REMARK  status: ('A' for Active; 'I' for Inactive)
REMARK    1  A    between atoms: O1_2  and  C2_3
REMARK    2  A    between atoms: C18_20  and  O3_21
ROOT
HETATM    1  C2  UNL     1       7.367   4.421  25.828  1.00  0.00     0.074 A
HETATM    2  C3  UNL     1       8.073   3.325  26.241  1.00  0.00     0.038 A
HETATM    3  C4  UNL     1       9.138   2.995  25.457  1.00  0.00     0.010 A
HETATM    4  C5  UNL     1       9.507   3.722  24.287  1.00  0.00    -0.053 A
HETATM    5  C6  UNL     1       8.776   4.822  23.899  1.00  0.00     0.017 A
HETATM    6  C7  UNL     1       7.696   5.180  24.669  1.00  0.00    -0.024 A
HETATM    7  C8  UNL     1       6.726   6.296  24.538  1.00  0.00     0.046 C
HETATM    8  C9  UNL     1       6.972   7.480  25.457  1.00  0.00     0.043 C
HETATM    9  C10 UNL     1       8.058   8.397  24.975  1.00  0.00    -0.055 A
HETATM   10  C11 UNL     1       7.645   8.931  23.710  1.00  0.00     0.007 A
HETATM   11  C12 UNL     1       8.382   9.841  23.023  1.00  0.00     0.003 A
HETATM   12  C13 UNL     1       9.554  10.234  23.598  1.00  0.00     0.037 A
HETATM   13  C14 UNL     1      10.019   9.745  24.845  1.00  0.00     0.076 A
HETATM   14  C15 UNL     1       9.228   8.795  25.534  1.00  0.00     0.044 A
HETATM   15  O2  UNL     1      11.199  10.293  25.202  1.00  0.00    -0.310 OA
HETATM   16  C16 UNL     1      12.330  10.424  25.848  1.00  0.00     0.085 A
HETATM   17  C17 UNL     1      12.532  10.281  27.220  1.00  0.00     0.074 A
HETATM   18  C18 UNL     1      13.768  10.436  27.825  1.00  0.00     0.068 A
HETATM   19  C19 UNL     1      14.856  10.741  27.080  1.00  0.00     0.037 A
HETATM   20  C20 UNL     1      14.727  10.894  25.746  1.00  0.00     0.012 A
HETATM   21  C21 UNL     1      13.505  10.742  25.138  1.00  0.00    -0.024 A
HETATM   22  C22 UNL     1      13.536  10.961  23.662  1.00  0.00     0.046 C
HETATM   23  C23 UNL     1      14.409   9.905  23.015  1.00  0.00     0.043 C
HETATM   24  C24 UNL     1      14.230   8.507  23.485  1.00  0.00    -0.057 A
HETATM   25  C25 UNL     1      15.432   7.986  23.995  1.00  0.00     0.007 A
HETATM   26  C26 UNL     1      15.581   6.727  24.522  1.00  0.00     0.001 A
HETATM   27  C27 UNL     1      14.430   5.985  24.518  1.00  0.00     0.009 A
HETATM   28  C28 UNL     1      13.202   6.456  24.021  1.00  0.00    -0.040 A
HETATM   29  C29 UNL     1      13.101   7.718  23.502  1.00  0.00     0.015 A
HETATM   30  C30 UNL     1      12.127   5.426  24.197  1.00  0.00     0.157 C
HETATM   31  N1  UNL     1      12.604   4.195  24.810  1.00  0.00    -0.398 N
ATOM     32  H1  UNL     1      13.432   4.178  25.406  1.00  0.00     0.158 HD
HETATM   33  C31 UNL     1      11.931   3.140  24.564  1.00  0.00     0.060 C
HETATM   34  C32 UNL     1      10.714   3.056  23.711  1.00  0.00     0.082 C
ENDROOT
BRANCH   1  35
HETATM   35  O1  UNL     1       6.257   4.784  26.624  1.00  0.00    -0.355 OA
HETATM   36  C1  UNL     1       6.319   4.765  28.015  1.00  0.00     0.210 C
ENDBRANCH   1  35
BRANCH  18  37
HETATM   37  O3  UNL     1      13.953  10.287  29.207  1.00  0.00    -0.361 OA
ATOM     38  H3  UNL     1      14.798  10.410  29.624  1.00  0.00     0.217 HD
ENDBRANCH  18  37
TORSDOF 2
ENDMDL