MODEL 4
REMARK VINA RESULT: -9.372611316      1.509      2.418
REMARK  1 active torsions:
REMARK  status: ('A' for Active; 'I' for Inactive)
REMARK    1  A    between atoms: C10_14  and  C11_15
ROOT
HETATM    1  C11 UNL     1       8.711   6.728  25.236  1.00  0.00     0.010 A
HETATM    2  C12 UNL     1       8.608   8.087  25.466  1.00  0.00     0.022 A
HETATM    3  C13 UNL     1       9.533   8.986  24.984  1.00  0.00    -0.060 A
HETATM    4  C14 UNL     1       9.460  10.452  25.208  1.00  0.00     0.048 C
HETATM    5  C15 UNL     1      10.577   8.479  24.255  1.00  0.00     0.021 A
HETATM    6  C16 UNL     1      10.703   7.106  24.008  1.00  0.00     0.008 A
HETATM    7  C17 UNL     1      11.762   6.621  23.273  1.00  0.00    -0.010 A
HETATM    8  C18 UNL     1      11.835   5.250  23.061  1.00  0.00     0.061 A
HETATM    9  C19 UNL     1      10.890   4.399  23.561  1.00  0.00     0.300 A
HETATM   10  O1  UNL     1      10.885   3.165  23.415  1.00  0.00    -0.259 OA
HETATM   11  O2  UNL     1       9.892   4.941  24.265  1.00  0.00    -0.273 OA
HETATM   12  C20 UNL     1       9.769   6.217  24.498  1.00  0.00     0.101 A
HETATM   13  C21 UNL     1      12.962   4.752  22.278  1.00  0.00     0.007 A
HETATM   14  C22 UNL     1      13.106   3.416  22.027  1.00  0.00     0.015 A
HETATM   15  C23 UNL     1      14.207   2.974  21.269  1.00  0.00     0.001 A
HETATM   16  C24 UNL     1      15.116   3.881  20.798  1.00  0.00     0.002 A
HETATM   17  C25 UNL     1      14.991   5.223  21.039  1.00  0.00     0.030 A
HETATM   18  C26 UNL     1      13.914   5.665  21.780  1.00  0.00     0.041 A
HETATM   19  N3  UNL     1      13.787   7.064  22.028  1.00  0.00    -0.380 N
HETATM   20  C27 UNL     1      14.793   7.966  21.485  1.00  0.00     0.150 C
HETATM   21  C28 UNL     1      12.720   7.616  22.782  1.00  0.00     0.163 A
ENDROOT
BRANCH   1  22
HETATM   22  C10 UNL     1       7.714   5.772  25.760  1.00  0.00    -0.021 A
HETATM   23  C9  UNL     1       7.699   5.370  27.059  1.00  0.00     0.042 A
HETATM   24  C8  UNL     1       6.727   4.462  27.483  1.00  0.00     0.044 A
HETATM   25  N2  UNL     1       6.460   3.890  28.676  1.00  0.00    -0.353 N
HETATM   26  C31 UNL     1       5.782   3.964  26.613  1.00  0.00     0.003 A
HETATM   27  C7  UNL     1       5.403   3.068  28.586  1.00  0.00     0.070 A
ATOM     28  H2  UNL     1       6.990   4.060  29.530  1.00  0.00     0.166 HD
HETATM   29  C2  UNL     1       4.711   2.220  29.556  1.00  0.00     0.050 A
HETATM   30  C6  UNL     1       4.929   3.083  27.268  1.00  0.00     0.007 A
HETATM   31  C1  UNL     1       5.130   2.180  30.815  1.00  0.00     0.045 C
HETATM   32  N1  UNL     1       3.596   1.455  29.127  1.00  0.00    -0.359 N
HETATM   33  C3  UNL     1       3.164   1.518  27.761  1.00  0.00     0.006 A
ATOM     34  H1  UNL     1       3.101   0.859  29.791  1.00  0.00     0.166 HD
HETATM   35  C4  UNL     1       2.007   0.709  27.361  1.00  0.00     0.068 C
HETATM   36  C5  UNL     1       3.781   2.278  26.880  1.00  0.00     0.039 A
HETATM   37  C30 UNL     1       5.790   4.371  25.286  1.00  0.00     0.015 A
HETATM   38  C29 UNL     1       6.760   5.267  24.892  1.00  0.00     0.013 A
ENDBRANCH   1  22
TORSDOF 1
ENDMDL