MODEL 5
REMARK VINA RESULT: -9.010214970      2.357      3.393
REMARK  0 active torsions:
REMARK  status: ('A' for Active; 'I' for Inactive)
ROOT
HETATM    1  C1  UNL     1       9.906   6.223  26.702  1.00  0.00     0.156 C
HETATM    2  N1  UNL     1       8.880   5.685  25.895  1.00  0.00    -0.346 N
HETATM    3  C2  UNL     1       7.691   5.093  26.499  1.00  0.00     0.062 A
HETATM    4  C3  UNL     1       7.701   4.978  27.887  1.00  0.00     0.033 A
HETATM    5  C4  UNL     1       6.620   4.407  28.524  1.00  0.00     0.014 A
HETATM    6  C5  UNL     1       5.560   3.964  27.772  1.00  0.00    -0.024 A
HETATM    7  C6  UNL     1       4.475   3.391  28.430  1.00  0.00     0.012 A
HETATM    8  C7  UNL     1       3.396   2.934  27.724  1.00  0.00     0.001 A
HETATM    9  C8  UNL     1       3.391   3.046  26.351  1.00  0.00     0.001 A
HETATM   10  C9  UNL     1       4.450   3.609  25.673  1.00  0.00     0.014 A
HETATM   11  C10 UNL     1       5.536   4.067  26.393  1.00  0.00     0.003 A
HETATM   12  C11 UNL     1       6.621   4.638  25.770  1.00  0.00     0.071 A
HETATM   13  N2  UNL     1       6.653   4.734  24.374  1.00  0.00    -0.352 N
ATOM     14  H2  UNL     1       5.865   4.403  23.818  1.00  0.00     0.166 HD
HETATM   15  C12 UNL     1       7.785   5.294  23.739  1.00  0.00     0.063 A
HETATM   16  C13 UNL     1       7.801   5.338  22.351  1.00  0.00     0.049 A
HETATM   17  C14 UNL     1       8.922   5.847  21.752  1.00  0.00     0.093 A
HETATM   18  N3  UNL     1       9.966   6.289  22.417  1.00  0.00    -0.358 N
HETATM   19  C15 UNL     1      11.073   6.794  21.643  1.00  0.00     0.156 C
HETATM   20  C16 UNL     1       9.975   6.259  23.787  1.00  0.00     0.074 A
HETATM   21  C17 UNL     1      11.192   6.743  24.343  1.00  0.00     0.005 A
HETATM   22  C18 UNL     1      12.207   5.895  24.691  1.00  0.00     0.022 A
HETATM   23  C19 UNL     1      13.437   6.357  25.079  1.00  0.00    -0.050 A
HETATM   24  C20 UNL     1      13.702   7.699  25.134  1.00  0.00    -0.041 A
HETATM   25  C21 UNL     1      12.702   8.588  24.790  1.00  0.00    -0.018 A
HETATM   26  C22 UNL     1      12.945   9.948  24.837  1.00  0.00     0.014 A
HETATM   27  C23 UNL     1      11.936  10.846  24.487  1.00  0.00     0.027 A
HETATM   28  C24 UNL     1      10.707  10.400  24.098  1.00  0.00     0.047 A
HETATM   29  N4  UNL     1       9.637  11.245  23.729  1.00  0.00    -0.102 NA
HETATM   30  C25 UNL     1      10.505   9.044  24.066  1.00  0.00     0.039 A
HETATM   31  C26 UNL     1      11.471   8.098  24.403  1.00  0.00    -0.011 A
HETATM   32  C27 UNL     1      14.955   8.432  25.512  1.00  0.00     0.040 C
HETATM   33  C28 UNL     1      16.072   7.435  25.702  1.00  0.00     0.005 C
HETATM   34  C29 UNL     1      15.930   6.563  26.903  1.00  0.00     0.001 C
HETATM   35  C30 UNL     1      14.927   5.469  26.793  1.00  0.00     0.005 C
HETATM   36  C31 UNL     1      14.382   5.247  25.423  1.00  0.00     0.039 C
HETATM   37  C32 UNL     1       8.908   5.774  24.465  1.00  0.00     0.089 A
ENDROOT
TORSDOF 0
ENDMDL