MODEL 5
REMARK VINA RESULT: -9.816985160      1.672      9.791
REMARK  4 active torsions:
REMARK  status: ('A' for Active; 'I' for Inactive)
REMARK    1  A    between atoms: N1_7  and  C7_9
REMARK    2  A    between atoms: C17_21  and  O1_22
REMARK    3  A    between atoms: C19_25  and  C20_26
REMARK    4  A    between atoms: C21_27  and  C22_28
ROOT
HETATM    1  C7  UNL     1       5.223   2.170  26.590  1.00  0.00     0.033 A
HETATM    2  C8  UNL     1       4.220   2.993  26.208  1.00  0.00     0.030 A
HETATM    3  C9  UNL     1       4.428   4.096  25.412  1.00  0.00     0.014 A
HETATM    4  C10 UNL     1       5.722   4.356  24.996  1.00  0.00    -0.024 A
HETATM    5  C11 UNL     1       6.011   5.451  24.193  1.00  0.00     0.013 A
HETATM    6  C12 UNL     1       7.283   5.753  23.755  1.00  0.00     0.011 A
HETATM    7  C13 UNL     1       8.337   4.942  24.119  1.00  0.00    -0.027 A
HETATM    8  C14 UNL     1       8.082   3.841  24.920  1.00  0.00     0.048 A
HETATM    9  C15 UNL     1       6.799   3.552  25.351  1.00  0.00     0.003 A
HETATM   10  C16 UNL     1       6.525   2.458  26.154  1.00  0.00     0.044 A
HETATM   11  N2  UNL     1       9.138   2.974  25.312  1.00  0.00    -0.359 N
ATOM     12  H2  UNL     1       8.960   2.006  25.584  1.00  0.00     0.162 HD
HETATM   13  C17 UNL     1      10.477   3.524  25.310  1.00  0.00     0.249 C
HETATM   14  C18 UNL     1      10.645   4.179  23.985  1.00  0.00    -0.020 C
HETATM   15  C19 UNL     1      11.597   3.769  23.194  1.00  0.00     0.072 C
HETATM   16  C30 UNL     1       9.704   5.278  23.644  1.00  0.00     0.080 C
ENDROOT
BRANCH  13  17
HETATM   17  O1  UNL     1      10.538   4.515  26.287  1.00  0.00    -0.373 OA
ATOM     18  H1  UNL     1      11.396   4.475  26.694  1.00  0.00     0.212 HD
ENDBRANCH  13  17
BRANCH  15  19
HETATM   19  C20 UNL     1      12.461   2.704  23.598  1.00  0.00    -0.071 C
HETATM   20  C21 UNL     1      13.212   1.812  23.937  1.00  0.00    -0.043 C
BRANCH  20  21
HETATM   21  C22 UNL     1      14.125   0.763  24.332  1.00  0.00     0.098 A
HETATM   22  N3  UNL     1      14.173   0.143  25.527  1.00  0.00    -0.357 N
HETATM   23  C23 UNL     1      15.148  -0.783  25.545  1.00  0.00     0.101 A
ATOM     24  H3  UNL     1      13.554   0.348  26.312  1.00  0.00     0.166 HD
HETATM   25  C24 UNL     1      15.786  -0.790  24.312  1.00  0.00    -0.008 A
HETATM   26  C25 UNL     1      16.828  -1.517  23.781  1.00  0.00     0.014 A
HETATM   27  C29 UNL     1      15.126   0.184  23.577  1.00  0.00     0.011 A
HETATM   28  C26 UNL     1      17.254  -1.298  22.492  1.00  0.00     0.001 A
HETATM   29  C27 UNL     1      16.612  -0.334  21.744  1.00  0.00     0.001 A
HETATM   30  C28 UNL     1      15.561   0.393  22.291  1.00  0.00     0.015 A
ENDBRANCH  20  21
ENDBRANCH  15  19
BRANCH   1  31
HETATM   31  N1  UNL     1       5.046   1.022  27.414  1.00  0.00    -0.359 N
HETATM   32  C6  UNL     1       4.918   1.096  28.703  1.00  0.00     0.013 A
HETATM   33  C5  UNL     1       4.736  -0.104  29.534  1.00  0.00     0.091 A
HETATM   34  C31 UNL     1       4.964   2.429  29.277  1.00  0.00     0.026 A
HETATM   35  C3  UNL     1       4.595   0.192  30.966  1.00  0.00    -0.072 A
HETATM   36  C2  UNL     1       4.643   1.420  31.439  1.00  0.00    -0.060 A
HETATM   37  C4  UNL     1       4.394  -0.940  31.924  1.00  0.00     0.044 C
HETATM   38  C1  UNL     1       4.495   1.645  32.914  1.00  0.00     0.048 C
HETATM   39  C32 UNL     1       4.833   2.586  30.581  1.00  0.00     0.009 A
ATOM     40  H1  UNL     1       5.020   0.103  26.971  1.00  0.00     0.166 HD
ENDBRANCH   1  31
TORSDOF 4
ENDMDL