MODEL 4
REMARK VINA RESULT: -9.095750253      1.536      1.567
REMARK  5 active torsions:
REMARK  status: ('A' for Active; 'I' for Inactive)
REMARK    1  A    between atoms: C11_13  and  N2_14
REMARK    2  A    between atoms: N2_14  and  C12_16
REMARK    3  A    between atoms: C12_16  and  O2_17
REMARK    4  A    between atoms: C12_16  and  N3_19
REMARK    5  A    between atoms: N3_19  and  C13_21
ROOT
HETATM    1  C1  UNL     1      15.894   4.506  24.385  1.00  0.00     0.068 C
HETATM    2  C2  UNL     1      14.464   4.462  24.797  1.00  0.00     0.005 A
HETATM    3  C3  UNL     1      14.192   4.052  26.111  1.00  0.00     0.027 A
HETATM    4  C4  UNL     1      12.860   4.025  26.473  1.00  0.00     0.034 A
HETATM    5  C5  UNL     1      11.834   4.373  25.623  1.00  0.00     0.068 A
HETATM    6  N1  UNL     1      10.517   4.570  25.302  1.00  0.00    -0.315 N
HETATM    7  C6  UNL     1       9.362   4.431  25.989  1.00  0.00     0.111 C
HETATM    8  C7  UNL     1       8.002   4.334  25.665  1.00  0.00     0.002 A
HETATM    9  C8  UNL     1       7.266   4.663  24.544  1.00  0.00    -0.009 A
HETATM   10  C9  UNL     1       7.572   5.207  23.297  1.00  0.00     0.070 C
HETATM   11  C10 UNL     1       8.759   5.246  22.590  1.00  0.00     0.201 C
HETATM   12  O1  UNL     1       8.593   5.146  21.360  1.00  0.00    -0.286 OA
HETATM   13  C11 UNL     1      10.103   5.368  22.926  1.00  0.00     0.115 C
HETATM   14  C19 UNL     1      10.844   4.952  24.058  1.00  0.00     0.099 A
HETATM   15  C20 UNL     1      12.189   4.786  24.276  1.00  0.00     0.090 A
HETATM   16  N4  UNL     1      13.506   4.807  23.937  1.00  0.00    -0.356 N
ATOM     17  H4  UNL     1      13.768   5.096  22.995  1.00  0.00     0.166 HD
HETATM   18  C21 UNL     1       6.029   4.209  25.169  1.00  0.00    -0.013 A
HETATM   19  C22 UNL     1       4.664   3.975  25.185  1.00  0.00     0.025 A
HETATM   20  C23 UNL     1       4.078   3.422  26.317  1.00  0.00    -0.025 A
HETATM   21  C24 UNL     1       2.723   3.193  26.333  1.00  0.00     0.012 A
HETATM   22  C25 UNL     1       2.070   2.642  27.435  1.00  0.00     0.001 A
HETATM   23  C26 UNL     1       2.829   2.317  28.542  1.00  0.00     0.001 A
HETATM   24  C27 UNL     1       4.183   2.539  28.539  1.00  0.00     0.012 A
HETATM   25  C28 UNL     1       4.821   3.094  27.429  1.00  0.00    -0.025 A
HETATM   26  C29 UNL     1       6.181   3.321  27.420  1.00  0.00     0.025 A
HETATM   27  C30 UNL     1       6.769   3.876  26.291  1.00  0.00    -0.012 A
ENDROOT
BRANCH  13  28
HETATM   28  N2  UNL     1      10.880   5.929  22.124  1.00  0.00    -0.317 N
ATOM     29  H2  UNL     1      11.680   5.373  21.823  1.00  0.00     0.169 HD
BRANCH  28  30
HETATM   30  C12 UNL     1      10.801   7.207  21.587  1.00  0.00     0.222 C
BRANCH  30  31
HETATM   31  O2  UNL     1      10.549   7.333  20.300  1.00  0.00    -0.332 OA
ATOM     32  H2  UNL     1      10.902   6.683  19.703  1.00  0.00     0.220 HD
ENDBRANCH  30  31
BRANCH  30  33
HETATM   33  N3  UNL     1      10.960   8.444  22.257  1.00  0.00    -0.322 N
ATOM     34  H3  UNL     1      11.640   9.092  21.861  1.00  0.00     0.169 HD
BRANCH  33  35
HETATM   35  C13 UNL     1      10.283   8.872  23.407  1.00  0.00     0.035 A
HETATM   36  C14 UNL     1      11.019   9.576  24.357  1.00  0.00     0.029 A
HETATM   37  C15 UNL     1      10.435  10.060  25.500  1.00  0.00     0.002 A
HETATM   38  C16 UNL     1       9.099   9.879  25.767  1.00  0.00     0.000 A
HETATM   39  C17 UNL     1       8.360   9.182  24.827  1.00  0.00     0.002 A
HETATM   40  C18 UNL     1       8.941   8.692  23.676  1.00  0.00     0.029 A
ENDBRANCH  33  35
ENDBRANCH  30  33
ENDBRANCH  28  30
ENDBRANCH  13  28
TORSDOF 5
ENDMDL