MODEL 2
REMARK VINA RESULT: -8.450847032      1.033      1.691
REMARK  4 active torsions:
REMARK  status: ('A' for Active; 'I' for Inactive)
REMARK    1  A    between atoms: C1_2  and  C2_3
REMARK    2  A    between atoms: C7_8  and  C8_9
REMARK    3  A    between atoms: C8_9  and  O2_10
REMARK    4  A    between atoms: N1_12  and  C9_14
ROOT
HETATM    1  C9  UNL     1      11.999   4.263  22.725  1.00  0.00     0.056 A
HETATM    2  C10 UNL     1      13.279   3.817  22.342  1.00  0.00    -0.008 A
HETATM    3  C11 UNL     1      13.683   2.560  22.708  1.00  0.00     0.018 A
HETATM    4  N2  UNL     1      12.919   1.704  23.427  1.00  0.00    -0.358 N
ATOM      5  H2  UNL     1      13.274   0.781  23.673  1.00  0.00     0.166 HD
HETATM    6  C12 UNL     1      11.716   2.073  23.805  1.00  0.00     0.046 A
HETATM    7  C13 UNL     1      11.038   1.191  24.609  1.00  0.00     0.033 C
HETATM    8  C14 UNL     1      10.196   1.492  25.706  1.00  0.00     0.033 C
HETATM    9  C15 UNL     1       9.353   2.567  25.822  1.00  0.00     0.046 A
HETATM   10  N3  UNL     1       8.406   3.232  26.465  1.00  0.00    -0.354 N
ATOM     11  H3  UNL     1       7.903   3.068  27.337  1.00  0.00     0.166 HD
HETATM   12  C16 UNL     1       8.355   4.197  25.545  1.00  0.00     0.059 A
HETATM   13  C17 UNL     1       9.324   3.604  24.802  1.00  0.00     0.031 A
HETATM   14  C18 UNL     1       9.986   3.817  23.623  1.00  0.00     0.016 C
HETATM   15  C19 UNL     1      11.268   3.375  23.429  1.00  0.00     0.031 A
HETATM   16  C20 UNL     1       9.463   4.382  22.452  1.00  0.00     0.155 C
HETATM   17  O3  UNL     1       8.655   5.509  22.769  1.00  0.00    -0.321 OA
HETATM   18  C21 UNL     1       7.905   6.009  23.797  1.00  0.00     0.087 A
HETATM   19  C22 UNL     1       7.258   7.194  23.497  1.00  0.00     0.038 A
HETATM   20  C23 UNL     1       6.484   7.764  24.472  1.00  0.00     0.003 A
HETATM   21  C24 UNL     1       6.341   7.187  25.729  1.00  0.00     0.001 A
HETATM   22  C25 UNL     1       6.986   6.007  26.023  1.00  0.00     0.016 A
HETATM   23  C26 UNL     1       7.745   5.448  25.066  1.00  0.00     0.025 A
HETATM   24  C27 UNL     1      15.017   2.025  22.326  1.00  0.00     0.057 C
HETATM   25  C28 UNL     1      15.969   3.197  22.335  1.00  0.00     0.006 C
HETATM   26  C29 UNL     1      15.495   4.101  21.224  1.00  0.00     0.005 C
HETATM   27  C30 UNL     1      14.153   4.725  21.531  1.00  0.00     0.043 C
ENDROOT
BRANCH   1  28
HETATM   28  N1  UNL     1      11.619   5.451  22.546  1.00  0.00    -0.335 N
HETATM   29  C8  UNL     1      11.735   6.717  22.945  1.00  0.00     0.151 C
ATOM     30  H1  UNL     1      10.944   5.438  21.782  1.00  0.00     0.168 HD
BRANCH  29  31
HETATM   31  C7  UNL     1      11.100   7.654  23.842  1.00  0.00     0.028 A
HETATM   32  C2  UNL     1      10.455   8.782  23.518  1.00  0.00     0.016 A
HETATM   33  C3  UNL     1       9.762   9.515  24.512  1.00  0.00     0.015 A
HETATM   34  C4  UNL     1       9.715   9.128  25.816  1.00  0.00     0.001 A
HETATM   35  C5  UNL     1      10.394   7.955  26.135  1.00  0.00     0.001 A
HETATM   36  C6  UNL     1      11.059   7.241  25.206  1.00  0.00     0.017 A
BRANCH  32  37
HETATM   37  C1  UNL     1      10.483   9.435  22.245  1.00  0.00     0.271 C
HETATM   38  O1  UNL     1      11.417   9.904  21.649  1.00  0.00    -0.301 OA
ENDBRANCH  32  37
ENDBRANCH  29  31
BRANCH  29  39
HETATM   39  O2  UNL     1      12.757   7.376  22.356  1.00  0.00    -0.345 OA
ATOM     40  H2  UNL     1      13.171   6.761  21.761  1.00  0.00     0.219 HD
ENDBRANCH  29  39
ENDBRANCH   1  28
TORSDOF 4
ENDMDL