MODEL 2
REMARK VINA RESULT: -9.070508434      3.315      7.839
REMARK  10 active torsions:
REMARK  status: ('A' for Active; 'I' for Inactive)
REMARK    1  A    between atoms: O1_2  and  C2_3
REMARK    2  A    between atoms: C2_3  and  N4_14
REMARK    3  A    between atoms: N1_4  and  C3_6
REMARK    4  A    between atoms: C3_6  and  C4_7
REMARK    5  A    between atoms: C4_7  and  C5_8
REMARK    6  A    between atoms: C5_8  and  C6_9
REMARK    7  A    between atoms: N4_14  and  N5_16
REMARK    8  A    between atoms: C7_18  and  C8_19
REMARK    9  A    between atoms: C10_23  and  N7_24
REMARK   10  A    between atoms: C13_36  and  C14_37
ROOT
HETATM    1  C8  UNL     1      15.941  32.588  -9.461  1.00  0.00     0.073 A
HETATM    2  N6  UNL     1      14.684  32.003  -9.232  1.00  0.00    -0.347 N
ATOM      3  H6  UNL     1      14.559  31.006  -9.408  1.00  0.00     0.166 HD
HETATM    4  C9  UNL     1      13.652  32.721  -8.792  1.00  0.00     0.121 A
HETATM    5  C10 UNL     1      12.444  32.060  -8.477  1.00  0.00     0.132 A
HETATM    6  N8  UNL     1      11.450  32.810  -7.937  1.00  0.00    -0.318 N
ATOM      7  H8  UNL     1      10.560  32.373  -7.695  1.00  0.00     0.170 HD
HETATM    8  C11 UNL     1      11.631  34.123  -7.719  1.00  0.00     0.179 A
HETATM    9  S1  UNL     1      10.394  34.947  -7.025  1.00  0.00    -0.040 SA
HETATM   10  N9  UNL     1      12.800  34.750  -8.034  1.00  0.00    -0.317 N
ATOM     11  H9  UNL     1      12.898  35.751  -7.865  1.00  0.00     0.170 HD
HETATM   12  C12 UNL     1      13.826  34.063  -8.564  1.00  0.00     0.139 A
HETATM   13  N10 UNL     1      15.029  34.678  -8.787  1.00  0.00    -0.341 N
ATOM     14  H10 UNL     1      15.143  35.678  -8.623  1.00  0.00     0.167 HD
HETATM   15  C13 UNL     1      16.076  33.913  -9.237  1.00  0.00     0.049 A
ENDROOT
BRANCH   1  16
HETATM   16  C7  UNL     1      17.014  31.648  -9.608  1.00  0.00     0.138 C
HETATM   17  N5  UNL     1      17.111  30.489  -9.353  1.00  0.00    -0.307 N
ATOM     18  H5  UNL     1      18.069  30.253  -9.613  1.00  0.00     0.186 HD
BRANCH  17  19
HETATM   19  N4  UNL     1      16.599  29.338  -8.896  1.00  0.00    -0.265 N
ATOM     20  H4  UNL     1      16.419  28.550  -9.518  1.00  0.00     0.190 HD
BRANCH  19  21
HETATM   21  C2  UNL     1      16.309  29.263  -7.462  1.00  0.00     0.237 C
HETATM   22  N1  UNL     1      16.980  28.735  -6.651  1.00  0.00    -0.335 N
ATOM     23  H1  UNL     1      16.435  28.902  -5.805  1.00  0.00     0.168 HD
BRANCH  21  24
HETATM   24  O1  UNL     1      15.090  29.891  -7.015  1.00  0.00    -0.326 OA
HETATM   25  C1  UNL     1      15.208  30.689  -5.830  1.00  0.00     0.213 C
ENDBRANCH  21  24
BRANCH  22  26
HETATM   26  C3  UNL     1      18.042  28.034  -6.149  1.00  0.00     0.065 C
BRANCH  26  27
HETATM   27  C4  UNL     1      17.756  26.566  -5.959  1.00  0.00     0.052 C
BRANCH  27  28
HETATM   28  C5  UNL     1      19.066  25.790  -5.890  1.00  0.00     0.077 C
BRANCH  28  29
HETATM   29  C6  UNL     1      19.125  24.876  -4.769  1.00  0.00     0.086 C
HETATM   30  N2  UNL     1      19.656  23.702  -4.853  1.00  0.00    -0.391 N
ATOM     31  H22 UNL     1      20.061  23.440  -5.751  1.00  0.00     0.157 HD
ATOM     32  H21 UNL     1      19.698  23.058  -4.062  1.00  0.00     0.157 HD
HETATM   33  N3  UNL     1      18.552  25.246  -3.500  1.00  0.00    -0.088 NA
ENDBRANCH  28  29
ENDBRANCH  27  28
ENDBRANCH  26  27
ENDBRANCH  22  26
ENDBRANCH  19  21
ENDBRANCH  17  19
ENDBRANCH   1  16
BRANCH  15  34
HETATM   34  C14 UNL     1      17.384  34.596  -9.539  1.00  0.00     0.145 C
HETATM   35  S2  UNL     1      17.410  35.127 -11.283  1.00  0.00    -0.091 SA
ENDBRANCH  15  34
BRANCH   5  36
HETATM   36  N7  UNL     1      12.305  30.813  -8.707  1.00  0.00    -0.383 N
ATOM     37  H72 UNL     1      12.968  30.120  -8.360  1.00  0.00     0.157 HD
ATOM     38  H71 UNL     1      11.509  30.467  -9.244  1.00  0.00     0.157 HD
ENDBRANCH   5  36
TORSDOF 10
ENDMDL