MODEL 1
REMARK VINA RESULT: -8.661660021      0.000      0.000
REMARK  9 active torsions:
REMARK  status: ('A' for Active; 'I' for Inactive)
REMARK    1  A    between atoms: N1_1  and  C1_4
REMARK    2  A    between atoms: C3_8  and  C4_9
REMARK    3  A    between atoms: C5_12  and  C6_13
REMARK    4  A    between atoms: C7_15  and  N4_16
REMARK    5  A    between atoms: N4_16  and  C8_18
REMARK    6  A    between atoms: N5_21  and  C11_22
REMARK    7  A    between atoms: C11_22  and  C12_23
REMARK    8  A    between atoms: C12_23  and  C13_24
REMARK    9  A    between atoms: C13_24  and  N6_25
ROOT
HETATM    1  C4  UNL     1      14.057  32.135  -7.004  1.00  0.00     0.091 A
HETATM    2  N3  UNL     1      14.847  32.379  -8.004  1.00  0.00    -0.350 N
ATOM      3  H3  UNL     1      14.668  33.200  -8.581  1.00  0.00     0.166 HD
HETATM    4  C5  UNL     1      15.855  31.619  -8.300  1.00  0.00     0.054 A
HETATM    5  C7  UNL     1      16.077  30.528  -7.522  1.00  0.00     0.096 A
HETATM    6  S2  UNL     1      14.766  30.689  -6.376  1.00  0.00    -0.052 SA
ENDROOT
BRANCH   5   7
HETATM    7  N4  UNL     1      17.006  29.462  -7.515  1.00  0.00    -0.378 N
ATOM      8  H4  UNL     1      17.687  29.441  -8.273  1.00  0.00     0.160 HD
BRANCH   7   9
HETATM    9  C8  UNL     1      17.083  28.428  -6.569  1.00  0.00     0.085 C
HETATM   10  C9  UNL     1      16.522  27.115  -7.137  1.00  0.00     0.055 C
HETATM   11  C10 UNL     1      17.392  25.959  -6.846  1.00  0.00     0.274 C
HETATM   12  N5  UNL     1      17.851  25.857  -5.451  1.00  0.00     0.088 N
HETATM   13  C14 UNL     1      18.496  27.125  -5.086  1.00  0.00     0.274 C
HETATM   14  C15 UNL     1      18.559  28.031  -6.288  1.00  0.00     0.055 C
BRANCH  12  15
HETATM   15  C11 UNL     1      18.926  24.897  -5.494  1.00  0.00     0.274 C
BRANCH  15  16
HETATM   16  C12 UNL     1      19.076  23.931  -4.414  1.00  0.00     0.057 C
BRANCH  16  17
HETATM   17  C13 UNL     1      20.021  24.172  -3.320  1.00  0.00     0.231 C
BRANCH  17  18
HETATM   18  N6  UNL     1      21.401  23.997  -3.705  1.00  0.00    -0.079 N
ATOM     19  H63 UNL     1      21.657  24.655  -4.441  1.00  0.00     0.274 HD
ATOM     20  H62 UNL     1      22.026  24.318  -2.966  1.00  0.00     0.274 HD
ATOM     21  H61 UNL     1      21.627  23.041  -3.981  1.00  0.00     0.274 HD
ENDBRANCH  17  18
ENDBRANCH  16  17
ENDBRANCH  15  16
ENDBRANCH  12  15
ENDBRANCH   7   9
ENDBRANCH   5   7
BRANCH   4  22
HETATM   22  C6  UNL     1      16.772  31.971  -9.463  1.00  0.00     0.146 C
HETATM   23  S1  UNL     1      16.848  33.796  -9.680  1.00  0.00    -0.091 SA
ENDBRANCH   4  22
BRANCH   1  24
HETATM   24  C3  UNL     1      12.866  32.823  -6.465  1.00  0.00     0.058 A
HETATM   25  C2  UNL     1      12.807  33.106  -5.101  1.00  0.00     0.124 A
HETATM   26  N2  UNL     1      11.730  33.732  -4.597  1.00  0.00    -0.201 N
HETATM   27  C1  UNL     1      10.695  34.100  -5.366  1.00  0.00     0.677 A
ATOM     28  H2  UNL     1      11.698  33.932  -3.597  1.00  0.00     0.183 HD
HETATM   29  N8  UNL     1      10.739  33.836  -6.670  1.00  0.00    -0.176 N
HETATM   30  C16 UNL     1      11.825  33.192  -7.250  1.00  0.00     0.129 A
ATOM     31  H8  UNL     1       9.954  34.114  -7.259  1.00  0.00     0.186 HD
HETATM   32  N7  UNL     1      11.755  33.000  -8.487  1.00  0.00    -0.384 N
ATOM     33  H72 UNL     1      12.552  32.526  -8.913  1.00  0.00     0.157 HD
ATOM     34  H71 UNL     1      10.971  33.277  -9.077  1.00  0.00     0.157 HD
BRANCH  27  35
HETATM   35  N1  UNL     1       9.679  34.706  -4.811  1.00  0.00    -0.234 N
ATOM     36  H12 UNL     1       9.488  34.646  -3.811  1.00  0.00     0.174 HD
ATOM     37  H11 UNL     1       9.053  35.259  -5.397  1.00  0.00     0.174 HD
ENDBRANCH  27  35
ENDBRANCH   1  24
TORSDOF 9
ENDMDL