MODEL 5
REMARK VINA RESULT: -9.568534267      2.285      3.162
REMARK  11 active torsions:
REMARK  status: ('A' for Active; 'I' for Inactive)
REMARK    1  A    between atoms: C2_2  and  C3_3
REMARK    2  A    between atoms: C3_3  and  N1_4
REMARK    3  A    between atoms: C4_5  and  O1_6
REMARK    4  A    between atoms: C5_8  and  N2_9
REMARK    5  A    between atoms: N2_9  and  C6_11
REMARK    6  A    between atoms: C6_11  and  C7_12
REMARK    7  A    between atoms: C8_13  and  O2_14
REMARK    8  A    between atoms: C9_18  and  O3_19
REMARK    9  A    between atoms: C10_21  and  N4_22
REMARK   10  A    between atoms: N4_22  and  N5_24
REMARK       I    between atoms: N5_24  and  C11_26
REMARK   11  A    between atoms: C11_26  and  C12_28
ROOT
HETATM    1  C7  UNL     1      15.163  29.907  -6.799  1.00  0.00     0.062 A
HETATM    2  C8  UNL     1      14.291  29.919  -7.874  1.00  0.00     0.156 A
HETATM    3  N3  UNL     1      14.720  29.008  -8.755  1.00  0.00    -0.315 N
ATOM      4  H3  UNL     1      14.269  28.799  -9.645  1.00  0.00     0.170 HD
HETATM    5  C9  UNL     1      15.825  28.413  -8.296  1.00  0.00     0.172 A
HETATM    6  C10 UNL     1      16.118  28.961  -7.075  1.00  0.00     0.115 A
ENDROOT
BRANCH   1   7
HETATM    7  C6  UNL     1      15.051  30.751  -5.602  1.00  0.00     0.107 C
BRANCH   7   8
HETATM    8  N2  UNL     1      15.324  31.990  -5.652  1.00  0.00    -0.357 N
ATOM      9  H2  UNL     1      16.265  32.310  -5.423  1.00  0.00     0.165 HD
BRANCH   8  10
HETATM   10  C5  UNL     1      14.321  32.942  -6.027  1.00  0.00     0.152 A
HETATM   11  C4  UNL     1      13.152  33.066  -5.316  1.00  0.00     0.179 A
HETATM   12  N1  UNL     1      12.204  33.982  -5.672  1.00  0.00    -0.278 N
HETATM   13  C17 UNL     1      12.495  34.730  -6.735  1.00  0.00     0.331 A
HETATM   14  N6  UNL     1      13.615  34.640  -7.450  1.00  0.00    -0.273 N
HETATM   15  O6  UNL     1      11.649  35.593  -7.100  1.00  0.00    -0.246 OA
HETATM   16  C16 UNL     1      14.560  33.740  -7.113  1.00  0.00     0.280 A
ATOM     17  H6  UNL     1      13.758  35.252  -8.252  1.00  0.00     0.173 HD
HETATM   18  O5  UNL     1      15.633  33.646  -7.790  1.00  0.00    -0.265 OA
BRANCH  11  19
HETATM   19  O1  UNL     1      12.933  32.259  -4.236  1.00  0.00    -0.344 OA
ATOM     20  H1  UNL     1      12.382  32.568  -3.526  1.00  0.00     0.219 HD
ENDBRANCH  11  19
BRANCH  12  21
HETATM   21  C3  UNL     1      11.014  34.122  -4.925  1.00  0.00     0.135 C
BRANCH  21  22
HETATM   22  C2  UNL     1      10.979  35.135  -3.842  1.00  0.00     0.016 C
HETATM   23  C1  UNL     1      11.060  34.658  -2.440  1.00  0.00     0.006 C
ENDBRANCH  21  22
ENDBRANCH  12  21
ENDBRANCH   8  10
ENDBRANCH   7   8
ENDBRANCH   1   7
BRANCH   2  24
HETATM   24  O2  UNL     1      13.168  30.728  -8.023  1.00  0.00    -0.345 OA
ATOM     25  H2  UNL     1      12.614  30.791  -8.792  1.00  0.00     0.219 HD
ENDBRANCH   2  24
BRANCH   6  26
HETATM   26  N4  UNL     1      17.208  28.650  -6.203  1.00  0.00    -0.293 N
ATOM     27  H4  UNL     1      17.703  29.384  -5.695  1.00  0.00     0.187 HD
BRANCH  26  28
HETATM   28  N5  UNL     1      17.572  27.309  -6.070  1.00  0.00    -0.266 N
HETATM   29  C11 UNL     1      18.812  26.888  -5.514  1.00  0.00     0.259 C
HETATM   30  O4  UNL     1      19.589  27.827  -5.140  1.00  0.00    -0.267 OA
ATOM     31  H5  UNL     1      16.916  26.595  -6.387  1.00  0.00     0.190 HD
BRANCH  29  32
HETATM   32  C12 UNL     1      19.166  25.487  -5.382  1.00  0.00     0.077 C
HETATM   33  C13 UNL     1      18.990  24.764  -4.308  1.00  0.00    -0.082 C
HETATM   34  C14 UNL     1      19.400  23.334  -4.319  1.00  0.00     0.043 C
HETATM   35  C15 UNL     1      18.405  25.334  -3.092  1.00  0.00     0.043 C
ENDBRANCH  29  32
ENDBRANCH  26  28
ENDBRANCH   6  26
BRANCH   5  36
HETATM   36  O3  UNL     1      16.586  27.404  -8.912  1.00  0.00    -0.344 OA
ATOM     37  H3  UNL     1      16.902  26.593  -8.531  1.00  0.00     0.219 HD
ENDBRANCH   5  36
TORSDOF 11
ENDMDL