MODEL 2
REMARK VINA RESULT: -8.103181092      3.286      7.051
REMARK  10 active torsions:
REMARK  status: ('A' for Active; 'I' for Inactive)
REMARK    1  A    between atoms: C2_2  and  O1_3
REMARK    2  A    between atoms: O1_3  and  C3_4
REMARK    3  A    between atoms: C3_4  and  C4_5
REMARK    4  A    between atoms: C4_5  and  C5_6
REMARK    5  A    between atoms: C5_6  and  N1_7
REMARK    6  A    between atoms: C6_8  and  S1_9
REMARK    7  A    between atoms: S1_9  and  C7_10
REMARK    8  A    between atoms: C11_22  and  N6_23
REMARK    9  A    between atoms: C13_29  and  N8_30
REMARK   10  A    between atoms: C14_35  and  N10_36
ROOT
HETATM    1  N1  UNL     1      14.510  33.659  -7.937  1.00  0.00    -0.311 N
HETATM    2  C6  UNL     1      14.683  32.644  -8.808  1.00  0.00     0.155 A
HETATM    3  N7  UNL     1      13.500  32.362  -9.372  1.00  0.00    -0.330 N
ATOM      4  H7  UNL     1      13.319  31.641 -10.071  1.00  0.00     0.168 HD
HETATM    5  C12 UNL     1      12.591  33.212  -8.841  1.00  0.00     0.124 A
HETATM    6  C13 UNL     1      11.244  33.377  -9.044  1.00  0.00     0.145 A
HETATM    7  N9  UNL     1      10.618  34.331  -8.344  1.00  0.00    -0.175 N
ATOM      8  H9  UNL     1       9.616  34.456  -8.492  1.00  0.00     0.186 HD
HETATM    9  C14 UNL     1      11.235  35.140  -7.453  1.00  0.00     0.679 A
HETATM   10  N11 UNL     1      12.539  34.989  -7.249  1.00  0.00    -0.174 N
ATOM     11  H11 UNL     1      13.029  35.586  -6.582  1.00  0.00     0.186 HD
HETATM   12  C15 UNL     1      13.207  34.042  -7.931  1.00  0.00     0.156 A
ENDROOT
BRANCH   2  13
HETATM   13  S1  UNL     1      16.269  31.871  -9.094  1.00  0.00    -0.032 SA
BRANCH  13  14
HETATM   14  C7  UNL     1      16.279  30.212  -8.429  1.00  0.00     0.123 A
HETATM   15  N2  UNL     1      17.243  29.910  -7.543  1.00  0.00    -0.331 N
HETATM   16  C8  UNL     1      17.315  28.683  -7.000  1.00  0.00     0.152 A
ATOM     17  H2  UNL     1      17.927  30.619  -7.279  1.00  0.00     0.168 HD
HETATM   18  N3  UNL     1      18.175  28.151  -6.106  1.00  0.00    -0.335 N
HETATM   19  C10 UNL     1      16.396  27.729  -7.355  1.00  0.00     0.152 A
HETATM   20  C9  UNL     1      17.804  26.869  -5.894  1.00  0.00     0.183 A
ATOM     21  H3  UNL     1      18.963  28.629  -5.669  1.00  0.00     0.168 HD
HETATM   22  N4  UNL     1      16.725  26.628  -6.658  1.00  0.00    -0.335 N
ATOM     23  H4  UNL     1      16.229  25.739  -6.704  1.00  0.00     0.168 HD
HETATM   24  N5  UNL     1      15.437  28.039  -8.241  1.00  0.00    -0.324 N
HETATM   25  C11 UNL     1      15.356  29.265  -8.791  1.00  0.00     0.135 A
ATOM     26  H5  UNL     1      14.753  27.328  -8.505  1.00  0.00     0.169 HD
BRANCH  25  27
HETATM   27  N6  UNL     1      14.430  29.557  -9.644  1.00  0.00    -0.383 N
ATOM     28  H62 UNL     1      14.392  30.474 -10.090  1.00  0.00     0.157 HD
ATOM     29  H61 UNL     1      13.719  28.866  -9.882  1.00  0.00     0.157 HD
ENDBRANCH  25  27
ENDBRANCH  13  14
ENDBRANCH   2  13
BRANCH   1  30
HETATM   30  C5  UNL     1      15.513  34.272  -7.121  1.00  0.00     0.135 C
BRANCH  30  31
HETATM   31  C4  UNL     1      16.036  35.505  -7.858  1.00  0.00     0.046 C
BRANCH  31  32
HETATM   32  C3  UNL     1      16.040  36.632  -6.876  1.00  0.00     0.169 C
BRANCH  32  33
HETATM   33  O1  UNL     1      17.241  36.727  -6.172  1.00  0.00    -0.391 OA
BRANCH  33  34
HETATM   34  C2  UNL     1      17.677  38.023  -6.065  1.00  0.00     0.163 C
HETATM   35  C1  UNL     1      17.659  38.561  -4.668  1.00  0.00     0.033 C
ENDBRANCH  33  34
ENDBRANCH  32  33
ENDBRANCH  31  32
ENDBRANCH  30  31
ENDBRANCH   1  30
BRANCH   6  36
HETATM   36  N8  UNL     1      10.570  32.642  -9.883  1.00  0.00    -0.383 N
ATOM     37  H82 UNL     1      11.056  31.949 -10.454  1.00  0.00     0.157 HD
ATOM     38  H81 UNL     1       9.561  32.731  -9.997  1.00  0.00     0.157 HD
ENDBRANCH   6  36
BRANCH   9  39
HETATM   39  N10 UNL     1      10.551  36.034  -6.824  1.00  0.00    -0.234 N
ATOM     40 2H10 UNL     1      10.020  35.807  -5.983  1.00  0.00     0.174 HD
ATOM     41 1H10 UNL     1      10.537  36.993  -7.169  1.00  0.00     0.174 HD
ENDBRANCH   9  39
TORSDOF 10
ENDMDL