MODEL 1
REMARK VINA RESULT: -9.502106873      0.000      0.000
REMARK  12 active torsions:
REMARK  status: ('A' for Active; 'I' for Inactive)
REMARK    1  A    between atoms: C2_3  and  O1_4
REMARK    2  A    between atoms: C5_8  and  O2_9
REMARK    3  A    between atoms: N3_16  and  C8_18
REMARK    4  A    between atoms: C8_18  and  C9_19
REMARK    5  A    between atoms: C9_19  and  C10_20
REMARK    6  A    between atoms: C10_20  and  C11_21
REMARK    7  A    between atoms: C11_21  and  C12_22
REMARK    8  A    between atoms: C12_22  and  C13_23
REMARK    9  A    between atoms: C13_23  and  C14_24
REMARK   10  A    between atoms: C14_24  and  O3_25
REMARK   11  A    between atoms: C14_24  and  N4_27
REMARK   12  A    between atoms: N4_27  and  O4_29
ROOT
HETATM    1  C1  UNL     1       9.483  35.532  -6.023  1.00  0.00     0.160 C
HETATM    2  N1  UNL     1      10.551  34.592  -6.295  1.00  0.00    -0.311 N
HETATM    3  C2  UNL     1      10.985  34.325  -7.532  1.00  0.00     0.152 A
HETATM    4  C3  UNL     1      12.023  33.371  -7.387  1.00  0.00     0.029 A
HETATM    5  C4  UNL     1      12.176  33.100  -6.055  1.00  0.00     0.095 A
HETATM    6  C5  UNL     1      11.243  33.878  -5.391  1.00  0.00     0.172 A
HETATM    7  N2  UNL     1      13.164  32.167  -5.661  1.00  0.00    -0.346 N
ATOM      8  H2  UNL     1      13.291  31.954  -4.672  1.00  0.00     0.167 HD
HETATM    9  C6  UNL     1      13.992  31.515  -6.644  1.00  0.00     0.090 A
HETATM   10  S1  UNL     1      15.200  30.383  -6.236  1.00  0.00    -0.036 SA
HETATM   11  C7  UNL     1      16.030  29.768  -7.600  1.00  0.00     0.149 A
HETATM   12  N3  UNL     1      16.975  28.905  -7.521  1.00  0.00    -0.370 N
ATOM     13  H3  UNL     1      17.450  28.559  -8.356  1.00  0.00     0.161 HD
HETATM   14  N5  UNL     1      15.586  30.286  -8.756  1.00  0.00    -0.303 N
ATOM     15  H5  UNL     1      16.049  29.952  -9.601  1.00  0.00     0.171 HD
HETATM   16  C15 UNL     1      14.629  31.171  -8.937  1.00  0.00     0.256 A
HETATM   17  O5  UNL     1      14.386  31.512 -10.156  1.00  0.00    -0.267 OA
HETATM   18  C16 UNL     1      13.838  31.788  -7.970  1.00  0.00     0.048 A
HETATM   19  C17 UNL     1      12.825  32.753  -8.446  1.00  0.00     0.092 A
ENDROOT
BRANCH  12  20
HETATM   20  C8  UNL     1      17.343  28.440  -6.191  1.00  0.00     0.121 C
BRANCH  20  21
HETATM   21  C9  UNL     1      18.160  27.150  -6.385  1.00  0.00     0.020 C
BRANCH  21  22
HETATM   22  C10 UNL     1      17.174  26.144  -6.937  1.00  0.00     0.002 C
BRANCH  22  23
HETATM   23  C11 UNL     1      17.701  24.765  -6.770  1.00  0.00     0.000 C
BRANCH  23  24
HETATM   24  C12 UNL     1      18.853  24.736  -5.825  1.00  0.00     0.008 C
BRANCH  24  25
HETATM   25  C13 UNL     1      18.635  23.910  -4.591  1.00  0.00     0.086 C
BRANCH  25  26
HETATM   26  C14 UNL     1      19.235  24.468  -3.375  1.00  0.00     0.135 C
BRANCH  26  27
HETATM   27  O3  UNL     1      18.478  25.448  -2.693  1.00  0.00    -0.348 OA
ATOM     28  H3  UNL     1      18.542  26.337  -3.023  1.00  0.00     0.219 HD
ENDBRANCH  26  27
BRANCH  26  29
HETATM   29  N4  UNL     1      20.380  24.131  -2.902  1.00  0.00    -0.251 N
ATOM     30  H4  UNL     1      20.462  23.963  -1.899  1.00  0.00     0.196 HD
BRANCH  29  31
HETATM   31  O4  UNL     1      21.483  23.989  -3.673  1.00  0.00    -0.288 OA
ATOM     32  H4  UNL     1      22.326  24.363  -3.444  1.00  0.00     0.244 HD
ENDBRANCH  29  31
ENDBRANCH  26  29
ENDBRANCH  25  26
ENDBRANCH  24  25
ENDBRANCH  23  24
ENDBRANCH  22  23
ENDBRANCH  21  22
ENDBRANCH  20  21
ENDBRANCH  12  20
BRANCH   6  33
HETATM   33  O2  UNL     1      11.069  33.896  -4.017  1.00  0.00    -0.344 OA
ATOM     34  H2  UNL     1      11.325  33.216  -3.405  1.00  0.00     0.219 HD
ENDBRANCH   6  33
BRANCH   3  35
HETATM   35  O1  UNL     1      10.526  34.861  -8.730  1.00  0.00    -0.345 OA
ATOM     36  H1  UNL     1      10.780  35.681  -9.136  1.00  0.00     0.219 HD
ENDBRANCH   3  35
TORSDOF 12
ENDMDL