MODEL 4
REMARK VINA RESULT: -8.590324036      3.745      6.451
REMARK  9 active torsions:
REMARK  status: ('A' for Active; 'I' for Inactive)
REMARK    1  A    between atoms: C6_8  and  N2_9
REMARK    2  A    between atoms: N2_9  and  C7_11
REMARK    3  A    between atoms: C10_20  and  C11_21
REMARK    4  A    between atoms: C11_21  and  C12_22
REMARK    5  A    between atoms: C12_22  and  S2_23
REMARK    6  A    between atoms: S2_23  and  C13_24
REMARK    7  A    between atoms: C13_24  and  C14_25
REMARK    8  A    between atoms: C14_25  and  C15_26
REMARK    9  A    between atoms: N6_28  and  O2_30
ROOT
HETATM    1  C7  UNL     1      14.354  31.303  -9.151  1.00  0.00     0.120 A
HETATM    2  N3  UNL     1      14.542  30.065  -8.610  1.00  0.00    -0.319 N
ATOM      3  H3  UNL     1      13.739  29.546  -8.256  1.00  0.00     0.170 HD
HETATM    4  C8  UNL     1      15.765  29.520  -8.537  1.00  0.00     0.180 A
HETATM    5  S1  UNL     1      15.911  28.041  -7.879  1.00  0.00    -0.040 SA
HETATM    6  N4  UNL     1      16.822  30.202  -9.001  1.00  0.00    -0.300 N
ATOM      7  H4  UNL     1      17.753  29.791  -8.945  1.00  0.00     0.171 HD
HETATM    8  C9  UNL     1      16.662  31.430  -9.542  1.00  0.00     0.257 A
HETATM    9  O1  UNL     1      17.683  32.026  -9.961  1.00  0.00    -0.267 OA
HETATM   10  C10 UNL     1      15.415  32.033  -9.641  1.00  0.00     0.055 A
ENDROOT
BRANCH   1  11
HETATM   11  N2  UNL     1      13.057  31.864  -9.177  1.00  0.00    -0.330 N
ATOM     12  H2  UNL     1      12.435  31.723  -9.974  1.00  0.00     0.168 HD
BRANCH  11  13
HETATM   13  C6  UNL     1      12.646  32.644  -8.034  1.00  0.00     0.097 C
HETATM   14  C5  UNL     1      13.137  32.295  -6.684  1.00  0.00     0.190 C
HETATM   15  N1  UNL     1      12.152  32.417  -5.668  1.00  0.00    -0.412 N
HETATM   16  C4  UNL     1      11.076  33.316  -5.962  1.00  0.00     0.144 C
ATOM     17  H1  UNL     1      12.206  31.901  -4.790  1.00  0.00     0.153 HD
HETATM   18  C2  UNL     1      11.478  34.373  -6.970  1.00  0.00     0.039 C
HETATM   19  C1  UNL     1      12.577  35.200  -6.387  1.00  0.00     0.039 C
HETATM   20  C3  UNL     1      10.253  35.240  -7.255  1.00  0.00     0.039 C
HETATM   21  N7  UNL     1      11.851  33.642  -8.165  1.00  0.00    -0.368 N
ATOM     22  H7  UNL     1      11.493  33.913  -9.080  1.00  0.00     0.161 HD
ENDBRANCH  11  13
ENDBRANCH   1  11
BRANCH  10  23
HETATM   23  C11 UNL     1      15.188  33.349 -10.236  1.00  0.00     0.058 C
BRANCH  23  24
HETATM   24  C12 UNL     1      15.972  34.476  -9.657  1.00  0.00     0.079 C
BRANCH  24  25
HETATM   25  S2  UNL     1      15.848  34.682  -7.887  1.00  0.00    -0.168 SA
BRANCH  25  26
HETATM   26  C13 UNL     1      16.031  36.382  -7.323  1.00  0.00     0.081 C
BRANCH  26  27
HETATM   27  C14 UNL     1      17.056  37.119  -8.189  1.00  0.00     0.085 C
BRANCH  27  28
HETATM   28  C15 UNL     1      18.037  37.819  -7.310  1.00  0.00     0.114 C
HETATM   29  N5  UNL     1      18.410  37.211  -6.104  1.00  0.00    -0.086 NA
HETATM   30  N6  UNL     1      18.514  38.946  -7.663  1.00  0.00    -0.259 N
ATOM     31  H6  UNL     1      18.229  39.373  -8.544  1.00  0.00     0.195 HD
BRANCH  30  32
HETATM   32  O2  UNL     1      19.415  39.578  -6.846  1.00  0.00    -0.289 OA
ATOM     33  H2  UNL     1      19.999  40.230  -7.215  1.00  0.00     0.244 HD
ENDBRANCH  30  32
ENDBRANCH  27  28
ENDBRANCH  26  27
ENDBRANCH  25  26
ENDBRANCH  24  25
ENDBRANCH  23  24
ENDBRANCH  10  23
TORSDOF 9
ENDMDL