MODEL 3
REMARK VINA RESULT: -7.766821248      3.870      7.458
REMARK  13 active torsions:
REMARK  status: ('A' for Active; 'I' for Inactive)
REMARK    1  A    between atoms: S1_2  and  C2_3
REMARK    2  A    between atoms: C2_3  and  C3_4
REMARK    3  A    between atoms: C3_4  and  C4_5
REMARK    4  A    between atoms: C4_5  and  S2_6
REMARK    5  A    between atoms: C4_5  and  C11_33
REMARK    6  A    between atoms: S2_6  and  C5_7
REMARK    7  A    between atoms: C7_13  and  N3_14
REMARK    8  A    between atoms: C8_19  and  N5_20
REMARK    9  A    between atoms: C10_26  and  N8_27
REMARK   10  A    between atoms: N8_27  and  N9_29
REMARK   11  A    between atoms: N9_29  and  N10_30
REMARK   12  A    between atoms: C11_33  and  O1_34
REMARK   13  A    between atoms: N11_36  and  O2_38
ROOT
HETATM    1  C5  UNL     1      15.230  34.700  -8.212  1.00  0.00     0.119 A
HETATM    2  N1  UNL     1      15.703  35.862  -7.674  1.00  0.00    -0.182 N
ATOM      3  H1  UNL     1      15.153  36.315  -6.944  1.00  0.00     0.185 HD
HETATM    4  C6  UNL     1      16.853  36.441  -8.055  1.00  0.00     0.720 A
HETATM    5  N2  UNL     1      17.296  37.585  -7.512  1.00  0.00    -0.021 N
ATOM      6  H2  UNL     1      16.741  38.029  -6.781  1.00  0.00     0.203 HD
HETATM    7  C7  UNL     1      18.446  38.168  -7.896  1.00  0.00     0.705 A
HETATM    8  N4  UNL     1      19.188  37.602  -8.850  1.00  0.00    -0.021 N
ATOM      9  H4  UNL     1      20.062  38.033  -9.153  1.00  0.00     0.203 HD
HETATM   10  C8  UNL     1      18.767  36.466  -9.399  1.00  0.00     0.713 A
HETATM   11  N6  UNL     1      17.609  35.860  -9.028  1.00  0.00     0.039 N
HETATM   12  C9  UNL     1      17.176  34.717  -9.579  1.00  0.00     0.189 A
HETATM   13  N7  UNL     1      17.939  34.084 -10.595  1.00  0.00    -0.078 NA
HETATM   14  C10 UNL     1      15.976  34.104  -9.188  1.00  0.00     0.139 A
ENDROOT
BRANCH   1  15
HETATM   15  S2  UNL     1      13.729  33.968  -7.635  1.00  0.00    -0.096 SA
BRANCH  15  16
HETATM   16  C4  UNL     1      13.789  32.217  -7.334  1.00  0.00     0.131 C
BRANCH  16  17
HETATM   17  C3  UNL     1      13.673  31.745  -5.928  1.00  0.00     0.034 C
BRANCH  17  18
HETATM   18  C2  UNL     1      14.961  31.255  -5.381  1.00  0.00     0.075 C
BRANCH  18  19
HETATM   19  S1  UNL     1      15.726  29.994  -6.448  1.00  0.00    -0.173 SA
HETATM   20  C1  UNL     1      14.604  28.682  -6.915  1.00  0.00     0.089 C
ENDBRANCH  18  19
ENDBRANCH  17  18
ENDBRANCH  16  17
BRANCH  16  21
HETATM   21  C11 UNL     1      12.841  31.533  -8.284  1.00  0.00     0.149 C
HETATM   22  N11 UNL     1      11.575  31.622  -8.109  1.00  0.00    -0.250 N
ATOM     23  H11 UNL     1      11.235  32.164  -7.315  1.00  0.00     0.196 HD
BRANCH  21  24
HETATM   24  O1  UNL     1      13.295  30.793  -9.365  1.00  0.00    -0.347 OA
ATOM     25  H1  UNL     1      13.429  31.185 -10.220  1.00  0.00     0.219 HD
ENDBRANCH  21  24
BRANCH  22  26
HETATM   26  O2  UNL     1      10.654  31.030  -8.928  1.00  0.00    -0.288 OA
ATOM     27  H2  UNL     1       9.800  30.736  -8.633  1.00  0.00     0.244 HD
ENDBRANCH  22  26
ENDBRANCH  16  21
ENDBRANCH  15  16
ENDBRANCH   1  15
BRANCH  14  28
HETATM   28  N8  UNL     1      15.642  32.871  -9.829  1.00  0.00    -0.210 N
ATOM     29  H8  UNL     1      14.844  32.782 -10.459  1.00  0.00     0.204 HD
BRANCH  28  30
HETATM   30  N9  UNL     1      16.399  31.908  -9.563  1.00  0.00    -0.243 NA
BRANCH  30  31
HETATM   31  N10 UNL     1      17.317  31.065  -9.568  1.00  0.00    -0.260 N
ATOM     32 2H10 UNL     1      16.964  30.590 -10.398  1.00  0.00     0.193 HD
ATOM     33 1H10 UNL     1      18.148  30.516  -9.349  1.00  0.00     0.193 HD
ENDBRANCH  30  31
ENDBRANCH  28  30
ENDBRANCH  14  28
BRANCH   7  34
HETATM   34  N3  UNL     1      18.841  39.289  -7.346  1.00  0.00    -0.234 N
ATOM     35  H32 UNL     1      18.453  40.175  -7.670  1.00  0.00     0.174 HD
ATOM     36  H31 UNL     1      19.531  39.284  -6.594  1.00  0.00     0.174 HD
ENDBRANCH   7  34
BRANCH  10  37
HETATM   37  N5  UNL     1      19.433  35.847 -10.332  1.00  0.00    -0.233 N
ATOM     38  H52 UNL     1      20.436  36.030 -10.334  1.00  0.00     0.174 HD
ATOM     39  H51 UNL     1      18.986  35.228 -11.008  1.00  0.00     0.174 HD
ENDBRANCH  10  37
TORSDOF 13
ENDMDL