MODEL 3
REMARK VINA RESULT: -8.790204635      1.720      2.388
REMARK  14 active torsions:
REMARK  status: ('A' for Active; 'I' for Inactive)
REMARK    1  A    between atoms: C2_2  and  C3_3
REMARK    2  A    between atoms: C4_7  and  C5_8
REMARK    3  A    between atoms: C5_8  and  C6_9
REMARK    4  A    between atoms: C5_8  and  S2_11
REMARK    5  A    between atoms: S2_11  and  C8_12
REMARK    6  A    between atoms: C8_12  and  C9_13
REMARK    7  A    between atoms: C9_13  and  O1_14
REMARK    8  A    between atoms: C9_13  and  N2_16
REMARK    9  A    between atoms: N2_16  and  C10_18
REMARK   10  A    between atoms: C10_18  and  O2_19
REMARK   11  A    between atoms: C10_18  and  N3_21
REMARK   12  A    between atoms: N3_21  and  C11_23
REMARK   13  A    between atoms: C13_28  and  N6_29
REMARK   14  A    between atoms: C14_34  and  N8_35
ROOT
HETATM    1  C10 UNL     1      16.133  34.011  -8.422  1.00  0.00     0.223 C
ENDROOT
BRANCH   1   2
HETATM    2  N2  UNL     1      15.210  33.260  -7.727  1.00  0.00    -0.306 N
ATOM      3  H2  UNL     1      14.622  32.701  -8.347  1.00  0.00     0.171 HD
BRANCH   2   4
HETATM    4  C9  UNL     1      14.885  33.077  -6.388  1.00  0.00     0.127 C
BRANCH   4   5
HETATM    5  C8  UNL     1      15.252  31.944  -5.533  1.00  0.00     0.158 C
BRANCH   5   6
HETATM    6  S2  UNL     1      15.113  30.340  -6.238  1.00  0.00    -0.149 SA
BRANCH   6   7
HETATM    7  C5  UNL     1      16.389  29.704  -7.263  1.00  0.00     0.105 C
BRANCH   7   8
HETATM    8  C4  UNL     1      16.969  28.380  -6.873  1.00  0.00     0.083 A
HETATM    9  S1  UNL     1      16.875  26.881  -7.736  1.00  0.00     0.002 SA
HETATM   10  N1  UNL     1      17.712  25.916  -6.640  1.00  0.00    -0.315 N
HETATM   11  C3  UNL     1      18.026  26.779  -5.666  1.00  0.00     0.087 A
ATOM     12  H1  UNL     1      17.925  24.921  -6.702  1.00  0.00     0.175 HD
HETATM   13  N9  UNL     1      17.646  28.009  -5.800  1.00  0.00    -0.341 N
ATOM     14  H9  UNL     1      17.870  28.693  -5.076  1.00  0.00     0.167 HD
BRANCH  11  15
HETATM   15  C2  UNL     1      18.808  26.257  -4.469  1.00  0.00     0.072 C
HETATM   16  C1  UNL     1      18.784  24.766  -4.417  1.00  0.00     0.013 C
ENDBRANCH  11  15
ENDBRANCH   7   8
BRANCH   7  17
HETATM   17  C6  UNL     1      16.068  29.670  -8.734  1.00  0.00     0.017 C
HETATM   18  C7  UNL     1      14.652  30.063  -9.025  1.00  0.00     0.006 C
ENDBRANCH   7  17
ENDBRANCH   6   7
ENDBRANCH   5   6
ENDBRANCH   4   5
BRANCH   4  19
HETATM   19  O1  UNL     1      14.176  33.998  -5.793  1.00  0.00    -0.349 OA
ATOM     20  H1  UNL     1      13.370  34.228  -6.242  1.00  0.00     0.219 HD
ENDBRANCH   4  19
ENDBRANCH   2   4
ENDBRANCH   1   2
BRANCH   1  21
HETATM   21  O2  UNL     1      17.262  33.409  -8.679  1.00  0.00    -0.332 OA
ATOM     22  H2  UNL     1      17.558  32.800  -8.014  1.00  0.00     0.221 HD
ENDBRANCH   1  21
BRANCH   1  23
HETATM   23  N3  UNL     1      16.038  35.301  -8.883  1.00  0.00    -0.316 N
ATOM     24  H3  UNL     1      15.377  35.530  -9.625  1.00  0.00     0.169 HD
BRANCH  23  25
HETATM   25  C11 UNL     1      16.878  36.338  -8.316  1.00  0.00     0.122 A
HETATM   26  C12 UNL     1      16.510  36.910  -7.130  1.00  0.00     0.162 A
HETATM   27  N4  UNL     1      15.341  36.530  -6.429  1.00  0.00    -0.080 NA
HETATM   28  N5  UNL     1      17.313  37.879  -6.615  1.00  0.00    -0.177 N
HETATM   29  C13 UNL     1      18.431  38.284  -7.222  1.00  0.00     0.678 A
ATOM     30  H5  UNL     1      17.050  38.314  -5.730  1.00  0.00     0.185 HD
HETATM   31  N7  UNL     1      18.781  37.715  -8.387  1.00  0.00    -0.175 N
HETATM   32  C14 UNL     1      18.027  36.761  -8.931  1.00  0.00     0.145 A
ATOM     33  H7  UNL     1      19.634  38.016  -8.859  1.00  0.00     0.186 HD
BRANCH  29  34
HETATM   34  N6  UNL     1      19.189  39.211  -6.717  1.00  0.00    -0.234 N
ATOM     35  H62 UNL     1      18.919  39.649  -5.837  1.00  0.00     0.174 HD
ATOM     36  H61 UNL     1      20.047  39.514  -7.176  1.00  0.00     0.174 HD
ENDBRANCH  29  34
BRANCH  32  37
HETATM   37  N8  UNL     1      18.356  36.204 -10.058  1.00  0.00    -0.383 N
ATOM     38  H82 UNL     1      17.647  35.822 -10.684  1.00  0.00     0.157 HD
ATOM     39  H81 UNL     1      19.346  36.160 -10.298  1.00  0.00     0.157 HD
ENDBRANCH  32  37
ENDBRANCH  23  25
ENDBRANCH   1  23
TORSDOF 14
ENDMDL