MODEL 4
REMARK VINA RESULT: -8.863730792      4.444      8.955
REMARK  10 active torsions:
REMARK  status: ('A' for Active; 'I' for Inactive)
REMARK    1  A    between atoms: C3_4  and  C4_5
REMARK    2  A    between atoms: C5_8  and  C6_9
REMARK    3  A    between atoms: C9_17  and  N5_18
REMARK    4  A    between atoms: C10_22  and  O3_23
REMARK    5  A    between atoms: C12_27  and  C13_28
REMARK       I    between atoms: C13_28  and  N7_30
REMARK    6  A    between atoms: N7_30  and  C14_32
REMARK    7  A    between atoms: C14_32  and  C15_33
REMARK    8  A    between atoms: C15_33  and  C16_34
REMARK    9  A    between atoms: C16_34  and  C17_35
REMARK   10  A    between atoms: C17_35  and  O5_36
ROOT
HETATM    1  C6  UNL     1      15.103  30.965  -8.656  1.00  0.00     0.099 A
HETATM    2  C7  UNL     1      16.285  31.571  -9.023  1.00  0.00     0.146 A
HETATM    3  C8  UNL     1      16.446  32.982  -9.179  1.00  0.00     0.120 C
HETATM    4  N2  UNL     1      16.562  34.136  -9.297  1.00  0.00    -0.190 NA
HETATM    5  N3  UNL     1      17.240  30.625  -9.203  1.00  0.00    -0.288 N
ATOM      6  H3  UNL     1      18.208  30.788  -9.477  1.00  0.00     0.188 HD
HETATM    7  N4  UNL     1      16.682  29.451  -8.958  1.00  0.00    -0.284 N
ATOM      8  H4  UNL     1      17.159  28.552  -9.013  1.00  0.00     0.188 HD
HETATM    9  C9  UNL     1      15.384  29.624  -8.622  1.00  0.00     0.131 A
ENDROOT
BRANCH   1  10
HETATM   10  C5  UNL     1      13.817  31.582  -8.360  1.00  0.00     0.168 A
HETATM   11  N1  UNL     1      13.569  32.298  -7.252  1.00  0.00    -0.329 N
HETATM   12  C4  UNL     1      12.270  32.747  -7.261  1.00  0.00     0.129 A
ATOM     13  H1  UNL     1      14.246  32.483  -6.511  1.00  0.00     0.168 HD
HETATM   14  C10 UNL     1      11.767  32.263  -8.423  1.00  0.00     0.215 A
HETATM   15  O2  UNL     1      12.714  31.572  -9.056  1.00  0.00    -0.268 OA
BRANCH  12  16
HETATM   16  C3  UNL     1      11.688  33.554  -6.197  1.00  0.00     0.132 A
HETATM   17  O1  UNL     1      11.909  33.302  -4.906  1.00  0.00    -0.310 OA
HETATM   18  C2  UNL     1      11.306  34.129  -4.124  1.00  0.00     0.067 A
HETATM   19  C1  UNL     1      11.365  34.097  -2.615  1.00  0.00     0.078 C
HETATM   20  C12 UNL     1      10.608  35.032  -4.886  1.00  0.00     0.088 A
HETATM   21  C11 UNL     1      10.873  34.638  -6.196  1.00  0.00     0.100 A
HETATM   22  N6  UNL     1      10.348  35.298  -7.323  1.00  0.00    -0.098 NA
BRANCH  20  23
HETATM   23  C13 UNL     1       9.768  36.159  -4.536  1.00  0.00     0.256 C
HETATM   24  O4  UNL     1       8.618  35.908  -4.003  1.00  0.00    -0.268 OA
HETATM   25  N7  UNL     1      10.036  37.523  -4.702  1.00  0.00    -0.357 N
ATOM     26  H7  UNL     1      10.928  37.793  -5.116  1.00  0.00     0.162 HD
BRANCH  25  27
HETATM   27  C14 UNL     1       9.110  38.573  -4.316  1.00  0.00     0.123 C
BRANCH  27  28
HETATM   28  C15 UNL     1       8.629  39.429  -5.431  1.00  0.00     0.022 C
BRANCH  28  29
HETATM   29  C16 UNL     1       9.751  40.116  -6.175  1.00  0.00     0.028 C
BRANCH  29  30
HETATM   30  C17 UNL     1       9.807  39.635  -7.620  1.00  0.00     0.164 C
BRANCH  30  31
HETATM   31  O5  UNL     1      10.135  38.292  -7.689  1.00  0.00    -0.401 OA
ATOM     32  H5  UNL     1      10.297  38.024  -8.585  1.00  0.00     0.209 HD
ENDBRANCH  30  31
ENDBRANCH  29  30
ENDBRANCH  28  29
ENDBRANCH  27  28
ENDBRANCH  25  27
ENDBRANCH  20  23
ENDBRANCH  12  16
BRANCH  14  33
HETATM   33  O3  UNL     1      10.482  32.431  -8.915  1.00  0.00    -0.339 OA
ATOM     34  H3  UNL     1       9.763  32.891  -8.498  1.00  0.00     0.220 HD
ENDBRANCH  14  33
ENDBRANCH   1  10
BRANCH   9  35
HETATM   35  N5  UNL     1      14.590  28.659  -8.332  1.00  0.00    -0.384 N
ATOM     36  H52 UNL     1      14.291  28.439  -7.382  1.00  0.00     0.157 HD
ATOM     37  H51 UNL     1      14.154  27.992  -8.969  1.00  0.00     0.157 HD
ENDBRANCH   9  35
TORSDOF 10
ENDMDL