MODEL 2
REMARK VINA RESULT: -9.085424502      2.109      3.356
REMARK  11 active torsions:
REMARK  status: ('A' for Active; 'I' for Inactive)
REMARK    1  A    between atoms: C2_2  and  C3_3
REMARK    2  A    between atoms: C3_3  and  C4_4
REMARK    3  A    between atoms: C4_4  and  C5_5
REMARK    4  A    between atoms: C5_5  and  C6_6
REMARK    5  A    between atoms: C6_6  and  C7_7
REMARK    6  A    between atoms: N1_8  and  N2_10
REMARK    7  A    between atoms: N2_10  and  C8_12
REMARK    8  A    between atoms: C9_15  and  N4_16
REMARK    9  A    between atoms: N6_22  and  C11_23
REMARK   10  A    between atoms: C14_29  and  O1_30
REMARK   11  A    between atoms: C15_32  and  O2_33
ROOT
HETATM    1  C8  UNL     1      15.859  29.883  -7.933  1.00  0.00     0.699 C
HETATM    2  N3  UNL     1      15.284  30.233  -9.082  1.00  0.00    -0.173 N
ATOM      3  H3  UNL     1      15.457  29.604  -9.866  1.00  0.00     0.186 HD
HETATM    4  C9  UNL     1      14.516  31.285  -9.356  1.00  0.00     0.145 C
HETATM    5  C10 UNL     1      13.884  32.181  -8.483  1.00  0.00     0.124 A
HETATM    6  N5  UNL     1      12.967  33.140  -8.408  1.00  0.00    -0.290 N
ATOM      7  H5  UNL     1      12.339  33.589  -9.075  1.00  0.00     0.187 HD
HETATM    8  N6  UNL     1      13.206  33.275  -7.094  1.00  0.00    -0.252 N
HETATM    9  C16 UNL     1      14.143  32.305  -7.142  1.00  0.00     0.123 A
HETATM   10  C17 UNL     1      15.064  31.579  -6.394  1.00  0.00     0.147 C
HETATM   11  S1  UNL     1      15.304  32.224  -4.906  1.00  0.00    -0.057 SA
HETATM   12  N8  UNL     1      15.746  30.470  -6.730  1.00  0.00    -0.178 N
ATOM     13  H8  UNL     1      16.245  30.011  -5.967  1.00  0.00     0.185 HD
ENDROOT
BRANCH   8  14
HETATM   14  C11 UNL     1      12.694  34.109  -6.025  1.00  0.00     0.338 C
HETATM   15  N7  UNL     1      12.103  35.291  -6.612  1.00  0.00    -0.043 N
HETATM   16  C12 UNL     1      10.937  35.620  -5.857  1.00  0.00     0.215 C
ATOM     17  H72 UNL     1      12.760  36.068  -6.681  1.00  0.00     0.280 HD
ATOM     18  H71 UNL     1      11.912  35.184  -7.608  1.00  0.00     0.280 HD
HETATM   19  C13 UNL     1       9.699  35.782  -6.718  1.00  0.00     0.043 C
HETATM   20  C14 UNL     1      10.684  34.533  -4.863  1.00  0.00     0.181 C
HETATM   21  C15 UNL     1      11.637  33.399  -5.259  1.00  0.00     0.201 C
BRANCH  20  22
HETATM   22  O1  UNL     1      11.005  35.020  -3.592  1.00  0.00    -0.391 OA
ATOM     23  H1  UNL     1      10.232  34.954  -3.045  1.00  0.00     0.210 HD
ENDBRANCH  20  22
BRANCH  21  24
HETATM   24  O2  UNL     1      10.985  32.410  -5.976  1.00  0.00    -0.389 OA
ATOM     25  H2  UNL     1      10.401  32.739  -6.650  1.00  0.00     0.210 HD
ENDBRANCH  21  24
ENDBRANCH   8  14
BRANCH   4  26
HETATM   26  N4  UNL     1      14.309  31.532 -10.627  1.00  0.00    -0.383 N
ATOM     27  H42 UNL     1      15.108  31.337 -11.229  1.00  0.00     0.157 HD
ATOM     28  H41 UNL     1      13.384  31.888 -10.871  1.00  0.00     0.157 HD
ENDBRANCH   4  26
BRANCH   1  29
HETATM   29  N2  UNL     1      16.636  28.829  -7.984  1.00  0.00    -0.133 N
ATOM     30  H2  UNL     1      16.521  28.132  -8.720  1.00  0.00     0.205 HD
BRANCH  29  31
HETATM   31  N1  UNL     1      17.608  28.684  -7.023  1.00  0.00    -0.301 N
HETATM   32  C7  UNL     1      17.941  27.584  -6.470  1.00  0.00     0.080 C
ATOM     33  H1  UNL     1      18.103  29.526  -6.729  1.00  0.00     0.186 HD
BRANCH  32  34
HETATM   34  C6  UNL     1      17.274  26.328  -6.842  1.00  0.00     0.046 C
BRANCH  34  35
HETATM   35  C5  UNL     1      18.016  25.173  -6.142  1.00  0.00     0.005 C
BRANCH  35  36
HETATM   36  C4  UNL     1      18.697  25.720  -4.928  1.00  0.00     0.000 C
BRANCH  36  37
HETATM   37  C3  UNL     1      18.684  24.939  -3.684  1.00  0.00    -0.000 C
BRANCH  37  38
HETATM   38  C2  UNL     1      19.815  24.046  -3.392  1.00  0.00    -0.005 C
HETATM   39  C1  UNL     1      21.104  24.441  -4.042  1.00  0.00     0.005 C
ENDBRANCH  37  38
ENDBRANCH  36  37
ENDBRANCH  35  36
ENDBRANCH  34  35
ENDBRANCH  32  34
ENDBRANCH  29  31
ENDBRANCH   1  29
TORSDOF 11
ENDMDL