MODEL 3
REMARK VINA RESULT: -7.962237584      1.560      4.547
REMARK  9 active torsions:
REMARK  status: ('A' for Active; 'I' for Inactive)
REMARK    1  A    between atoms: C2_2  and  C3_3
REMARK    2  A    between atoms: C4_6  and  S1_7
REMARK    3  A    between atoms: S1_7  and  C5_8
REMARK    4  A    between atoms: C5_8  and  C6_9
REMARK    5  A    between atoms: C6_9  and  C7_10
REMARK    6  A    between atoms: C7_10  and  C8_11
REMARK    7  A    between atoms: C9_13  and  N2_14
REMARK    8  A    between atoms: C12_21  and  C13_22
REMARK    9  A    between atoms: C14_25  and  N5_26
ROOT
HETATM    1  C3  UNL     1      16.773  33.797  -9.565  1.00  0.00     0.084 A
HETATM    2  N1  UNL     1      16.794  32.489  -9.804  1.00  0.00    -0.338 N
ATOM      3  H1  UNL     1      17.408  32.035 -10.481  1.00  0.00     0.168 HD
HETATM    4  C4  UNL     1      15.891  31.842  -9.029  1.00  0.00     0.102 A
HETATM    5  C12 UNL     1      15.265  32.798  -8.257  1.00  0.00     0.115 A
HETATM    6  N9  UNL     1      15.824  33.981  -8.606  1.00  0.00    -0.336 N
HETATM    7  C16 UNL     1      15.500  35.288  -8.073  1.00  0.00     0.158 C
ENDROOT
BRANCH   5   8
HETATM    8  C13 UNL     1      14.212  32.645  -7.253  1.00  0.00     0.166 A
HETATM    9  N4  UNL     1      14.341  31.642  -6.332  1.00  0.00    -0.173 N
HETATM   10  C14 UNL     1      13.457  31.401  -5.363  1.00  0.00     0.692 A
ATOM     11  H4  UNL     1      15.163  31.042  -6.391  1.00  0.00     0.186 HD
HETATM   12  N6  UNL     1      12.357  32.179  -5.264  1.00  0.00    -0.023 N
HETATM   13  C15 UNL     1      12.213  33.162  -6.152  1.00  0.00     0.692 A
ATOM     14  H6  UNL     1      11.661  32.021  -4.535  1.00  0.00     0.203 HD
HETATM   15  N7  UNL     1      11.171  33.926  -6.089  1.00  0.00    -0.234 N
HETATM   16  N8  UNL     1      13.137  33.396  -7.145  1.00  0.00    -0.173 N
ATOM     17  H72 UNL     1      10.486  33.753  -5.353  1.00  0.00     0.174 HD
ATOM     18  H71 UNL     1      11.061  34.679  -6.769  1.00  0.00     0.174 HD
ATOM     19  H8  UNL     1      12.987  34.160  -7.804  1.00  0.00     0.186 HD
BRANCH  10  20
HETATM   20  N5  UNL     1      13.586  30.459  -4.501  1.00  0.00    -0.234 N
ATOM     21  H52 UNL     1      14.450  30.441  -3.959  1.00  0.00     0.174 HD
ATOM     22  H51 UNL     1      12.879  29.743  -4.336  1.00  0.00     0.174 HD
ENDBRANCH  10  20
ENDBRANCH   5   8
BRANCH   4  23
HETATM   23  S1  UNL     1      15.599  30.059  -9.046  1.00  0.00    -0.110 SA
BRANCH  23  24
HETATM   24  C5  UNL     1      16.266  29.416  -7.457  1.00  0.00     0.081 C
BRANCH  24  25
HETATM   25  C6  UNL     1      16.294  27.901  -7.496  1.00  0.00     0.016 C
BRANCH  25  26
HETATM   26  C7  UNL     1      16.288  27.364  -6.093  1.00  0.00     0.049 C
BRANCH  26  27
HETATM   27  C8  UNL     1      17.544  26.555  -5.852  1.00  0.00     0.008 A
HETATM   28  S2  UNL     1      18.961  26.921  -4.973  1.00  0.00    -0.057 SA
HETATM   29  C9  UNL     1      19.814  25.468  -5.256  1.00  0.00     0.142 A
HETATM   30  N3  UNL     1      18.965  24.768  -6.015  1.00  0.00    -0.340 N
HETATM   31  C10 UNL     1      17.820  25.300  -6.323  1.00  0.00     0.020 A
ATOM     32  H3  UNL     1      19.212  23.835  -6.345  1.00  0.00     0.168 HD
HETATM   33  C11 UNL     1      16.785  24.580  -7.176  1.00  0.00     0.069 C
BRANCH  29  34
HETATM   34  N2  UNL     1      21.013  25.120  -4.832  1.00  0.00    -0.380 N
ATOM     35  H22 UNL     1      21.276  24.718  -3.932  1.00  0.00     0.158 HD
ATOM     36  H21 UNL     1      21.906  25.185  -5.321  1.00  0.00     0.158 HD
ENDBRANCH  29  34
ENDBRANCH  26  27
ENDBRANCH  25  26
ENDBRANCH  24  25
ENDBRANCH  23  24
ENDBRANCH   4  23
BRANCH   1  37
HETATM   37  C2  UNL     1      17.611  34.875 -10.192  1.00  0.00     0.072 C
HETATM   38  C1  UNL     1      18.561  34.354 -11.225  1.00  0.00     0.013 C
ENDBRANCH   1  37
TORSDOF 9
ENDMDL