MODEL 1
REMARK VINA RESULT: -7.862411470      0.000      0.000
REMARK  14 active torsions:
REMARK  status: ('A' for Active; 'I' for Inactive)
REMARK    1  A    between atoms: C2_2  and  N1_3
REMARK    2  A    between atoms: N1_3  and  C3_5
REMARK    3  A    between atoms: C3_5  and  S1_9
REMARK    4  A    between atoms: S1_9  and  C4_10
REMARK    5  A    between atoms: C4_10  and  C5_11
REMARK    6  A    between atoms: C5_11  and  C6_12
REMARK    7  A    between atoms: C6_12  and  S2_13
REMARK    8  A    between atoms: S2_13  and  C7_14
REMARK    9  A    between atoms: C7_14  and  C8_15
REMARK   10  A    between atoms: C9_17  and  S4_18
REMARK   11  A    between atoms: S4_18  and  C10_19
REMARK   12  A    between atoms: C11_24  and  O1_25
REMARK   13  A    between atoms: C12_27  and  O2_28
REMARK   14  A    between atoms: C13_30  and  O3_31
ROOT
HETATM    1  C8  UNL     1      14.796  32.258  -8.107  1.00  0.00     0.089 C
HETATM    2  S3  UNL     1      13.109  31.519  -8.000  1.00  0.00    -0.142 SA
HETATM    3  C9  UNL     1      12.108  32.772  -7.087  1.00  0.00     0.147 C
HETATM    4  C11 UNL     1      12.400  34.063  -7.869  1.00  0.00     0.173 C
HETATM    5  C12 UNL     1      13.801  34.514  -7.682  1.00  0.00     0.178 C
HETATM    6  C13 UNL     1      14.750  33.681  -8.528  1.00  0.00     0.164 C
ENDROOT
BRANCH   1   7
HETATM    7  C7  UNL     1      15.688  31.371  -8.889  1.00  0.00     0.091 C
BRANCH   7   8
HETATM    8  S2  UNL     1      15.521  29.659  -8.552  1.00  0.00    -0.168 SA
BRANCH   8   9
HETATM    9  C6  UNL     1      16.193  28.994  -7.061  1.00  0.00     0.075 C
BRANCH   9  10
HETATM   10  C5  UNL     1      15.691  27.581  -6.762  1.00  0.00     0.021 C
BRANCH  10  11
HETATM   11  C4  UNL     1      16.602  26.628  -7.515  1.00  0.00     0.083 C
BRANCH  11  12
HETATM   12  S1  UNL     1      17.326  25.383  -6.426  1.00  0.00    -0.095 SA
BRANCH  12  13
HETATM   13  C3  UNL     1      18.717  26.079  -5.568  1.00  0.00     0.133 C
HETATM   14  N2  UNL     1      18.541  27.104  -4.817  1.00  0.00    -0.380 N
ATOM     15  H22 UNL     1      19.341  27.503  -4.325  1.00  0.00     0.158 HD
ATOM     16  H21 UNL     1      17.623  27.532  -4.697  1.00  0.00     0.158 HD
BRANCH  13  17
HETATM   17  N1  UNL     1      19.990  25.484  -5.734  1.00  0.00    -0.371 N
ATOM     18  H1  UNL     1      20.423  25.424  -6.656  1.00  0.00     0.161 HD
BRANCH  17  19
HETATM   19  C2  UNL     1      20.670  24.957  -4.549  1.00  0.00     0.117 C
HETATM   20  C1  UNL     1      19.939  23.774  -3.995  1.00  0.00     0.026 C
ENDBRANCH  17  19
ENDBRANCH  13  17
ENDBRANCH  12  13
ENDBRANCH  11  12
ENDBRANCH  10  11
ENDBRANCH   9  10
ENDBRANCH   8   9
ENDBRANCH   7   8
ENDBRANCH   1   7
BRANCH   6  21
HETATM   21  O3  UNL     1      14.390  33.788  -9.844  1.00  0.00    -0.392 OA
ATOM     22  H3  UNL     1      14.620  34.643 -10.188  1.00  0.00     0.210 HD
ENDBRANCH   6  21
BRANCH   3  23
HETATM   23  S4  UNL     1      12.743  32.795  -5.420  1.00  0.00    -0.080 SA
BRANCH  23  24
HETATM   24  C10 UNL     1      13.833  31.508  -4.976  1.00  0.00     0.149 C
HETATM   25  N3  UNL     1      13.538  30.286  -4.780  1.00  0.00    -0.382 N
ATOM     26  H32 UNL     1      12.550  30.057  -4.878  1.00  0.00     0.157 HD
ATOM     27  H31 UNL     1      14.176  29.534  -4.519  1.00  0.00     0.157 HD
HETATM   28  N4  UNL     1      15.233  31.832  -4.836  1.00  0.00    -0.075 NA
ENDBRANCH  23  24
ENDBRANCH   3  23
BRANCH   5  29
HETATM   29  O2  UNL     1      14.236  34.640  -6.387  1.00  0.00    -0.390 OA
ATOM     30  H2  UNL     1      14.784  33.940  -6.053  1.00  0.00     0.210 HD
ENDBRANCH   5  29
BRANCH   4  31
HETATM   31  O1  UNL     1      11.438  35.027  -7.711  1.00  0.00    -0.391 OA
ATOM     32  H1  UNL     1      11.164  35.426  -8.529  1.00  0.00     0.210 HD
ENDBRANCH   4  31
TORSDOF 14
ENDMDL