MODEL 4
REMARK VINA RESULT: -7.379493528      2.860      6.820
REMARK  11 active torsions:
REMARK  status: ('A' for Active; 'I' for Inactive)
REMARK    1  A    between atoms: S1_2  and  C2_3
REMARK    2  A    between atoms: C2_3  and  C3_4
REMARK    3  A    between atoms: N1_6  and  O1_7
REMARK    4  A    between atoms: C6_10  and  N2_11
REMARK    5  A    between atoms: N2_11  and  C7_13
REMARK    6  A    between atoms: C7_13  and  C8_14
REMARK    7  A    between atoms: C8_14  and  N3_15
REMARK    8  A    between atoms: N3_15  and  C9_17
REMARK    9  A    between atoms: C9_17  and  C10_18
REMARK   10  A    between atoms: C10_18  and  O2_19
REMARK   11  A    between atoms: C15_31  and  O4_32
ROOT
HETATM    1  C3  UNL     1      12.315  33.670  -6.308  1.00  0.00    -0.015 A
HETATM    2  C4  UNL     1      11.650  32.502  -6.657  1.00  0.00     0.132 A
HETATM    3  N1  UNL     1      12.303  31.936  -7.701  1.00  0.00    -0.232 N
HETATM    4  C5  UNL     1      13.361  32.717  -8.020  1.00  0.00     0.104 A
HETATM    5  C6  UNL     1      14.379  32.627  -8.985  1.00  0.00     0.087 A
HETATM    6  C11 UNL     1      15.349  33.581  -9.051  1.00  0.00     0.082 A
HETATM    7  N4  UNL     1      16.322  33.429  -9.979  1.00  0.00    -0.330 N
ATOM      8  H4  UNL     1      16.311  32.629 -10.612  1.00  0.00     0.168 HD
HETATM    9  C12 UNL     1      17.293  34.334 -10.054  1.00  0.00     0.179 A
HETATM   10  S2  UNL     1      18.476  34.190 -11.149  1.00  0.00    -0.040 SA
HETATM   11  N5  UNL     1      17.318  35.385  -9.228  1.00  0.00    -0.299 N
ATOM     12  H5  UNL     1      18.074  36.063  -9.309  1.00  0.00     0.171 HD
HETATM   13  C13 UNL     1      16.356  35.570  -8.280  1.00  0.00     0.263 A
HETATM   14  O3  UNL     1      16.394  36.553  -7.518  1.00  0.00    -0.267 OA
HETATM   15  C14 UNL     1      15.350  34.656  -8.182  1.00  0.00     0.095 A
HETATM   16  C15 UNL     1      14.374  34.796  -7.220  1.00  0.00     0.097 A
HETATM   17  C16 UNL     1      13.392  33.790  -7.178  1.00  0.00     0.038 A
ENDROOT
BRANCH   5  18
HETATM   18  N2  UNL     1      14.241  31.502  -9.844  1.00  0.00    -0.381 N
ATOM     19  H2  UNL     1      13.699  31.608 -10.702  1.00  0.00     0.160 HD
BRANCH  18  20
HETATM   20  C7  UNL     1      14.829  30.226  -9.556  1.00  0.00     0.164 C
BRANCH  20  21
HETATM   21  C8  UNL     1      15.839  30.099  -8.501  1.00  0.00     0.079 C
BRANCH  21  22
HETATM   22  N3  UNL     1      16.120  28.820  -7.988  1.00  0.00    -0.379 N
ATOM     23  H3  UNL     1      16.235  28.031  -8.623  1.00  0.00     0.164 HD
BRANCH  22  24
HETATM   24  C9  UNL     1      16.243  28.626  -6.600  1.00  0.00     0.086 C
BRANCH  24  25
HETATM   25  C10 UNL     1      16.908  27.382  -6.124  1.00  0.00     0.208 C
BRANCH  25  26
HETATM   26  O2  UNL     1      18.089  27.581  -5.441  1.00  0.00    -0.396 OA
ATOM     27  H2  UNL     1      18.219  27.010  -4.692  1.00  0.00     0.209 HD
ENDBRANCH  25  26
ENDBRANCH  24  25
ENDBRANCH  22  24
ENDBRANCH  21  22
ENDBRANCH  20  21
ENDBRANCH  18  20
ENDBRANCH   5  18
BRANCH   3  28
HETATM   28  O1  UNL     1      11.988  30.767  -8.331  1.00  0.00    -0.283 OA
ATOM     29  H1  UNL     1      12.578  30.052  -8.539  1.00  0.00     0.245 HD
ENDBRANCH   3  28
BRANCH   1  30
HETATM   30  C2  UNL     1      11.948  34.601  -5.213  1.00  0.00     0.114 C
BRANCH  30  31
HETATM   31  S1  UNL     1      10.158  34.814  -5.094  1.00  0.00    -0.169 SA
HETATM   32  C1  UNL     1       9.577  35.574  -6.632  1.00  0.00     0.090 C
ENDBRANCH  30  31
ENDBRANCH   1  30
BRANCH  16  33
HETATM   33  O4  UNL     1      14.284  35.799  -6.333  1.00  0.00    -0.359 OA
ATOM     34  H4  UNL     1      13.835  36.624  -6.472  1.00  0.00     0.217 HD
ENDBRANCH  16  33
TORSDOF 11
ENDMDL