MODEL 1
REMARK VINA RESULT: -8.118800090      0.000      0.000
REMARK  12 active torsions:
REMARK  status: ('A' for Active; 'I' for Inactive)
REMARK    1  A    between atoms: S1_2  and  C2_3
REMARK    2  A    between atoms: C2_3  and  C3_4
REMARK    3  A    between atoms: C3_4  and  N2_7
REMARK    4  A    between atoms: N2_7  and  C5_9
REMARK    5  A    between atoms: C5_9  and  O1_10
REMARK    6  A    between atoms: C5_9  and  C6_12
REMARK    7  A    between atoms: C7_13  and  C8_14
REMARK    8  A    between atoms: C8_14  and  O2_17
REMARK    9  A    between atoms: C11_23  and  N5_24
REMARK   10  A    between atoms: N5_24  and  C12_26
REMARK   11  A    between atoms: C12_26  and  C13_27
REMARK   12  A    between atoms: C14_29  and  N6_30
ROOT
HETATM    1  C3  UNL     1      15.873  33.742  -9.131  1.00  0.00     0.200 C
HETATM    2  C4  UNL     1      16.469  32.440  -9.476  1.00  0.00     0.085 C
HETATM    3  N1  UNL     1      16.944  31.423  -9.766  1.00  0.00    -0.195 NA
ENDROOT
BRANCH   1   4
HETATM    4  C2  UNL     1      16.740  34.871  -9.553  1.00  0.00     0.113 C
BRANCH   4   5
HETATM    5  S1  UNL     1      17.137  34.919 -11.303  1.00  0.00    -0.171 SA
HETATM    6  C1  UNL     1      18.777  34.309 -11.700  1.00  0.00     0.089 C
ENDBRANCH   4   5
ENDBRANCH   1   4
BRANCH   1   7
HETATM    7  N2  UNL     1      15.719  33.668  -7.641  1.00  0.00    -0.352 N
ATOM      8  H2  UNL     1      16.238  34.292  -7.023  1.00  0.00     0.163 HD
BRANCH   7   9
HETATM    9  C5  UNL     1      14.841  32.718  -7.137  1.00  0.00     0.153 C
BRANCH   9  10
HETATM   10  O1  UNL     1      15.187  32.336  -5.930  1.00  0.00    -0.346 OA
ATOM     11  H1  UNL     1      15.530  31.450  -5.929  1.00  0.00     0.219 HD
ENDBRANCH   9  10
BRANCH   9  12
HETATM   12  C6  UNL     1      13.656  32.091  -7.682  1.00  0.00     0.086 A
HETATM   13  C7  UNL     1      12.397  32.625  -7.824  1.00  0.00     0.077 A
HETATM   14  N3  UNL     1      11.625  31.606  -8.348  1.00  0.00    -0.299 N
HETATM   15  N4  UNL     1      12.336  30.540  -8.516  1.00  0.00    -0.285 N
ATOM     16  H3  UNL     1      10.633  31.685  -8.571  1.00  0.00     0.186 HD
HETATM   17  C11 UNL     1      13.624  30.755  -8.124  1.00  0.00     0.133 A
ATOM     18  H4  UNL     1      11.983  29.659  -8.890  1.00  0.00     0.188 HD
BRANCH  13  19
HETATM   19  C8  UNL     1      11.862  33.972  -7.512  1.00  0.00     0.095 C
HETATM   20  C9  UNL     1      11.682  33.969  -5.942  1.00  0.00     0.052 C
HETATM   21  C10 UNL     1      10.512  34.259  -8.061  1.00  0.00     0.052 C
BRANCH  19  22
HETATM   22  O2  UNL     1      12.808  34.987  -7.662  1.00  0.00    -0.384 OA
ATOM     23  H2  UNL     1      13.407  35.050  -6.927  1.00  0.00     0.211 HD
ENDBRANCH  19  22
ENDBRANCH  13  19
BRANCH  17  24
HETATM   24  N5  UNL     1      14.669  29.822  -8.178  1.00  0.00    -0.370 N
ATOM     25  H5  UNL     1      15.616  30.106  -8.431  1.00  0.00     0.161 HD
BRANCH  24  26
HETATM   26  C12 UNL     1      14.355  28.419  -7.857  1.00  0.00     0.171 C
BRANCH  26  27
HETATM   27  C13 UNL     1      15.533  27.832  -7.123  1.00  0.00     0.045 A
HETATM   28  S2  UNL     1      16.363  26.367  -7.401  1.00  0.00    -0.054 SA
HETATM   29  C14 UNL     1      17.516  26.496  -6.150  1.00  0.00     0.143 A
HETATM   30  N7  UNL     1      17.207  27.662  -5.578  1.00  0.00    -0.325 N
HETATM   31  C15 UNL     1      16.212  28.348  -6.054  1.00  0.00     0.133 A
ATOM     32  H7  UNL     1      17.743  28.007  -4.782  1.00  0.00     0.169 HD
HETATM   33  N8  UNL     1      15.794  29.633  -5.503  1.00  0.00    -0.081 NA
BRANCH  29  34
HETATM   34  N6  UNL     1      18.478  25.661  -5.819  1.00  0.00    -0.380 N
ATOM     35  H62 UNL     1      18.435  24.882  -5.161  1.00  0.00     0.158 HD
ATOM     36  H61 UNL     1      19.442  25.627  -6.151  1.00  0.00     0.158 HD
ENDBRANCH  29  34
ENDBRANCH  26  27
ENDBRANCH  24  26
ENDBRANCH  17  24
ENDBRANCH   9  12
ENDBRANCH   7   9
ENDBRANCH   1   7
TORSDOF 12
ENDMDL