MODEL 3
REMARK VINA RESULT: -8.550733258      2.775      5.181
REMARK  14 active torsions:
REMARK  status: ('A' for Active; 'I' for Inactive)
REMARK    1  A    between atoms: C1_2  and  O2_4
REMARK    2  A    between atoms: O2_4  and  C2_5
REMARK    3  A    between atoms: C2_5  and  C3_6
REMARK    4  A    between atoms: C6_9  and  N2_10
REMARK    5  A    between atoms: N2_10  and  C7_12
REMARK    6  A    between atoms: C8_14  and  O4_15
REMARK    7  A    between atoms: C9_17  and  N3_18
REMARK    8  A    between atoms: N3_18  and  C10_20
REMARK    9  A    between atoms: C10_20  and  C11_21
REMARK   10  A    between atoms: C11_21  and  C12_22
REMARK   11  A    between atoms: C12_22  and  C13_23
REMARK   12  A    between atoms: C13_23  and  O5_24
REMARK   13  A    between atoms: C13_23  and  N4_26
REMARK   14  A    between atoms: N4_26  and  O6_28
ROOT
HETATM    1  C3  UNL     1      14.186  33.693  -6.804  1.00  0.00     0.036 A
HETATM    2  C4  UNL     1      15.028  33.005  -7.759  1.00  0.00    -0.002 A
HETATM    3  C5  UNL     1      15.617  33.686  -8.832  1.00  0.00     0.046 A
HETATM    4  C6  UNL     1      16.449  33.087  -9.744  1.00  0.00     0.070 A
HETATM    5  C8  UNL     1      16.692  31.711  -9.548  1.00  0.00     0.120 A
HETATM    6  C9  UNL     1      16.132  31.004  -8.510  1.00  0.00     0.079 A
HETATM    7  C14 UNL     1      15.299  31.637  -7.601  1.00  0.00     0.057 A
HETATM    8  C15 UNL     1      14.706  30.965  -6.456  1.00  0.00     0.216 A
HETATM    9  O7  UNL     1      14.927  29.740  -6.271  1.00  0.00    -0.285 OA
HETATM   10  C16 UNL     1      13.845  31.642  -5.471  1.00  0.00     0.142 A
HETATM   11  N5  UNL     1      13.087  31.643  -4.362  1.00  0.00    -0.254 N
ATOM     12  H5  UNL     1      12.800  30.958  -3.662  1.00  0.00     0.195 HD
HETATM   13  O8  UNL     1      12.880  32.926  -4.582  1.00  0.00    -0.234 OA
HETATM   14  C17 UNL     1      13.609  32.968  -5.667  1.00  0.00     0.144 A
ENDROOT
BRANCH   6  15
HETATM   15  N3  UNL     1      16.377  29.611  -8.342  1.00  0.00    -0.387 N
ATOM     16  H3  UNL     1      17.190  29.365  -7.778  1.00  0.00     0.159 HD
BRANCH  15  17
HETATM   17  C10 UNL     1      15.632  28.527  -8.860  1.00  0.00     0.120 C
BRANCH  17  18
HETATM   18  C11 UNL     1      15.910  27.144  -8.471  1.00  0.00     0.027 C
BRANCH  18  19
HETATM   19  C12 UNL     1      15.849  26.676  -7.085  1.00  0.00     0.087 C
BRANCH  19  20
HETATM   20  C13 UNL     1      17.072  26.915  -6.311  1.00  0.00     0.135 C
BRANCH  20  21
HETATM   21  O5  UNL     1      17.384  28.121  -5.761  1.00  0.00    -0.348 OA
ATOM     22  H5  UNL     1      18.275  28.398  -5.582  1.00  0.00     0.219 HD
ENDBRANCH  20  21
BRANCH  20  23
HETATM   23  N4  UNL     1      17.893  25.913  -6.147  1.00  0.00    -0.251 N
ATOM     24  H4  UNL     1      17.531  24.961  -6.215  1.00  0.00     0.196 HD
BRANCH  23  25
HETATM   25  O6  UNL     1      19.230  26.098  -5.884  1.00  0.00    -0.288 OA
ATOM     26  H6  UNL     1      19.640  26.953  -5.932  1.00  0.00     0.244 HD
ENDBRANCH  23  25
ENDBRANCH  20  23
ENDBRANCH  19  20
ENDBRANCH  18  19
ENDBRANCH  17  18
ENDBRANCH  15  17
ENDBRANCH   6  15
BRANCH   5  27
HETATM   27  O4  UNL     1      17.515  31.120 -10.443  1.00  0.00    -0.356 OA
ATOM     28  H4  UNL     1      17.748  30.218 -10.263  1.00  0.00     0.218 HD
ENDBRANCH   5  27
BRANCH   4  29
HETATM   29  N2  UNL     1      17.057  33.753 -10.835  1.00  0.00    -0.332 N
ATOM     30  H2  UNL     1      16.474  33.859 -11.666  1.00  0.00     0.168 HD
BRANCH  29  31
HETATM   31  C7  UNL     1      18.338  34.282 -10.929  1.00  0.00     0.353 C
HETATM   32  O3  UNL     1      19.366  33.644 -11.166  1.00  0.00    -0.283 OA
ENDBRANCH  29  31
ENDBRANCH   4  29
BRANCH   1  33
HETATM   33  C2  UNL     1      13.919  34.977  -6.939  1.00  0.00     0.162 C
BRANCH  33  34
HETATM   34  O2  UNL     1      14.631  35.885  -6.119  1.00  0.00    -0.275 OA
BRANCH  34  35
HETATM   35  C1  UNL     1      15.653  36.588  -6.711  1.00  0.00     0.377 C
HETATM   36  N1  UNL     1      16.970  36.578  -6.183  1.00  0.00    -0.032 NA
HETATM   37  O1  UNL     1      15.405  37.262  -7.756  1.00  0.00    -0.242 OA
ENDBRANCH  34  35
ENDBRANCH  33  34
ENDBRANCH   1  33
TORSDOF 14
ENDMDL