MODEL 2
REMARK VINA RESULT: -7.225716590      2.624      3.473
REMARK  10 active torsions:
REMARK  status: ('A' for Active; 'I' for Inactive)
REMARK    1  A    between atoms: C2_2  and  C3_3
REMARK    2  A    between atoms: C3_3  and  N1_4
REMARK    3  A    between atoms: C5_8  and  N3_9
REMARK    4  A    between atoms: C9_21  and  C10_22
REMARK    5  A    between atoms: C10_22  and  N6_23
REMARK    6  A    between atoms: N6_23  and  C11_26
REMARK    7  A    between atoms: C11_26  and  C12_27
REMARK    8  A    between atoms: C12_27  and  S2_28
REMARK    9  A    between atoms: S2_28  and  S3_29
REMARK   10  A    between atoms: S3_29  and  C13_30
ROOT
HETATM    1  N1  UNL     1      15.507  29.735  -6.458  1.00  0.00    -0.348 N
HETATM    2  C4  UNL     1      16.215  28.505  -6.441  1.00  0.00     0.131 A
HETATM    3  N2  UNL     1      17.192  28.363  -5.493  1.00  0.00    -0.176 N
ATOM      4  H2  UNL     1      17.373  29.125  -4.839  1.00  0.00     0.186 HD
HETATM    5  C5  UNL     1      17.914  27.238  -5.412  1.00  0.00     0.679 A
HETATM    6  N4  UNL     1      17.652  26.258  -6.285  1.00  0.00    -0.177 N
ATOM      7  H4  UNL     1      18.204  25.403  -6.220  1.00  0.00     0.186 HD
HETATM    8  C6  UNL     1      16.724  26.323  -7.226  1.00  0.00     0.125 A
HETATM    9  N5  UNL     1      16.526  25.338  -8.033  1.00  0.00    -0.384 N
ATOM     10  H51 UNL     1      15.811  25.388  -8.759  1.00  0.00     0.157 HD
ATOM     11  H52 UNL     1      17.087  24.489  -7.955  1.00  0.00     0.157 HD
HETATM   12  C7  UNL     1      15.959  27.481  -7.333  1.00  0.00     0.040 A
HETATM   13  C8  UNL     1      14.937  27.497  -8.392  1.00  0.00     0.122 C
HETATM   14  S1  UNL     1      14.075  29.075  -8.550  1.00  0.00    -0.137 SA
HETATM   15  C9  UNL     1      15.120  30.335  -7.722  1.00  0.00     0.174 C
ENDROOT
BRANCH  15  16
HETATM   16  C10 UNL     1      16.301  30.596  -8.610  1.00  0.00     0.268 C
BRANCH  16  17
HETATM   17  N6  UNL     1      16.288  31.892  -9.213  1.00  0.00    -0.072 N
ATOM     18  H62 UNL     1      16.545  32.609  -8.535  1.00  0.00     0.277 HD
ATOM     19  H61 UNL     1      17.064  31.992  -9.868  1.00  0.00     0.277 HD
BRANCH  17  20
HETATM   20  C11 UNL     1      15.028  32.218  -9.854  1.00  0.00     0.243 C
BRANCH  20  21
HETATM   21  C12 UNL     1      14.508  33.548  -9.298  1.00  0.00     0.114 C
BRANCH  21  22
HETATM   22  S2  UNL     1      15.884  34.392  -8.516  1.00  0.00    -0.088 SA
BRANCH  22  23
HETATM   23  S3  UNL     1      15.139  35.767  -7.080  1.00  0.00    -0.022 SA
BRANCH  23  24
HETATM   24  C13 UNL     1      16.363  37.022  -6.804  1.00  0.00     0.146 C
HETATM   25  N7  UNL     1      16.626  37.522  -5.627  1.00  0.00    -0.369 N
HETATM   26  C14 UNL     1      17.653  38.512  -5.701  1.00  0.00     0.141 C
ATOM     27  H7  UNL     1      16.159  37.242  -4.764  1.00  0.00     0.161 HD
HETATM   28  C15 UNL     1      17.942  38.661  -7.153  1.00  0.00     0.141 C
HETATM   29  N8  UNL     1      17.182  37.622  -7.789  1.00  0.00    -0.369 N
ATOM     30  H8  UNL     1      17.226  37.362  -8.775  1.00  0.00     0.161 HD
ENDBRANCH  23  24
ENDBRANCH  22  23
ENDBRANCH  21  22
ENDBRANCH  20  21
ENDBRANCH  17  20
ENDBRANCH  16  17
ENDBRANCH  15  16
BRANCH   1  31
HETATM   31  C3  UNL     1      15.184  30.371  -5.201  1.00  0.00     0.152 C
BRANCH  31  32
HETATM   32  C2  UNL     1      14.838  31.814  -5.396  1.00  0.00    -0.017 C
HETATM   33  C1  UNL     1      13.699  32.333  -4.964  1.00  0.00     0.008 C
ENDBRANCH  31  32
ENDBRANCH   1  31
BRANCH   5  34
HETATM   34  N3  UNL     1      18.827  27.141  -4.506  1.00  0.00    -0.234 N
ATOM     35  H32 UNL     1      18.801  27.673  -3.637  1.00  0.00     0.174 HD
ATOM     36  H31 UNL     1      19.611  26.506  -4.657  1.00  0.00     0.174 HD
ENDBRANCH   5  34
TORSDOF 10
ENDMDL