MODEL 4
REMARK VINA RESULT: -9.038755812      1.094      1.215
REMARK  9 active torsions:
REMARK  status: ('A' for Active; 'I' for Inactive)
REMARK    1  A    between atoms: C3_3  and  O1_4
REMARK    2  A    between atoms: C4_7  and  C5_8
REMARK    3  A    between atoms: C5_8  and  C6_9
REMARK       I    between atoms: C6_9  and  N1_11
REMARK    4  A    between atoms: N1_11  and  C7_13
REMARK    5  A    between atoms: C7_13  and  C8_14
REMARK    6  A    between atoms: C8_14  and  C9_15
REMARK    7  A    between atoms: C9_15  and  C10_16
REMARK    8  A    between atoms: C13_23  and  N4_24
REMARK    9  A    between atoms: C17_34  and  O4_35
ROOT
HETATM    1  C10 UNL     1      14.886  33.793  -7.127  1.00  0.00     0.102 C
HETATM    2  C11 UNL     1      14.258  35.111  -6.639  1.00  0.00     0.146 C
HETATM    3  N2  UNL     1      15.148  36.205  -6.758  1.00  0.00    -0.372 N
ATOM      4  H2  UNL     1      15.035  37.003  -6.131  1.00  0.00     0.161 HD
HETATM    5  C12 UNL     1      16.189  36.232  -7.714  1.00  0.00     0.147 A
HETATM    6  N3  UNL     1      17.045  37.272  -7.804  1.00  0.00    -0.175 N
ATOM      7  H3  UNL     1      16.962  38.070  -7.174  1.00  0.00     0.186 HD
HETATM    8  C13 UNL     1      18.002  37.234  -8.736  1.00  0.00     0.678 A
HETATM    9  N5  UNL     1      18.158  36.211  -9.589  1.00  0.00    -0.179 N
ATOM     10  H5  UNL     1      18.904  36.223 -10.286  1.00  0.00     0.185 HD
HETATM   11  C14 UNL     1      17.304  35.157  -9.510  1.00  0.00     0.146 A
HETATM   12  S1  UNL     1      17.445  33.883 -10.509  1.00  0.00    -0.057 SA
HETATM   13  C15 UNL     1      16.308  35.149  -8.575  1.00  0.00     0.114 A
HETATM   14  N6  UNL     1      15.376  34.029  -8.478  1.00  0.00    -0.373 N
HETATM   15  C16 UNL     1      15.043  33.370  -9.679  1.00  0.00     0.150 C
ENDROOT
BRANCH   1  16
HETATM   16  C9  UNL     1      13.910  32.736  -6.888  1.00  0.00     0.028 C
BRANCH  16  17
HETATM   17  C8  UNL     1      13.409  32.483  -5.517  1.00  0.00     0.022 C
BRANCH  17  18
HETATM   18  C7  UNL     1      13.817  31.136  -4.972  1.00  0.00     0.122 C
BRANCH  18  19
HETATM   19  N1  UNL     1      14.912  30.624  -5.771  1.00  0.00    -0.361 N
HETATM   20  C6  UNL     1      14.757  29.800  -6.919  1.00  0.00     0.223 C
HETATM   21  O3  UNL     1      13.662  29.422  -7.381  1.00  0.00    -0.273 OA
ATOM     22  H1  UNL     1      15.861  30.872  -5.489  1.00  0.00     0.162 HD
BRANCH  20  23
HETATM   23  C5  UNL     1      15.983  29.347  -7.633  1.00  0.00     0.170 C
BRANCH  23  24
HETATM   24  C4  UNL     1      16.519  28.119  -7.027  1.00  0.00     0.098 A
HETATM   25  O2  UNL     1      17.083  28.052  -5.841  1.00  0.00    -0.289 OA
HETATM   26  C3  UNL     1      17.461  26.830  -5.574  1.00  0.00     0.192 A
HETATM   27  C2  UNL     1      17.124  26.046  -6.655  1.00  0.00     0.032 A
HETATM   28  C1  UNL     1      17.385  24.582  -6.750  1.00  0.00     0.056 C
HETATM   29  C17 UNL     1      16.519  26.854  -7.596  1.00  0.00     0.106 A
BRANCH  26  30
HETATM   30  O1  UNL     1      18.089  26.361  -4.428  1.00  0.00    -0.340 OA
ATOM     31  H1  UNL     1      18.821  26.790  -4.002  1.00  0.00     0.220 HD
ENDBRANCH  26  30
BRANCH  29  32
HETATM   32  O4  UNL     1      16.030  26.466  -8.828  1.00  0.00    -0.357 OA
ATOM     33  H4  UNL     1      16.459  26.570  -9.669  1.00  0.00     0.217 HD
ENDBRANCH  29  32
ENDBRANCH  23  24
ENDBRANCH  20  23
ENDBRANCH  18  19
ENDBRANCH  17  18
ENDBRANCH  16  17
ENDBRANCH   1  16
BRANCH   8  34
HETATM   34  N4  UNL     1      18.812  38.231  -8.812  1.00  0.00    -0.234 N
ATOM     35  H42 UNL     1      18.589  38.996  -9.448  1.00  0.00     0.174 HD
ATOM     36  H41 UNL     1      19.648  38.215  -8.228  1.00  0.00     0.174 HD
ENDBRANCH   8  34
TORSDOF 9
ENDMDL