MODEL 2
REMARK VINA RESULT: -8.380061743      1.014      1.081
REMARK  13 active torsions:
REMARK  status: ('A' for Active; 'I' for Inactive)
REMARK    1  A    between atoms: C3_3  and  O1_4
REMARK    2  A    between atoms: C7_9  and  C8_10
REMARK    3  A    between atoms: C8_10  and  S1_11
REMARK    4  A    between atoms: S1_11  and  C9_12
REMARK    5  A    between atoms: C9_12  and  S2_18
REMARK    6  A    between atoms: N1_13  and  N2_15
REMARK    7  A    between atoms: S2_18  and  C10_19
REMARK    8  A    between atoms: C10_19  and  C11_20
REMARK    9  A    between atoms: C11_20  and  C12_21
REMARK   10  A    between atoms: C12_21  and  C13_22
REMARK   11  A    between atoms: C13_22  and  N3_23
REMARK   12  A    between atoms: C14_27  and  O2_28
REMARK   13  A    between atoms: C17_35  and  O4_36
ROOT
HETATM    1  C1  UNL     1      16.893  34.913 -10.354  1.00  0.00     0.054 C
HETATM    2  C2  UNL     1      16.433  33.887  -9.376  1.00  0.00     0.007 A
HETATM    3  C3  UNL     1      16.655  32.556  -9.543  1.00  0.00     0.081 A
HETATM    4  C4  UNL     1      16.087  31.590  -8.685  1.00  0.00    -0.015 A
HETATM    5  C5  UNL     1      16.467  30.195  -8.811  1.00  0.00     0.052 C
HETATM    6  C6  UNL     1      15.292  32.032  -7.668  1.00  0.00     0.012 A
HETATM    7  C7  UNL     1      14.557  31.142  -6.908  1.00  0.00     0.004 A
HETATM    8  C14 UNL     1      13.672  31.664  -5.974  1.00  0.00     0.142 A
HETATM    9  C15 UNL     1      13.484  32.993  -5.778  1.00  0.00     0.279 A
HETATM   10  O3  UNL     1      12.674  33.395  -4.895  1.00  0.00    -0.265 OA
HETATM   11  N4  UNL     1      14.185  33.831  -6.534  1.00  0.00    -0.318 N
ATOM     12  H4  UNL     1      14.053  34.834  -6.403  1.00  0.00     0.169 HD
HETATM   13  C16 UNL     1      15.046  33.422  -7.446  1.00  0.00     0.080 A
HETATM   14  C17 UNL     1      15.631  34.344  -8.311  1.00  0.00     0.102 A
ENDROOT
BRANCH   7  15
HETATM   15  C8  UNL     1      14.592  29.704  -7.209  1.00  0.00     0.124 C
BRANCH  15  16
HETATM   16  S1  UNL     1      15.754  28.972  -5.922  1.00  0.00    -0.099 SA
BRANCH  16  17
HETATM   17  C9  UNL     1      16.591  27.519  -6.443  1.00  0.00     0.122 C
HETATM   18  N1  UNL     1      16.247  27.026  -7.542  1.00  0.00    -0.295 N
ATOM     19  H1  UNL     1      15.503  27.596  -7.943  1.00  0.00     0.187 HD
BRANCH  18  20
HETATM   20  N2  UNL     1      16.512  26.026  -8.362  1.00  0.00    -0.344 N
ATOM     21  H22 UNL     1      16.780  25.225  -7.790  1.00  0.00     0.176 HD
ATOM     22  H21 UNL     1      16.539  25.784  -9.353  1.00  0.00     0.176 HD
ENDBRANCH  18  20
BRANCH  17  23
HETATM   23  S2  UNL     1      17.898  26.857  -5.397  1.00  0.00    -0.104 SA
BRANCH  23  24
HETATM   24  C10 UNL     1      18.140  25.097  -5.760  1.00  0.00     0.081 C
BRANCH  24  25
HETATM   25  C11 UNL     1      18.351  24.387  -4.425  1.00  0.00     0.012 C
BRANCH  25  26
HETATM   26  C12 UNL     1      19.520  23.398  -4.586  1.00  0.00     0.028 C
BRANCH  26  27
HETATM   27  C13 UNL     1      20.754  23.930  -3.888  1.00  0.00     0.229 C
BRANCH  27  28
HETATM   28  N3  UNL     1      20.617  23.989  -2.450  1.00  0.00    -0.079 N
ATOM     29  H33 UNL     1      20.335  24.923  -2.151  1.00  0.00     0.274 HD
ATOM     30  H32 UNL     1      19.802  23.460  -2.141  1.00  0.00     0.274 HD
ATOM     31  H31 UNL     1      21.455  23.688  -1.951  1.00  0.00     0.274 HD
ENDBRANCH  27  28
ENDBRANCH  26  27
ENDBRANCH  25  26
ENDBRANCH  24  25
ENDBRANCH  23  24
ENDBRANCH  17  23
ENDBRANCH  16  17
ENDBRANCH  15  16
ENDBRANCH   7  15
BRANCH   8  32
HETATM   32  O2  UNL     1      12.978  30.692  -5.239  1.00  0.00    -0.355 OA
ATOM     33  H2  UNL     1      13.507  30.253  -4.583  1.00  0.00     0.218 HD
ENDBRANCH   8  32
BRANCH   3  34
HETATM   34  O1  UNL     1      17.435  32.069 -10.546  1.00  0.00    -0.359 OA
ATOM     35  H1  UNL     1      18.096  31.403 -10.397  1.00  0.00     0.217 HD
ENDBRANCH   3  34
BRANCH  14  36
HETATM   36  O4  UNL     1      15.444  35.685  -8.155  1.00  0.00    -0.358 OA
ATOM     37  H4  UNL     1      14.628  35.994  -7.781  1.00  0.00     0.217 HD
ENDBRANCH  14  36
TORSDOF 13
ENDMDL