MODEL 3
REMARK VINA RESULT: -8.567721867      4.115      4.991
REMARK  10 active torsions:
REMARK  status: ('A' for Active; 'I' for Inactive)
REMARK    1  A    between atoms: N1_1  and  C1_4
REMARK    2  A    between atoms: C5_11  and  N4_12
REMARK    3  A    between atoms: N4_12  and  C6_14
REMARK    4  A    between atoms: C6_14  and  C7_15
REMARK    5  A    between atoms: C7_15  and  C8_16
REMARK       I    between atoms: C8_16  and  N5_18
REMARK    6  A    between atoms: N5_18  and  C9_20
REMARK    7  A    between atoms: C10_25  and  S1_26
REMARK    8  A    between atoms: S1_26  and  C11_27
REMARK    9  A    between atoms: C11_27  and  C12_28
REMARK   10  A    between atoms: C12_28  and  O2_29
ROOT
HETATM    1  C6  UNL     1      14.969  31.580  -5.166  1.00  0.00     0.129 C
ENDROOT
BRANCH   1   2
HETATM    2  N4  UNL     1      14.862  30.996  -6.474  1.00  0.00    -0.388 N
ATOM      3  H4  UNL     1      14.441  31.544  -7.224  1.00  0.00     0.159 HD
BRANCH   2   4
HETATM    4  C5  UNL     1      15.316  29.696  -6.761  1.00  0.00     0.053 A
HETATM    5  C4  UNL     1      14.905  28.957  -7.845  1.00  0.00     0.074 A
HETATM    6  C3  UNL     1      15.327  27.696  -8.148  1.00  0.00     0.059 A
HETATM    7  N3  UNL     1      13.956  29.591  -8.709  1.00  0.00    -0.100 NA
HETATM    8  C2  UNL     1      16.268  27.053  -7.305  1.00  0.00     0.053 A
HETATM    9  N2  UNL     1      16.767  25.843  -7.465  1.00  0.00    -0.336 N
HETATM   10  C14 UNL     1      16.691  27.769  -6.221  1.00  0.00     0.037 A
HETATM   11  C1  UNL     1      17.644  25.389  -6.577  1.00  0.00     0.143 A
ATOM     12  H2  UNL     1      16.486  25.265  -8.257  1.00  0.00     0.168 HD
HETATM   13  S3  UNL     1      17.783  26.690  -5.475  1.00  0.00    -0.052 SA
HETATM   14  C13 UNL     1      16.234  29.070  -5.937  1.00  0.00     0.052 A
BRANCH  11  15
HETATM   15  N1  UNL     1      18.254  24.224  -6.552  1.00  0.00    -0.380 N
ATOM     16  H12 UNL     1      17.937  23.348  -6.137  1.00  0.00     0.158 HD
ATOM     17  H11 UNL     1      19.162  23.976  -6.945  1.00  0.00     0.158 HD
ENDBRANCH  11  15
ENDBRANCH   2   4
ENDBRANCH   1   2
BRANCH   1  18
HETATM   18  C7  UNL     1      13.687  32.258  -4.744  1.00  0.00     0.122 C
BRANCH  18  19
HETATM   19  C8  UNL     1      13.246  33.180  -5.802  1.00  0.00     0.225 C
HETATM   20  O1  UNL     1      14.024  34.119  -6.145  1.00  0.00    -0.273 OA
HETATM   21  N5  UNL     1      11.973  33.052  -6.453  1.00  0.00    -0.306 N
ATOM     22  H5  UNL     1      11.745  32.238  -7.023  1.00  0.00     0.171 HD
BRANCH  21  23
HETATM   23  C9  UNL     1      11.116  34.030  -6.279  1.00  0.00     0.168 A
HETATM   24  N6  UNL     1      10.679  34.571  -5.142  1.00  0.00    -0.278 N
HETATM   25  N7  UNL     1       9.840  35.520  -5.193  1.00  0.00    -0.286 N
ATOM     26  H6  UNL     1      11.015  34.227  -4.243  1.00  0.00     0.189 HD
HETATM   27  C10 UNL     1       9.404  35.967  -6.363  1.00  0.00     0.130 A
ATOM     28  H7  UNL     1       9.498  35.942  -4.329  1.00  0.00     0.188 HD
HETATM   29  S2  UNL     1      10.264  34.950  -7.446  1.00  0.00    -0.026 SA
BRANCH  27  30
HETATM   30  S1  UNL     1       8.230  37.285  -6.707  1.00  0.00    -0.101 SA
BRANCH  30  31
HETATM   31  C11 UNL     1       8.582  38.080  -8.281  1.00  0.00     0.107 C
BRANCH  31  32
HETATM   32  C12 UNL     1       7.411  38.069  -9.227  1.00  0.00     0.174 C
BRANCH  32  33
HETATM   33  O2  UNL     1       7.614  37.306 -10.349  1.00  0.00    -0.400 OA
ATOM     34  H2  UNL     1       6.967  36.620 -10.468  1.00  0.00     0.209 HD
ENDBRANCH  32  33
ENDBRANCH  31  32
ENDBRANCH  30  31
ENDBRANCH  27  30
ENDBRANCH  21  23
ENDBRANCH  18  19
ENDBRANCH   1  18
TORSDOF 10
ENDMDL