MODEL 5
REMARK VINA RESULT: -9.104349216      3.130      8.522
REMARK  11 active torsions:
REMARK  status: ('A' for Active; 'I' for Inactive)
REMARK    1  A    between atoms: N1_2  and  C2_5
REMARK    2  A    between atoms: C2_5  and  C3_6
REMARK    3  A    between atoms: C3_6  and  N2_7
REMARK    4  A    between atoms: N2_7  and  C4_9
REMARK    5  A    between atoms: C7_12  and  O1_13
REMARK    6  A    between atoms: C8_15  and  N3_16
REMARK       I    between atoms: N3_16  and  C9_17
REMARK    7  A    between atoms: C9_17  and  C10_19
REMARK    8  A    between atoms: C10_19  and  C11_20
REMARK    9  A    between atoms: C12_21  and  O3_22
REMARK   10  A    between atoms: C15_27  and  O5_28
REMARK   11  A    between atoms: C16_30  and  O6_31
ROOT
HETATM    1  C4  UNL     1      15.148  29.958  -6.935  1.00  0.00     0.046 C
HETATM    2  C5  UNL     1      14.967  31.154  -6.279  1.00  0.00     0.002 C
HETATM    3  C6  UNL     1      14.548  31.062  -4.876  1.00  0.00     0.054 C
HETATM    4  C7  UNL     1      15.186  32.452  -6.818  1.00  0.00     0.117 C
HETATM    5  C8  UNL     1      15.363  32.786  -8.166  1.00  0.00     0.181 C
HETATM    6  C16 UNL     1      14.760  32.024  -9.207  1.00  0.00     0.161 C
HETATM    7  C17 UNL     1      14.556  30.660  -9.262  1.00  0.00     0.216 C
HETATM    8  O7  UNL     1      13.978  30.199 -10.269  1.00  0.00    -0.285 OA
HETATM    9  C18 UNL     1      14.933  29.720  -8.290  1.00  0.00     0.018 C
HETATM   10  C19 UNL     1      15.165  28.346  -8.705  1.00  0.00     0.055 C
ENDROOT
BRANCH   5  11
HETATM   11  N3  UNL     1      16.069  33.871  -8.582  1.00  0.00    -0.364 NA
HETATM   12  C9  UNL     1      16.770  34.947  -8.993  1.00  0.00     0.296 C
HETATM   13  O2  UNL     1      17.942  34.920  -9.543  1.00  0.00    -0.257 OA
BRANCH  12  14
HETATM   14  C10 UNL     1      16.254  36.363  -8.878  1.00  0.00     0.165 C
BRANCH  14  15
HETATM   15  C11 UNL     1      16.915  37.038  -7.734  1.00  0.00     0.045 A
HETATM   16  C12 UNL     1      18.085  37.739  -7.746  1.00  0.00     0.193 A
HETATM   17  O4  UNL     1      18.323  38.185  -6.514  1.00  0.00    -0.290 OA
HETATM   18  C13 UNL     1      17.345  37.801  -5.694  1.00  0.00     0.086 A
HETATM   19  C14 UNL     1      17.268  38.122  -4.227  1.00  0.00     0.079 C
HETATM   20  C15 UNL     1      16.436  37.075  -6.404  1.00  0.00     0.106 A
BRANCH  16  21
HETATM   21  O3  UNL     1      18.928  38.008  -8.771  1.00  0.00    -0.340 OA
ATOM     22  H3  UNL     1      19.250  38.842  -9.094  1.00  0.00     0.220 HD
ENDBRANCH  16  21
BRANCH  20  23
HETATM   23  O5  UNL     1      15.274  36.462  -5.999  1.00  0.00    -0.357 OA
ATOM     24  H5  UNL     1      14.409  36.822  -6.159  1.00  0.00     0.217 HD
ENDBRANCH  20  23
ENDBRANCH  14  15
ENDBRANCH  12  14
ENDBRANCH   5  11
BRANCH   4  25
HETATM   25  O1  UNL     1      15.229  33.453  -5.981  1.00  0.00    -0.357 OA
ATOM     26  H1  UNL     1      14.525  34.088  -6.021  1.00  0.00     0.218 HD
ENDBRANCH   4  25
BRANCH   6  27
HETATM   27  O6  UNL     1      14.348  32.829 -10.270  1.00  0.00    -0.354 OA
ATOM     28  H6  UNL     1      14.075  32.314 -11.021  1.00  0.00     0.218 HD
ENDBRANCH   6  27
BRANCH   1  29
HETATM   29  N2  UNL     1      15.643  28.862  -6.166  1.00  0.00    -0.387 N
ATOM     30  H2  UNL     1      14.945  28.269  -5.718  1.00  0.00     0.159 HD
BRANCH  29  31
HETATM   31  C3  UNL     1      17.006  28.509  -5.957  1.00  0.00     0.147 C
BRANCH  31  32
HETATM   32  C2  UNL     1      17.057  26.986  -5.872  1.00  0.00     0.251 C
BRANCH  32  33
HETATM   33  N1  UNL     1      18.076  26.569  -4.924  1.00  0.00    -0.077 N
HETATM   34  C1  UNL     1      19.032  25.684  -5.589  1.00  0.00     0.267 C
ATOM     35  H12 UNL     1      17.674  26.143  -4.090  1.00  0.00     0.276 HD
ATOM     36  H11 UNL     1      18.533  27.363  -4.477  1.00  0.00     0.276 HD
ENDBRANCH  32  33
ENDBRANCH  31  32
ENDBRANCH  29  31
ENDBRANCH   1  29
TORSDOF 11
ENDMDL