MODEL 3
REMARK VINA RESULT: -8.560967954      3.335      7.213
REMARK  17 active torsions:
REMARK  status: ('A' for Active; 'I' for Inactive)
REMARK    1  A    between atoms: O1_2  and  C2_3
REMARK    2  A    between atoms: C3_4  and  O2_5
REMARK    3  A    between atoms: O2_5  and  C4_6
REMARK    4  A    between atoms: C5_7  and  O3_8
REMARK    5  A    between atoms: O3_8  and  C6_9
REMARK    6  A    between atoms: C13_17  and  O5_18
REMARK    7  A    between atoms: O5_18  and  C14_19
REMARK    8  A    between atoms: C15_20  and  O6_21
REMARK    9  A    between atoms: C17_24  and  O7_25
REMARK   10  A    between atoms: O7_25  and  C18_26
REMARK   11  A    between atoms: C20_29  and  O9_30
REMARK   12  A    between atoms: C21_32  and  O10_33
REMARK   13  A    between atoms: C22_35  and  O11_36
REMARK   14  A    between atoms: C23_38  and  O12_39
REMARK   15  A    between atoms: C24_41  and  O13_42
REMARK   16  A    between atoms: C27_47  and  O15_48
REMARK   17  A    between atoms: C28_50  and  O16_51
ROOT
HETATM    1  C4  UNL     1       5.401  26.485 -10.598  1.00  0.00     0.235 C
HETATM    2  C5  UNL     1       4.613  25.204 -10.378  1.00  0.00     0.303 C
HETATM    3  O4  UNL     1       3.553  25.811 -11.116  1.00  0.00    -0.326 OA
HETATM    4  C13 UNL     1       4.047  27.104 -10.864  1.00  0.00     0.297 C
ENDROOT
BRANCH   4   5
HETATM    5  O5  UNL     1       4.078  27.829 -12.031  1.00  0.00    -0.348 OA
BRANCH   5   6
HETATM    6  C14 UNL     1       4.165  29.177 -11.891  1.00  0.00     0.184 C
HETATM    7  C15 UNL     1       3.570  29.537 -10.553  1.00  0.00     0.152 C
HETATM    8  C16 UNL     1       2.150  29.970 -10.636  1.00  0.00     0.069 C
HETATM    9  C17 UNL     1       2.066  31.256 -11.409  1.00  0.00     0.158 C
HETATM   10  C23 UNL     1       3.089  31.342 -12.448  1.00  0.00     0.178 C
HETATM   11  C24 UNL     1       3.465  29.976 -12.955  1.00  0.00     0.180 C
BRANCH   7  12
HETATM   12  O6  UNL     1       4.402  30.492  -9.970  1.00  0.00    -0.393 OA
ATOM     13  H6  UNL     1       5.118  30.029  -9.553  1.00  0.00     0.210 HD
ENDBRANCH   7  12
BRANCH   9  14
HETATM   14  O7  UNL     1       2.004  32.275 -10.493  1.00  0.00    -0.351 OA
BRANCH  14  15
HETATM   15  C18 UNL     1       2.233  33.540 -10.917  1.00  0.00     0.291 C
HETATM   16  O8  UNL     1       1.057  34.275 -10.644  1.00  0.00    -0.356 OA
HETATM   17  C19 UNL     1       1.091  35.513 -11.275  1.00  0.00     0.205 C
HETATM   18  C20 UNL     1       2.464  36.113 -11.300  1.00  0.00     0.173 C
HETATM   19  C21 UNL     1       3.266  35.660 -10.119  1.00  0.00     0.182 C
HETATM   20  C22 UNL     1       3.298  34.170 -10.044  1.00  0.00     0.204 C
BRANCH  18  21
HETATM   21  O9  UNL     1       2.296  37.517 -11.298  1.00  0.00    -0.391 OA
ATOM     22  H9  UNL     1       3.162  37.897 -11.389  1.00  0.00     0.210 HD
ENDBRANCH  18  21
BRANCH  19  23
HETATM   23  O10 UNL     1       2.699  36.254  -8.977  1.00  0.00    -0.390 OA
ATOM     24  H10 UNL     1       3.397  36.367  -8.342  1.00  0.00     0.210 HD
ENDBRANCH  19  23
BRANCH  20  25
HETATM   25  O11 UNL     1       4.567  33.642 -10.280  1.00  0.00    -0.388 OA
ATOM     26  H11 UNL     1       4.831  33.014  -9.617  1.00  0.00     0.210 HD
ENDBRANCH  20  25
ENDBRANCH  14  15
ENDBRANCH   9  14
BRANCH  10  27
HETATM   27  O12 UNL     1       2.688  32.037 -13.601  1.00  0.00    -0.390 OA
ATOM     28  H12 UNL     1       2.294  31.491 -14.271  1.00  0.00     0.210 HD
ENDBRANCH  10  27
BRANCH  11  29
HETATM   29  O13 UNL     1       2.303  29.330 -13.358  1.00  0.00    -0.390 OA
ATOM     30  H13 UNL     1       1.665  29.962 -13.669  1.00  0.00     0.210 HD
ENDBRANCH  11  29
ENDBRANCH   5   6
ENDBRANCH   4   5
BRANCH   1  31
HETATM   31  O2  UNL     1       6.097  26.979  -9.527  1.00  0.00    -0.343 OA
BRANCH  31  32
HETATM   32  C3  UNL     1       7.189  27.686  -9.945  1.00  0.00     0.292 C
HETATM   33  C2  UNL     1       8.479  27.323  -9.229  1.00  0.00     0.207 C
HETATM   34  C28 UNL     1       9.582  27.839 -10.124  1.00  0.00     0.183 C
HETATM   35  C27 UNL     1       9.439  29.323 -10.259  1.00  0.00     0.178 C
HETATM   36  C25 UNL     1       8.039  29.764 -10.524  1.00  0.00     0.152 C
HETATM   37  O14 UNL     1       7.054  29.051  -9.894  1.00  0.00    -0.351 OA
HETATM   38  C26 UNL     1       7.748  29.747 -12.012  1.00  0.00     0.042 C
BRANCH  33  39
HETATM   39  O1  UNL     1       8.585  26.013  -8.876  1.00  0.00    -0.383 OA
HETATM   40  C1  UNL     1       9.874  25.606  -8.560  1.00  0.00     0.202 C
ENDBRANCH  33  39
BRANCH  34  41
HETATM   41  O16 UNL     1       9.422  27.257 -11.393  1.00  0.00    -0.390 OA
ATOM     42  H16 UNL     1       8.538  27.436 -11.691  1.00  0.00     0.210 HD
ENDBRANCH  34  41
BRANCH  35  43
HETATM   43  O15 UNL     1       9.971  29.916  -9.106  1.00  0.00    -0.390 OA
ATOM     44  H15 UNL     1       9.342  29.949  -8.396  1.00  0.00     0.210 HD
ENDBRANCH  35  43
ENDBRANCH  31  32
ENDBRANCH   1  31
BRANCH   2  45
HETATM   45  O3  UNL     1       4.182  24.964  -9.098  1.00  0.00    -0.318 OA
BRANCH  45  46
HETATM   46  C6  UNL     1       3.940  23.741  -8.562  1.00  0.00     0.072 A
HETATM   47  C7  UNL     1       3.684  22.642  -9.329  1.00  0.00     0.037 A
HETATM   48  C8  UNL     1       3.437  21.385  -8.757  1.00  0.00     0.009 A
HETATM   49  C9  UNL     1       3.453  21.260  -7.383  1.00  0.00    -0.062 A
HETATM   50  C10 UNL     1       3.197  19.942  -6.736  1.00  0.00     0.048 C
HETATM   51  C11 UNL     1       3.707  22.349  -6.585  1.00  0.00     0.009 A
HETATM   52  C12 UNL     1       3.943  23.555  -7.175  1.00  0.00     0.037 A
ENDBRANCH  45  46
ENDBRANCH   2  45
TORSDOF 17
ENDMDL