MODEL 4
REMARK VINA RESULT: -7.756208782      2.965      8.085
REMARK  17 active torsions:
REMARK  status: ('A' for Active; 'I' for Inactive)
REMARK    1  A    between atoms: S1_2  and  C2_3
REMARK    2  A    between atoms: C5_6  and  O1_7
REMARK    3  A    between atoms: O1_7  and  C6_8
REMARK    4  A    between atoms: C7_10  and  O3_11
REMARK    5  A    between atoms: O3_11  and  C8_12
REMARK    6  A    between atoms: C10_15  and  O5_16
REMARK    7  A    between atoms: O5_16  and  C11_17
REMARK    8  A    between atoms: C14_21  and  O7_22
REMARK    9  A    between atoms: C15_24  and  O8_25
REMARK   10  A    between atoms: C16_27  and  O9_28
REMARK   11  A    between atoms: C17_30  and  O10_31
REMARK   12  A    between atoms: O10_31  and  C18_32
REMARK   13  A    between atoms: C21_36  and  O12_37
REMARK   14  A    between atoms: C22_39  and  O13_40
REMARK   15  A    between atoms: C23_42  and  N1_43
REMARK   16  A    between atoms: C24_47  and  N2_48
REMARK   17  A    between atoms: C26_53  and  N3_54
ROOT
HETATM    1  C8  UNL     1       1.914  29.485 -12.715  1.00  0.00     0.294 C
HETATM    2  O4  UNL     1       1.591  30.110 -13.959  1.00  0.00    -0.356 OA
HETATM    3  C9  UNL     1       0.601  29.291 -14.500  1.00  0.00     0.205 C
HETATM    4  C10 UNL     1      -0.343  29.247 -13.275  1.00  0.00     0.182 C
HETATM    5  C17 UNL     1       0.658  28.837 -12.241  1.00  0.00     0.211 C
ENDROOT
BRANCH   1   6
HETATM    6  O3  UNL     1       2.924  28.597 -13.028  1.00  0.00    -0.327 OA
BRANCH   6   7
HETATM    7  C7  UNL     1       4.155  29.055 -12.564  1.00  0.00     0.296 C
HETATM    8  O2  UNL     1       4.933  27.958 -12.212  1.00  0.00    -0.327 OA
HETATM    9  C6  UNL     1       6.233  28.382 -11.983  1.00  0.00     0.293 C
HETATM   10  C26 UNL     1       6.445  29.853 -11.968  1.00  0.00     0.240 C
HETATM   11  C25 UNL     1       5.388  30.621 -11.214  1.00  0.00     0.075 C
HETATM   12  C24 UNL     1       4.030  29.903 -11.319  1.00  0.00     0.240 C
BRANCH   9  13
HETATM   13  O1  UNL     1       6.794  27.738 -10.876  1.00  0.00    -0.353 OA
BRANCH  13  14
HETATM   14  C5  UNL     1       7.549  26.635 -11.165  1.00  0.00     0.138 C
HETATM   15  C2  UNL     1       7.966  25.924  -9.883  1.00  0.00     0.076 C
HETATM   16  C3  UNL     1       9.372  26.454 -10.058  1.00  0.00     0.020 C
HETATM   17  C4  UNL     1       8.999  26.864 -11.465  1.00  0.00     0.034 C
BRANCH  15  18
HETATM   18  S1  UNL     1       7.196  26.634  -8.415  1.00  0.00    -0.166 SA
HETATM   19  C1  UNL     1       6.335  25.420  -7.423  1.00  0.00     0.090 C
ENDBRANCH  15  18
ENDBRANCH  13  14
ENDBRANCH   9  13
BRANCH  10  20
HETATM   20  N3  UNL     1       7.743  30.123 -11.362  1.00  0.00    -0.070 N
ATOM     21  H33 UNL     1       7.667  30.636 -10.484  1.00  0.00     0.274 HD
ATOM     22  H32 UNL     1       8.187  29.281 -10.994  1.00  0.00     0.274 HD
ATOM     23  H31 UNL     1       8.323  30.604 -12.049  1.00  0.00     0.274 HD
ENDBRANCH  10  20
BRANCH  12  24
HETATM   24  N2  UNL     1       3.940  29.026 -10.178  1.00  0.00    -0.070 N
ATOM     25  H23 UNL     1       4.553  28.215 -10.257  1.00  0.00     0.274 HD
ATOM     26  H22 UNL     1       4.355  29.432  -9.338  1.00  0.00     0.274 HD
ATOM     27  H21 UNL     1       2.962  28.767 -10.046  1.00  0.00     0.274 HD
ENDBRANCH  12  24
ENDBRANCH   6   7
ENDBRANCH   1   6
BRANCH   5  28
HETATM   28  O10 UNL     1       0.319  29.031 -10.945  1.00  0.00    -0.346 OA
BRANCH  28  29
HETATM   29  C18 UNL     1      -0.575  30.019 -10.662  1.00  0.00     0.294 C
HETATM   30  O11 UNL     1       0.147  31.157 -10.315  1.00  0.00    -0.351 OA
HETATM   31  C19 UNL     1      -0.649  32.187  -9.854  1.00  0.00     0.152 C
HETATM   32  C20 UNL     1       0.247  33.329  -9.447  1.00  0.00     0.042 C
HETATM   33  C21 UNL     1      -1.480  31.814  -8.663  1.00  0.00     0.177 C
HETATM   34  C22 UNL     1      -2.336  30.643  -9.015  1.00  0.00     0.184 C
HETATM   35  C23 UNL     1      -1.422  29.535  -9.494  1.00  0.00     0.269 C
BRANCH  33  36
HETATM   36  O12 UNL     1      -2.246  32.947  -8.320  1.00  0.00    -0.390 OA
ATOM     37  H12 UNL     1      -2.505  32.845  -7.412  1.00  0.00     0.210 HD
ENDBRANCH  33  36
BRANCH  34  38
HETATM   38  O13 UNL     1      -3.059  30.153  -7.930  1.00  0.00    -0.391 OA
ATOM     39  H13 UNL     1      -3.962  30.446  -7.925  1.00  0.00     0.210 HD
ENDBRANCH  34  38
BRANCH  35  40
HETATM   40  N1  UNL     1      -0.590  28.999  -8.432  1.00  0.00    -0.068 N
ATOM     41  H13 UNL     1      -0.760  28.003  -8.287  1.00  0.00     0.275 HD
ATOM     42  H12 UNL     1       0.390  28.950  -8.711  1.00  0.00     0.275 HD
ATOM     43  H11 UNL     1      -0.709  29.529  -7.569  1.00  0.00     0.275 HD
ENDBRANCH  35  40
ENDBRANCH  28  29
ENDBRANCH   5  28
BRANCH   4  44
HETATM   44  O5  UNL     1      -1.315  28.312 -13.436  1.00  0.00    -0.348 OA
BRANCH  44  45
HETATM   45  C11 UNL     1      -1.757  28.136 -14.735  1.00  0.00     0.292 C
HETATM   46  O6  UNL     1      -2.030  26.770 -14.896  1.00  0.00    -0.351 OA
HETATM   47  C12 UNL     1      -2.436  26.391 -16.132  1.00  0.00     0.152 C
HETATM   48  C13 UNL     1      -1.512  25.292 -16.618  1.00  0.00     0.042 C
HETATM   49  C14 UNL     1      -2.591  27.476 -17.144  1.00  0.00     0.178 C
HETATM   50  C15 UNL     1      -3.109  28.766 -16.616  1.00  0.00     0.183 C
HETATM   51  C16 UNL     1      -3.035  28.827 -15.082  1.00  0.00     0.204 C
BRANCH  49  52
HETATM   52  O7  UNL     1      -1.348  27.699 -17.735  1.00  0.00    -0.390 OA
ATOM     53  H7  UNL     1      -1.402  27.436 -18.646  1.00  0.00     0.210 HD
ENDBRANCH  49  52
BRANCH  50  54
HETATM   54  O8  UNL     1      -2.306  29.833 -17.051  1.00  0.00    -0.390 OA
ATOM     55  H8  UNL     1      -1.624  29.519 -17.634  1.00  0.00     0.210 HD
ENDBRANCH  50  54
BRANCH  51  56
HETATM   56  O9  UNL     1      -4.124  28.072 -14.618  1.00  0.00    -0.388 OA
ATOM     57  H9  UNL     1      -3.929  27.146 -14.694  1.00  0.00     0.210 HD
ENDBRANCH  51  56
ENDBRANCH  44  45
ENDBRANCH   4  44
TORSDOF 17
ENDMDL