MODEL 3
REMARK VINA RESULT: -7.937802941      0.875      1.738
REMARK  18 active torsions:
REMARK  status: ('A' for Active; 'I' for Inactive)
REMARK    1  A    between atoms: C2_2  and  C4_4
REMARK    2  A    between atoms: C4_4  and  O1_6
REMARK    3  A    between atoms: O1_6  and  C6_7
REMARK    4  A    between atoms: C7_9  and  C8_10
REMARK    5  A    between atoms: C8_10  and  O3_11
REMARK    6  A    between atoms: C9_13  and  O4_14
REMARK    7  A    between atoms: C10_16  and  O5_17
REMARK    8  A    between atoms: O5_17  and  C11_18
REMARK    9  A    between atoms: C12_19  and  O6_20
REMARK   10  A    between atoms: C15_25  and  O8_26
REMARK   11  A    between atoms: O8_26  and  C16_27
REMARK   12  A    between atoms: C19_31  and  O10_32
REMARK   13  A    between atoms: C20_34  and  O11_35
REMARK   14  A    between atoms: O11_35  and  C21_36
REMARK   15  A    between atoms: C24_40  and  O13_41
REMARK   16  A    between atoms: C25_43  and  O14_44
REMARK   17  A    between atoms: C26_46  and  O15_47
REMARK   18  A    between atoms: C27_49  and  O16_50
ROOT
HETATM    1  C11 UNL     1       0.320  33.026 -10.232  1.00  0.00     0.212 C
HETATM    2  C12 UNL     1      -0.715  34.175 -10.297  1.00  0.00     0.176 C
HETATM    3  C13 UNL     1      -0.811  34.512 -11.736  1.00  0.00     0.031 C
HETATM    4  C14 UNL     1       0.244  34.350 -12.506  1.00  0.00     0.137 C
HETATM    5  O7  UNL     1       1.486  33.870 -12.050  1.00  0.00    -0.330 OA
HETATM    6  C15 UNL     1       1.656  33.569 -10.663  1.00  0.00     0.300 C
ENDROOT
BRANCH   6   7
HETATM    7  O8  UNL     1       2.760  32.896 -10.327  1.00  0.00    -0.326 OA
BRANCH   7   8
HETATM    8  C16 UNL     1       3.344  32.077 -11.241  1.00  0.00     0.294 C
HETATM    9  O9  UNL     1       4.669  32.222 -11.514  1.00  0.00    -0.351 OA
HETATM   10  C17 UNL     1       4.948  31.730 -12.812  1.00  0.00     0.152 C
HETATM   11  C18 UNL     1       6.434  31.443 -12.846  1.00  0.00     0.042 C
HETATM   12  C19 UNL     1       4.223  30.383 -12.941  1.00  0.00     0.178 C
HETATM   13  C20 UNL     1       4.165  29.792 -11.566  1.00  0.00     0.189 C
HETATM   14  C27 UNL     1       3.108  30.637 -10.827  1.00  0.00     0.205 C
BRANCH  12  15
HETATM   15  O10 UNL     1       4.880  29.637 -13.879  1.00  0.00    -0.390 OA
ATOM     16  H10 UNL     1       5.702  29.347 -13.502  1.00  0.00     0.210 HD
ENDBRANCH  12  15
BRANCH  13  17
HETATM   17  O11 UNL     1       3.720  28.501 -11.484  1.00  0.00    -0.348 OA
BRANCH  17  18
HETATM   18  C21 UNL     1       4.541  27.654 -10.770  1.00  0.00     0.292 C
HETATM   19  O12 UNL     1       4.273  26.308 -11.019  1.00  0.00    -0.351 OA
HETATM   20  C22 UNL     1       4.572  25.609  -9.854  1.00  0.00     0.152 C
HETATM   21  C23 UNL     1       4.437  24.123 -10.089  1.00  0.00     0.042 C
HETATM   22  C24 UNL     1       5.903  25.996  -9.271  1.00  0.00     0.178 C
HETATM   23  C25 UNL     1       6.756  26.800 -10.213  1.00  0.00     0.183 C
HETATM   24  C26 UNL     1       6.005  27.856 -10.959  1.00  0.00     0.204 C
BRANCH  22  25
HETATM   25  O13 UNL     1       5.762  26.672  -8.059  1.00  0.00    -0.390 OA
ATOM     26  H13 UNL     1       6.602  26.930  -7.698  1.00  0.00     0.210 HD
ENDBRANCH  22  25
BRANCH  23  27
HETATM   27  O14 UNL     1       7.491  25.967 -11.059  1.00  0.00    -0.390 OA
ATOM     28  H14 UNL     1       7.039  25.834 -11.884  1.00  0.00     0.210 HD
ENDBRANCH  23  27
BRANCH  24  29
HETATM   29  O15 UNL     1       6.282  27.651 -12.329  1.00  0.00    -0.388 OA
ATOM     30  H15 UNL     1       5.489  27.857 -12.810  1.00  0.00     0.210 HD
ENDBRANCH  24  29
ENDBRANCH  17  18
ENDBRANCH  13  17
BRANCH  14  31
HETATM   31  O16 UNL     1       3.241  30.481  -9.453  1.00  0.00    -0.388 OA
ATOM     32  H16 UNL     1       3.285  31.322  -9.013  1.00  0.00     0.210 HD
ENDBRANCH  14  31
ENDBRANCH   7   8
ENDBRANCH   6   7
BRANCH   1  33
HETATM   33  O5  UNL     1      -0.102  31.953 -10.953  1.00  0.00    -0.345 OA
BRANCH  33  34
HETATM   34  C10 UNL     1      -1.069  31.156 -10.373  1.00  0.00     0.297 C
HETATM   35  C9  UNL     1      -0.517  29.817  -9.910  1.00  0.00     0.204 C
HETATM   36  C7  UNL     1       0.127  29.239 -11.174  1.00  0.00     0.184 C
HETATM   37  O2  UNL     1      -0.468  29.573 -12.331  1.00  0.00    -0.329 OA
HETATM   38  C6  UNL     1      -1.637  30.227 -12.403  1.00  0.00     0.416 C
HETATM   39  O17 UNL     1      -2.111  30.893 -11.287  1.00  0.00    -0.305 OA
BRANCH  35  40
HETATM   40  O4  UNL     1       0.309  29.870  -8.834  1.00  0.00    -0.388 OA
ATOM     41  H4  UNL     1       0.450  30.744  -8.490  1.00  0.00     0.210 HD
ENDBRANCH  35  40
BRANCH  36  42
HETATM   42  C8  UNL     1       0.273  27.738 -10.940  1.00  0.00     0.199 C
BRANCH  42  43
HETATM   43  O3  UNL     1       1.373  27.431 -10.147  1.00  0.00    -0.398 OA
ATOM     44  H3  UNL     1       1.628  26.518 -10.221  1.00  0.00     0.209 HD
ENDBRANCH  42  43
ENDBRANCH  36  42
BRANCH  38  45
HETATM   45  O1  UNL     1      -2.676  29.404 -12.847  1.00  0.00    -0.334 OA
BRANCH  45  46
HETATM   46  C4  UNL     1      -2.322  28.482 -13.794  1.00  0.00     0.126 C
HETATM   47  C5  UNL     1      -2.862  28.793 -15.177  1.00  0.00     0.040 C
BRANCH  46  48
HETATM   48  C2  UNL     1      -2.633  27.059 -13.385  1.00  0.00     0.006 C
HETATM   49  C1  UNL     1      -3.693  27.150 -12.287  1.00  0.00     0.012 C
HETATM   50  C3  UNL     1      -3.273  26.367 -14.559  1.00  0.00     0.012 C
ENDBRANCH  46  48
ENDBRANCH  45  46
ENDBRANCH  38  45
ENDBRANCH  33  34
ENDBRANCH   1  33
BRANCH   2  51
HETATM   51  O6  UNL     1      -0.132  35.266  -9.665  1.00  0.00    -0.389 OA
ATOM     52  H6  UNL     1       0.308  35.767 -10.343  1.00  0.00     0.210 HD
ENDBRANCH   2  51
TORSDOF 18
ENDMDL