MODEL 1
REMARK VINA RESULT: -8.772971035      0.000      0.000
REMARK  16 active torsions:
REMARK  status: ('A' for Active; 'I' for Inactive)
REMARK    1  A    between atoms: C4_5  and  O2_6
REMARK    2  A    between atoms: O2_6  and  C5_7
REMARK    3  A    between atoms: C8_11  and  O4_12
REMARK    4  A    between atoms: C9_14  and  O5_15
REMARK    5  A    between atoms: O5_15  and  C10_16
REMARK    6  A    between atoms: C13_20  and  O7_21
REMARK    7  A    between atoms: C14_23  and  O8_24
REMARK    8  A    between atoms: O8_24  and  C15_25
REMARK    9  A    between atoms: C18_29  and  O10_30
REMARK   10  A    between atoms: C19_32  and  O11_33
REMARK   11  A    between atoms: C20_35  and  O12_36
REMARK   12  A    between atoms: C21_38  and  O13_39
REMARK   13  A    between atoms: O13_39  and  C22_40
REMARK   14  A    between atoms: C25_44  and  O15_45
REMARK   15  A    between atoms: C26_47  and  O16_48
REMARK   16  A    between atoms: C27_50  and  O17_51
ROOT
HETATM    1  C10 UNL     1       3.577  29.929 -12.517  1.00  0.00     0.292 C
HETATM    2  O6  UNL     1       4.259  29.132 -11.564  1.00  0.00    -0.351 OA
HETATM    3  C11 UNL     1       3.422  28.045 -11.348  1.00  0.00     0.152 C
HETATM    4  C12 UNL     1       3.794  27.449  -9.999  1.00  0.00     0.042 C
HETATM    5  C13 UNL     1       2.011  28.525 -11.246  1.00  0.00     0.178 C
HETATM    6  C14 UNL     1       1.877  29.947 -10.735  1.00  0.00     0.189 C
HETATM    7  C21 UNL     1       2.687  30.827 -11.685  1.00  0.00     0.211 C
ENDROOT
BRANCH   1   8
HETATM    8  O5  UNL     1       4.535  30.577 -13.249  1.00  0.00    -0.346 OA
BRANCH   8   9
HETATM    9  C9  UNL     1       4.915  29.855 -14.344  1.00  0.00     0.211 C
HETATM   10  C5  UNL     1       6.291  29.268 -14.263  1.00  0.00     0.295 C
HETATM   11  O3  UNL     1       6.449  28.745 -15.548  1.00  0.00    -0.351 OA
HETATM   12  C6  UNL     1       5.946  29.685 -16.429  1.00  0.00     0.152 C
HETATM   13  C7  UNL     1       5.015  28.982 -17.392  1.00  0.00     0.042 C
HETATM   14  C8  UNL     1       5.092  30.667 -15.617  1.00  0.00     0.180 C
BRANCH  10  15
HETATM   15  O2  UNL     1       6.509  28.375 -13.260  1.00  0.00    -0.326 OA
BRANCH  15  16
HETATM   16  C4  UNL     1       7.580  28.703 -12.435  1.00  0.00     0.294 C
HETATM   17  O1  UNL     1       8.339  27.542 -12.290  1.00  0.00    -0.358 OA
HETATM   18  C3  UNL     1       7.807  26.815 -11.224  1.00  0.00     0.178 C
HETATM   19  C2  UNL     1       8.267  27.361  -9.889  1.00  0.00     0.037 C
HETATM   20  C1  UNL     1       9.608  26.841  -9.472  1.00  0.00     0.015 C
HETATM   21  C27 UNL     1       8.289  28.883 -10.045  1.00  0.00     0.157 C
HETATM   22  C26 UNL     1       7.183  29.177 -11.069  1.00  0.00     0.202 C
BRANCH  21  23
HETATM   23  O17 UNL     1       9.526  29.264 -10.564  1.00  0.00    -0.392 OA
ATOM     24  H17 UNL     1       9.835  30.027 -10.090  1.00  0.00     0.210 HD
ENDBRANCH  21  23
BRANCH  22  25
HETATM   25  O16 UNL     1       7.003  30.558 -11.142  1.00  0.00    -0.388 OA
ATOM     26  H16 UNL     1       6.458  30.813 -10.407  1.00  0.00     0.210 HD
ENDBRANCH  22  25
ENDBRANCH  15  16
ENDBRANCH  10  15
BRANCH  14  27
HETATM   27  O4  UNL     1       5.855  31.801 -15.346  1.00  0.00    -0.390 OA
ATOM     28  H4  UNL     1       5.359  32.370 -14.771  1.00  0.00     0.210 HD
ENDBRANCH  14  27
ENDBRANCH   8   9
ENDBRANCH   1   8
BRANCH   7  29
HETATM   29  O13 UNL     1       3.553  31.654 -10.986  1.00  0.00    -0.345 OA
BRANCH  29  30
HETATM   30  C22 UNL     1       3.321  32.982 -11.029  1.00  0.00     0.298 C
HETATM   31  O14 UNL     1       2.344  33.436 -10.106  1.00  0.00    -0.330 OA
HETATM   32  C23 UNL     1       2.489  34.837 -10.117  1.00  0.00     0.137 C
HETATM   33  C24 UNL     1       3.719  35.153 -10.466  1.00  0.00     0.033 C
HETATM   34  C25 UNL     1       4.457  33.887 -10.709  1.00  0.00     0.198 C
BRANCH  34  35
HETATM   35  O15 UNL     1       5.087  33.578  -9.507  1.00  0.00    -0.387 OA
ATOM     36  H15 UNL     1       5.695  34.249  -9.217  1.00  0.00     0.210 HD
ENDBRANCH  34  35
ENDBRANCH  29  30
ENDBRANCH   7  29
BRANCH   6  37
HETATM   37  O8  UNL     1       0.529  30.233 -10.736  1.00  0.00    -0.348 OA
BRANCH  37  38
HETATM   38  C15 UNL     1      -0.002  30.583  -9.514  1.00  0.00     0.292 C
HETATM   39  O9  UNL     1      -0.666  29.596  -8.856  1.00  0.00    -0.351 OA
HETATM   40  C16 UNL     1      -1.987  29.399  -9.125  1.00  0.00     0.152 C
HETATM   41  C17 UNL     1      -2.142  28.973 -10.568  1.00  0.00     0.042 C
HETATM   42  C18 UNL     1      -2.768  30.675  -8.934  1.00  0.00     0.178 C
HETATM   43  C19 UNL     1      -2.167  31.757  -9.764  1.00  0.00     0.183 C
HETATM   44  C20 UNL     1      -0.701  31.882  -9.418  1.00  0.00     0.204 C
BRANCH  42  45
HETATM   45  O10 UNL     1      -4.118  30.494  -9.227  1.00  0.00    -0.390 OA
ATOM     46  H10 UNL     1      -4.637  30.404  -8.437  1.00  0.00     0.210 HD
ENDBRANCH  42  45
BRANCH  43  47
HETATM   47  O11 UNL     1      -2.784  32.963  -9.316  1.00  0.00    -0.390 OA
ATOM     48  H11 UNL     1      -2.863  33.507 -10.090  1.00  0.00     0.210 HD
ENDBRANCH  43  47
BRANCH  44  49
HETATM   49  O12 UNL     1      -0.682  32.343  -8.077  1.00  0.00    -0.388 OA
ATOM     50  H12 UNL     1      -0.356  33.235  -8.047  1.00  0.00     0.210 HD
ENDBRANCH  44  49
ENDBRANCH  37  38
ENDBRANCH   6  37
BRANCH   5  51
HETATM   51  O7  UNL     1       1.347  27.615 -10.419  1.00  0.00    -0.390 OA
ATOM     52  H7  UNL     1       0.655  28.103  -9.988  1.00  0.00     0.210 HD
ENDBRANCH   5  51
TORSDOF 16
ENDMDL