MODEL 5
REMARK VINA RESULT: -7.988795077      1.928      3.989
REMARK  17 active torsions:
REMARK  status: ('A' for Active; 'I' for Inactive)
REMARK    1  A    between atoms: O1_2  and  C2_3
REMARK    2  A    between atoms: C5_7  and  O3_8
REMARK    3  A    between atoms: O3_8  and  C6_9
REMARK    4  A    between atoms: C7_10  and  O4_11
REMARK    5  A    between atoms: C8_13  and  O5_14
REMARK    6  A    between atoms: O5_14  and  C9_15
REMARK    7  A    between atoms: C13_19  and  O6_20
REMARK    8  A    between atoms: O6_20  and  C14_21
REMARK    9  A    between atoms: C15_23  and  C16_24
REMARK   10  A    between atoms: C16_24  and  O8_25
REMARK   11  A    between atoms: C17_27  and  O9_28
REMARK   12  A    between atoms: C18_30  and  O10_31
REMARK   13  A    between atoms: C19_33  and  O11_34
REMARK   14  A    between atoms: C20_36  and  O12_37
REMARK   15  A    between atoms: C23_42  and  S1_43
REMARK   16  A    between atoms: C25_45  and  O14_46
REMARK   17  A    between atoms: C26_48  and  O15_49
ROOT
HETATM    1  C6  UNL     1       5.280  29.391 -12.690  1.00  0.00     0.174 C
HETATM    2  C7  UNL     1       5.225  30.689 -11.925  1.00  0.00     0.203 C
HETATM    3  C8  UNL     1       3.799  31.259 -11.945  1.00  0.00     0.291 C
HETATM    4  O13 UNL     1       2.859  30.236 -11.916  1.00  0.00    -0.352 OA
HETATM    5  C21 UNL     1       2.873  29.455 -13.062  1.00  0.00     0.137 C
HETATM    6  C22 UNL     1       1.807  29.889 -14.056  1.00  0.00     0.041 C
HETATM    7  C23 UNL     1       4.190  29.553 -13.744  1.00  0.00     0.107 C
ENDROOT
BRANCH   3   8
HETATM    8  O5  UNL     1       3.658  31.994 -10.776  1.00  0.00    -0.351 OA
BRANCH   8   9
HETATM    9  C9  UNL     1       3.358  33.296 -11.021  1.00  0.00     0.153 C
HETATM   10  C10 UNL     1       4.178  34.259 -10.160  1.00  0.00     0.035 C
HETATM   11  C11 UNL     1       3.444  35.568 -10.487  1.00  0.00     0.005 C
HETATM   12  C12 UNL     1       2.006  35.170 -10.303  1.00  0.00     0.035 C
HETATM   13  C13 UNL     1       1.964  33.731 -10.813  1.00  0.00     0.153 C
BRANCH  13  14
HETATM   14  O6  UNL     1       1.306  32.920  -9.889  1.00  0.00    -0.351 OA
BRANCH  14  15
HETATM   15  C14 UNL     1       0.319  32.155 -10.454  1.00  0.00     0.292 C
HETATM   16  O7  UNL     1      -0.900  32.784 -10.007  1.00  0.00    -0.348 OA
HETATM   17  C15 UNL     1      -1.867  32.397 -10.900  1.00  0.00     0.179 C
HETATM   18  C17 UNL     1      -2.551  31.109 -10.564  1.00  0.00     0.180 C
HETATM   19  C18 UNL     1      -2.212  30.570  -9.222  1.00  0.00     0.180 C
HETATM   20  C19 UNL     1      -0.787  30.599  -8.841  1.00  0.00     0.183 C
HETATM   21  C20 UNL     1       0.194  30.742  -9.983  1.00  0.00     0.204 C
BRANCH  17  22
HETATM   22  C16 UNL     1      -2.870  33.528 -11.153  1.00  0.00     0.198 C
BRANCH  22  23
HETATM   23  O8  UNL     1      -3.428  34.007  -9.994  1.00  0.00    -0.398 OA
ATOM     24  H8  UNL     1      -4.250  34.458 -10.144  1.00  0.00     0.209 HD
ENDBRANCH  22  23
ENDBRANCH  17  22
BRANCH  18  25
HETATM   25  O9  UNL     1      -2.409  30.142 -11.585  1.00  0.00    -0.390 OA
ATOM     26  H9  UNL     1      -1.529  30.123 -11.944  1.00  0.00     0.210 HD
ENDBRANCH  18  25
BRANCH  19  27
HETATM   27  O10 UNL     1      -2.924  31.338  -8.271  1.00  0.00    -0.390 OA
ATOM     28  H10 UNL     1      -2.511  32.192  -8.234  1.00  0.00     0.210 HD
ENDBRANCH  19  27
BRANCH  20  29
HETATM   29  O11 UNL     1      -0.464  29.431  -8.153  1.00  0.00    -0.390 OA
ATOM     30  H11 UNL     1      -1.209  28.841  -8.163  1.00  0.00     0.210 HD
ENDBRANCH  20  29
BRANCH  21  31
HETATM   31  O12 UNL     1       1.419  30.323  -9.484  1.00  0.00    -0.388 OA
ATOM     32  H12 UNL     1       1.539  29.403  -9.691  1.00  0.00     0.210 HD
ENDBRANCH  21  31
ENDBRANCH  14  15
ENDBRANCH  13  14
ENDBRANCH   8   9
ENDBRANCH   3   8
BRANCH   2  33
HETATM   33  O4  UNL     1       5.641  30.608 -10.615  1.00  0.00    -0.388 OA
ATOM     34  H4  UNL     1       6.545  30.858 -10.466  1.00  0.00     0.210 HD
ENDBRANCH   2  33
BRANCH   1  35
HETATM   35  O3  UNL     1       5.054  28.374 -11.829  1.00  0.00    -0.349 OA
BRANCH  35  36
HETATM   36  C5  UNL     1       6.015  28.105 -10.887  1.00  0.00     0.292 C
HETATM   37  O2  UNL     1       7.157  27.785 -11.704  1.00  0.00    -0.351 OA
HETATM   38  C3  UNL     1       8.286  27.549 -11.003  1.00  0.00     0.152 C
HETATM   39  C2  UNL     1       8.189  27.551  -9.523  1.00  0.00     0.180 C
HETATM   40  C4  UNL     1       8.951  26.238 -11.439  1.00  0.00     0.042 C
HETATM   41  C26 UNL     1       6.949  26.939  -8.972  1.00  0.00     0.183 C
HETATM   42  C25 UNL     1       5.844  26.904 -10.041  1.00  0.00     0.204 C
BRANCH  39  43
HETATM   43  O1  UNL     1       8.419  28.811  -8.957  1.00  0.00    -0.385 OA
HETATM   44  C1  UNL     1       9.491  29.455  -9.521  1.00  0.00     0.202 C
ENDBRANCH  39  43
BRANCH  41  45
HETATM   45  O15 UNL     1       7.147  25.664  -8.447  1.00  0.00    -0.390 OA
ATOM     46  H15 UNL     1       6.679  24.984  -8.918  1.00  0.00     0.210 HD
ENDBRANCH  41  45
BRANCH  42  47
HETATM   47  O14 UNL     1       4.677  26.779  -9.340  1.00  0.00    -0.388 OA
ATOM     48  H14 UNL     1       4.520  25.963  -8.881  1.00  0.00     0.210 HD
ENDBRANCH  42  47
ENDBRANCH  35  36
ENDBRANCH   1  35
BRANCH   7  49
HETATM   49  S1  UNL     1       4.388  28.442 -15.134  1.00  0.00    -0.163 SA
HETATM   50  C24 UNL     1       5.648  29.075 -16.287  1.00  0.00     0.090 C
ENDBRANCH   7  49
TORSDOF 17
ENDMDL