MODEL 4
REMARK VINA RESULT: -9.033065203      2.485      8.269
REMARK  17 active torsions:
REMARK  status: ('A' for Active; 'I' for Inactive)
REMARK    1  A    between atoms: O1_2  and  C2_3
REMARK    2  A    between atoms: C6_8  and  O3_9
REMARK    3  A    between atoms: O3_9  and  C7_10
REMARK    4  A    between atoms: C10_14  and  N1_15
REMARK    5  A    between atoms: C13_18  and  O5_19
REMARK    6  A    between atoms: O5_19  and  C14_20
REMARK    7  A    between atoms: C15_22  and  C16_23
REMARK    8  A    between atoms: C16_23  and  O7_24
REMARK    9  A    between atoms: C17_26  and  O8_27
REMARK   10  A    between atoms: C18_29  and  O9_30
REMARK   11  A    between atoms: O9_30  and  C19_31
REMARK   12  A    between atoms: C22_35  and  O11_36
REMARK   13  A    between atoms: C23_38  and  O12_39
REMARK   14  A    between atoms: C24_41  and  O13_42
REMARK   15  A    between atoms: C25_44  and  O14_45
REMARK   16  A    between atoms: C26_47  and  O15_48
REMARK   17  A    between atoms: C27_50  and  O16_51
ROOT
HETATM    1  C14 UNL     1       7.033  30.047 -12.017  1.00  0.00     0.292 C
HETATM    2  O6  UNL     1       7.540  29.979 -10.686  1.00  0.00    -0.348 OA
HETATM    3  C15 UNL     1       8.598  29.066 -10.696  1.00  0.00     0.179 C
HETATM    4  C17 UNL     1       8.102  27.690 -11.148  1.00  0.00     0.181 C
HETATM    5  C18 UNL     1       6.583  27.800 -11.120  1.00  0.00     0.189 C
HETATM    6  C25 UNL     1       6.186  28.834 -12.184  1.00  0.00     0.205 C
ENDROOT
BRANCH   1   7
HETATM    7  O5  UNL     1       6.355  31.237 -12.209  1.00  0.00    -0.348 OA
BRANCH   7   8
HETATM    8  C13 UNL     1       5.017  31.052 -12.253  1.00  0.00     0.194 C
HETATM    9  C10 UNL     1       4.479  31.718 -13.534  1.00  0.00     0.281 C
HETATM   10  C8  UNL     1       3.173  31.088 -13.835  1.00  0.00     0.156 C
HETATM   11  O4  UNL     1       2.690  30.493 -12.650  1.00  0.00    -0.351 OA
HETATM   12  C9  UNL     1       2.135  32.049 -14.343  1.00  0.00     0.042 C
HETATM   13  C7  UNL     1       2.751  31.390 -11.559  1.00  0.00     0.294 C
HETATM   14  C26 UNL     1       4.181  31.681 -11.157  1.00  0.00     0.204 C
BRANCH   9  15
HETATM   15  N1  UNL     1       5.499  31.689 -14.505  1.00  0.00     0.089 N
HETATM   16  C11 UNL     1       5.347  32.904 -15.343  1.00  0.00     0.310 C
HETATM   17  C12 UNL     1       5.415  30.589 -15.441  1.00  0.00     0.310 C
ENDBRANCH   9  15
BRANCH  13  18
HETATM   18  O3  UNL     1       2.114  30.760 -10.523  1.00  0.00    -0.326 OA
BRANCH  18  19
HETATM   19  C6  UNL     1       0.852  30.271 -10.823  1.00  0.00     0.299 C
HETATM   20  O2  UNL     1       0.939  28.833 -10.666  1.00  0.00    -0.329 OA
HETATM   21  C5  UNL     1      -0.227  28.135 -10.842  1.00  0.00     0.143 C
HETATM   22  C3  UNL     1      -1.387  28.765 -10.600  1.00  0.00    -0.031 C
HETATM   23  C2  UNL     1      -1.472  30.157 -10.159  1.00  0.00     0.184 C
HETATM   24  C4  UNL     1      -2.683  28.009 -10.784  1.00  0.00     0.048 C
HETATM   25  C27 UNL     1      -0.118  30.712  -9.759  1.00  0.00     0.207 C
BRANCH  23  26
HETATM   26  O1  UNL     1      -1.986  30.985 -11.167  1.00  0.00    -0.384 OA
HETATM   27  C1  UNL     1      -2.904  31.851 -10.581  1.00  0.00     0.202 C
ENDBRANCH  23  26
BRANCH  25  28
HETATM   28  O16 UNL     1       0.230  30.222  -8.518  1.00  0.00    -0.388 OA
ATOM     29  H16 UNL     1       1.047  29.743  -8.586  1.00  0.00     0.210 HD
ENDBRANCH  25  28
ENDBRANCH  18  19
ENDBRANCH  13  18
BRANCH  14  30
HETATM   30  O15 UNL     1       4.470  31.040  -9.969  1.00  0.00    -0.388 OA
ATOM     31  H15 UNL     1       5.126  31.534  -9.491  1.00  0.00     0.210 HD
ENDBRANCH  14  30
ENDBRANCH   7   8
ENDBRANCH   1   7
BRANCH   6  32
HETATM   32  O14 UNL     1       6.402  28.289 -13.453  1.00  0.00    -0.388 OA
ATOM     33  H14 UNL     1       5.583  28.278 -13.934  1.00  0.00     0.210 HD
ENDBRANCH   6  32
BRANCH   3  34
HETATM   34  C16 UNL     1       9.134  28.970  -9.281  1.00  0.00     0.198 C
BRANCH  34  35
HETATM   35  O7  UNL     1       9.553  30.215  -8.827  1.00  0.00    -0.398 OA
ATOM     36  H7  UNL     1       9.602  30.228  -7.878  1.00  0.00     0.209 HD
ENDBRANCH  34  35
ENDBRANCH   3  34
BRANCH   5  37
HETATM   37  O9  UNL     1       5.907  26.650 -11.328  1.00  0.00    -0.348 OA
BRANCH  37  38
HETATM   38  C19 UNL     1       5.893  25.795 -10.232  1.00  0.00     0.292 C
HETATM   39  O10 UNL     1       5.460  24.556 -10.739  1.00  0.00    -0.351 OA
HETATM   40  C20 UNL     1       4.123  24.318 -10.603  1.00  0.00     0.152 C
HETATM   41  C21 UNL     1       3.808  23.074 -11.452  1.00  0.00     0.042 C
HETATM   42  C22 UNL     1       3.835  23.981  -9.154  1.00  0.00     0.178 C
HETATM   43  C23 UNL     1       4.566  24.963  -8.297  1.00  0.00     0.183 C
HETATM   44  C24 UNL     1       5.038  26.195  -9.089  1.00  0.00     0.204 C
BRANCH  42  45
HETATM   45  O11 UNL     1       4.175  22.659  -8.881  1.00  0.00    -0.390 OA
ATOM     46  H11 UNL     1       4.332  22.540  -7.952  1.00  0.00     0.210 HD
ENDBRANCH  42  45
BRANCH  43  47
HETATM   47  O12 UNL     1       5.738  24.338  -7.857  1.00  0.00    -0.390 OA
ATOM     48  H12 UNL     1       5.859  24.575  -6.945  1.00  0.00     0.210 HD
ENDBRANCH  43  47
BRANCH  44  49
HETATM   49  O13 UNL     1       3.941  26.941  -9.432  1.00  0.00    -0.388 OA
ATOM     50  H13 UNL     1       3.109  26.503  -9.299  1.00  0.00     0.210 HD
ENDBRANCH  44  49
ENDBRANCH  37  38
ENDBRANCH   5  37
BRANCH   4  51
HETATM   51  O8  UNL     1       8.620  27.429 -12.386  1.00  0.00    -0.390 OA
ATOM     52  H8  UNL     1       7.997  27.722 -13.040  1.00  0.00     0.210 HD
ENDBRANCH   4  51
TORSDOF 17
ENDMDL