MODEL 2
REMARK VINA RESULT: -8.057789933      1.955      4.967
REMARK  16 active torsions:
REMARK  status: ('A' for Active; 'I' for Inactive)
REMARK    1  A    between atoms: O1_1  and  C1_3
REMARK    2  A    between atoms: C1_3  and  C2_4
REMARK    3  A    between atoms: C3_6  and  O3_7
REMARK    4  A    between atoms: O3_7  and  C4_8
REMARK    5  A    between atoms: C5_10  and  O5_11
REMARK    6  A    between atoms: O5_11  and  C6_12
REMARK    7  A    between atoms: C10_17  and  O7_18
REMARK    8  A    between atoms: C15_26  and  C16_27
REMARK    9  A    between atoms: C15_26  and  O11_30
REMARK   10  A    between atoms: C16_27  and  O10_28
REMARK   11  A    between atoms: O11_30  and  C17_31
REMARK   12  A    between atoms: C18_33  and  C19_34
REMARK   13  A    between atoms: C19_34  and  O13_35
REMARK   14  A    between atoms: C20_37  and  O14_38
REMARK   15  A    between atoms: C22_41  and  O15_42
REMARK   16  A    between atoms: C27_49  and  O17_50
ROOT
HETATM    1  C4  UNL     1       0.940  29.145 -12.366  1.00  0.00     0.321 C
HETATM    2  O4  UNL     1       0.785  28.285 -13.401  1.00  0.00    -0.323 OA
HETATM    3  C5  UNL     1       1.122  28.639 -14.656  1.00  0.00     0.302 C
HETATM    4  C10 UNL     1       2.619  28.933 -14.853  1.00  0.00     0.150 C
HETATM    5  C11 UNL     1       2.932  30.358 -14.527  1.00  0.00     0.216 C
HETATM    6  O8  UNL     1       1.802  30.833 -13.811  1.00  0.00    -0.353 OA
HETATM    7  C12 UNL     1       1.810  30.318 -12.517  1.00  0.00     0.315 C
HETATM    8  O9  UNL     1       3.117  30.197 -12.147  1.00  0.00    -0.348 OA
HETATM    9  C13 UNL     1       3.463  29.271 -11.225  1.00  0.00     0.160 C
HETATM   10  C14 UNL     1       4.920  29.507 -10.784  1.00  0.00     0.078 C
HETATM   11  C15 UNL     1       5.143  28.048 -10.931  1.00  0.00     0.116 C
HETATM   12  C23 UNL     1       3.963  28.023 -11.886  1.00  0.00     0.187 C
HETATM   13  O16 UNL     1       4.295  28.345 -13.198  1.00  0.00    -0.377 OA
HETATM   14  C24 UNL     1       3.391  27.903 -14.120  1.00  0.00     0.213 C
ENDROOT
BRANCH  11  15
HETATM   15  C16 UNL     1       4.819  27.297  -9.635  1.00  0.00     0.205 C
BRANCH  15  16
HETATM   16  O10 UNL     1       4.516  25.989 -10.000  1.00  0.00    -0.398 OA
ATOM     17  H10 UNL     1       5.207  25.704 -10.586  1.00  0.00     0.209 HD
ENDBRANCH  15  16
ENDBRANCH  11  15
BRANCH  11  18
HETATM   18  O11 UNL     1       6.264  27.611 -11.578  1.00  0.00    -0.343 OA
BRANCH  18  19
HETATM   19  C17 UNL     1       7.326  27.287 -10.765  1.00  0.00     0.290 C
HETATM   20  O12 UNL     1       8.064  28.481 -10.593  1.00  0.00    -0.349 OA
HETATM   21  C18 UNL     1       8.879  28.308  -9.490  1.00  0.00     0.177 C
HETATM   22  C20 UNL     1       9.981  27.346  -9.896  1.00  0.00     0.151 C
HETATM   23  C21 UNL     1       9.414  26.064 -10.433  1.00  0.00     0.071 C
HETATM   24  C22 UNL     1       8.273  26.296 -11.400  1.00  0.00     0.175 C
BRANCH  21  25
HETATM   25  C19 UNL     1       9.523  29.634  -9.140  1.00  0.00     0.198 C
BRANCH  25  26
HETATM   26  O13 UNL     1      10.606  29.805 -10.002  1.00  0.00    -0.398 OA
ATOM     27  H13 UNL     1      10.998  28.949 -10.132  1.00  0.00     0.209 HD
ENDBRANCH  25  26
ENDBRANCH  21  25
BRANCH  22  28
HETATM   28  O14 UNL     1      10.787  27.100  -8.810  1.00  0.00    -0.393 OA
ATOM     29  H14 UNL     1      10.871  26.161  -8.690  1.00  0.00     0.210 HD
ENDBRANCH  22  28
BRANCH  24  30
HETATM   30  O15 UNL     1       8.722  26.845 -12.606  1.00  0.00    -0.391 OA
ATOM     31  H15 UNL     1       8.207  26.464 -13.308  1.00  0.00     0.210 HD
ENDBRANCH  24  30
ENDBRANCH  18  19
ENDBRANCH  11  18
BRANCH   4  32
HETATM   32  O7  UNL     1       2.854  28.777 -16.238  1.00  0.00    -0.380 OA
ATOM     33  H7  UNL     1       3.797  28.822 -16.341  1.00  0.00     0.211 HD
ENDBRANCH   4  32
BRANCH   1  34
HETATM   34  O3  UNL     1      -0.321  29.556 -11.957  1.00  0.00    -0.326 OA
BRANCH  34  35
HETATM   35  C3  UNL     1      -0.451  29.865 -10.616  1.00  0.00     0.264 C
HETATM   36  O2  UNL     1      -1.032  28.891  -9.865  1.00  0.00    -0.351 OA
HETATM   37  C2  UNL     1      -2.372  28.941  -9.811  1.00  0.00     0.176 C
HETATM   38  C27 UNL     1      -2.917  30.177  -9.129  1.00  0.00     0.149 C
HETATM   39  C26 UNL     1      -1.913  31.303  -9.181  1.00  0.00     0.039 C
HETATM   40  C25 UNL     1      -0.976  31.206 -10.326  1.00  0.00     0.063 C
BRANCH  37  41
HETATM   41  C1  UNL     1      -2.981  28.770 -11.181  1.00  0.00     0.198 C
BRANCH  41  42
HETATM   42  O1  UNL     1      -2.651  27.548 -11.731  1.00  0.00    -0.398 OA
ATOM     43  H1  UNL     1      -3.296  26.885 -11.516  1.00  0.00     0.209 HD
ENDBRANCH  41  42
ENDBRANCH  37  41
BRANCH  38  44
HETATM   44  O17 UNL     1      -3.234  29.828  -7.826  1.00  0.00    -0.393 OA
ATOM     45  H17 UNL     1      -3.589  30.600  -7.402  1.00  0.00     0.210 HD
ENDBRANCH  38  44
ENDBRANCH  34  35
ENDBRANCH   1  34
BRANCH   3  46
HETATM   46  O5  UNL     1       0.350  29.628 -15.257  1.00  0.00    -0.350 OA
BRANCH  46  47
HETATM   47  C6  UNL     1      -0.718  29.130 -15.986  1.00  0.00     0.150 C
HETATM   48  C7  UNL     1      -1.972  29.221 -15.127  1.00  0.00     0.060 C
HETATM   49  C8  UNL     1      -2.628  27.873 -15.260  1.00  0.00     0.170 C
HETATM   50  O6  UNL     1      -1.951  27.164 -16.219  1.00  0.00    -0.389 OA
HETATM   51  C9  UNL     1      -0.657  27.670 -16.281  1.00  0.00     0.199 C
ENDBRANCH  46  47
ENDBRANCH   3  46
TORSDOF 16
ENDMDL