MODEL 1
REMARK VINA RESULT: -9.006749766      0.000      0.000
REMARK  17 active torsions:
REMARK  status: ('A' for Active; 'I' for Inactive)
REMARK    1  A    between atoms: C3_4  and  O2_5
REMARK    2  A    between atoms: O2_5  and  C4_6
REMARK    3  A    between atoms: C7_9  and  O3_10
REMARK    4  A    between atoms: O3_10  and  C8_11
REMARK    5  A    between atoms: C11_15  and  O5_16
REMARK    6  A    between atoms: C12_18  and  O6_19
REMARK    7  A    between atoms: C13_21  and  O7_22
REMARK    8  A    between atoms: C15_25  and  O8_26
REMARK    9  A    between atoms: O8_26  and  C16_27
REMARK   10  A    between atoms: C17_29  and  O10_30
REMARK   11  A    between atoms: C17_29  and  C18_32
REMARK   12  A    between atoms: C21_35  and  O11_36
REMARK   13  A    between atoms: C22_38  and  O12_39
REMARK   14  A    between atoms: C23_41  and  O13_42
REMARK   15  A    between atoms: C24_45  and  C25_46
REMARK   16  A    between atoms: C25_46  and  O15_47
REMARK   17  A    between atoms: C27_50  and  O16_51
ROOT
HETATM    1  O15 UNL     1       3.820  35.495  -7.733  1.00  0.00    -0.281 OA
HETATM    2  C26 UNL     1       5.008  35.094  -7.348  1.00  0.00     0.228 C
HETATM    3  N1  UNL     1       6.036  34.717  -7.013  1.00  0.00    -0.164 NA
ENDROOT
BRANCH   1   4
HETATM    4  C25 UNL     1       3.257  36.128  -8.789  1.00  0.00     0.224 C
BRANCH   4   5
HETATM    5  C24 UNL     1       2.732  35.203  -9.853  1.00  0.00     0.183 C
HETATM    6  O14 UNL     1       3.810  34.527 -10.451  1.00  0.00    -0.329 OA
HETATM    7  C3  UNL     1       3.354  33.885 -11.588  1.00  0.00     0.414 C
HETATM    8  O1  UNL     1       3.261  34.906 -12.565  1.00  0.00    -0.331 OA
HETATM    9  C2  UNL     1       2.083  35.567 -12.276  1.00  0.00     0.154 C
HETATM   10  C1  UNL     1       1.955  36.794 -13.156  1.00  0.00     0.042 C
HETATM   11  C27 UNL     1       1.892  35.928 -10.832  1.00  0.00     0.178 C
BRANCH   7  12
HETATM   12  O2  UNL     1       4.255  32.918 -11.940  1.00  0.00    -0.330 OA
BRANCH  12  13
HETATM   13  C4  UNL     1       3.663  31.648 -12.161  1.00  0.00     0.164 C
HETATM   14  C5  UNL     1       2.257  31.638 -11.703  1.00  0.00     0.042 C
HETATM   15  C6  UNL     1       1.368  31.365 -12.930  1.00  0.00     0.015 C
HETATM   16  C7  UNL     1       1.850  30.701 -10.646  1.00  0.00     0.133 C
HETATM   17  C14 UNL     1       2.926  29.888 -10.012  1.00  0.00     0.067 C
HETATM   18  C15 UNL     1       3.922  29.386 -11.067  1.00  0.00     0.158 C
HETATM   19  C23 UNL     1       4.596  30.663 -11.567  1.00  0.00     0.176 C
BRANCH  16  20
HETATM   20  O3  UNL     1       1.219  31.418  -9.609  1.00  0.00    -0.353 OA
BRANCH  20  21
HETATM   21  C8  UNL     1       0.085  30.808  -9.134  1.00  0.00     0.291 C
HETATM   22  O4  UNL     1      -0.451  30.049 -10.199  1.00  0.00    -0.351 OA
HETATM   23  C9  UNL     1      -1.504  29.260  -9.771  1.00  0.00     0.152 C
HETATM   24  C10 UNL     1      -2.393  28.974 -10.961  1.00  0.00     0.042 C
HETATM   25  C11 UNL     1      -2.351  29.959  -8.731  1.00  0.00     0.178 C
HETATM   26  C12 UNL     1      -2.318  31.442  -9.055  1.00  0.00     0.183 C
HETATM   27  C13 UNL     1      -0.907  31.924  -8.782  1.00  0.00     0.204 C
BRANCH  25  28
HETATM   28  O5  UNL     1      -3.689  29.535  -8.777  1.00  0.00    -0.390 OA
ATOM     29  H5  UNL     1      -3.801  28.680  -8.380  1.00  0.00     0.210 HD
ENDBRANCH  25  28
BRANCH  26  30
HETATM   30  O6  UNL     1      -3.261  32.162  -8.336  1.00  0.00    -0.390 OA
ATOM     31  H6  UNL     1      -3.166  33.100  -8.450  1.00  0.00     0.210 HD
ENDBRANCH  26  30
BRANCH  27  32
HETATM   32  O7  UNL     1      -0.696  33.014  -9.653  1.00  0.00    -0.388 OA
ATOM     33  H7  UNL     1       0.225  33.248  -9.636  1.00  0.00     0.210 HD
ENDBRANCH  27  32
ENDBRANCH  20  21
ENDBRANCH  16  20
BRANCH  18  34
HETATM   34  O8  UNL     1       4.918  28.637 -10.474  1.00  0.00    -0.350 OA
BRANCH  34  35
HETATM   35  C16 UNL     1       5.222  27.465 -11.110  1.00  0.00     0.295 C
HETATM   36  O9  UNL     1       6.620  27.384 -11.311  1.00  0.00    -0.320 OA
HETATM   37  C17 UNL     1       7.187  27.305 -10.051  1.00  0.00     0.196 C
HETATM   38  C21 UNL     1       6.175  26.748  -9.106  1.00  0.00     0.214 C
HETATM   39  C22 UNL     1       5.060  26.337 -10.078  1.00  0.00     0.207 C
BRANCH  37  40
HETATM   40  O10 UNL     1       7.505  28.618  -9.668  1.00  0.00    -0.363 OA
ATOM     41  H10 UNL     1       7.011  28.798  -8.876  1.00  0.00     0.213 HD
ENDBRANCH  37  40
BRANCH  37  42
HETATM   42  C18 UNL     1       8.468  26.533 -10.097  1.00  0.00     0.043 C
HETATM   43  C19 UNL     1       9.590  27.146  -9.325  1.00  0.00     0.015 C
HETATM   44  C20 UNL     1       8.856  26.228 -11.536  1.00  0.00     0.015 C
ENDBRANCH  37  42
BRANCH  38  45
HETATM   45  O11 UNL     1       6.606  25.707  -8.329  1.00  0.00    -0.387 OA
ATOM     46  H11 UNL     1       6.589  25.864  -7.392  1.00  0.00     0.210 HD
ENDBRANCH  38  45
BRANCH  39  47
HETATM   47  O12 UNL     1       3.819  26.349  -9.484  1.00  0.00    -0.388 OA
ATOM     48  H12 UNL     1       3.468  25.474  -9.367  1.00  0.00     0.210 HD
ENDBRANCH  39  47
ENDBRANCH  34  35
ENDBRANCH  18  34
BRANCH  19  49
HETATM   49  O13 UNL     1       5.181  31.244 -10.417  1.00  0.00    -0.390 OA
ATOM     50  H13 UNL     1       6.061  31.525 -10.639  1.00  0.00     0.210 HD
ENDBRANCH  19  49
ENDBRANCH  12  13
ENDBRANCH   7  12
BRANCH  11  51
HETATM   51  O16 UNL     1       0.546  35.599 -10.528  1.00  0.00    -0.390 OA
ATOM     52  H16 UNL     1       0.586  34.818  -9.989  1.00  0.00     0.210 HD
ENDBRANCH  11  51
ENDBRANCH   4   5
ENDBRANCH   1   4
TORSDOF 17
ENDMDL