MODEL 4
REMARK VINA RESULT: -8.755277502      1.873      8.416
REMARK  17 active torsions:
REMARK  status: ('A' for Active; 'I' for Inactive)
REMARK    1  A    between atoms: O1_2  and  C2_3
REMARK    2  A    between atoms: C4_5  and  O2_6
REMARK    3  A    between atoms: C5_8  and  O3_9
REMARK    4  A    between atoms: C7_13  and  O5_14
REMARK    5  A    between atoms: O5_14  and  C8_15
REMARK    6  A    between atoms: C8_15  and  O6_16
REMARK    7  A    between atoms: C8_15  and  C9_18
REMARK    8  A    between atoms: C10_19  and  C11_20
REMARK    9  A    between atoms: C12_22  and  O8_23
REMARK   10  A    between atoms: O8_23  and  C13_24
REMARK   11  A    between atoms: C15_27  and  O10_28
REMARK   12  A    between atoms: C16_30  and  O11_31
REMARK   13  A    between atoms: C17_33  and  O12_34
REMARK   14  A    between atoms: O12_34  and  C18_35
REMARK   15  A    between atoms: C21_39  and  O14_40
REMARK   16  A    between atoms: C22_42  and  O15_43
REMARK   17  A    between atoms: C23_45  and  O16_46
ROOT
HETATM    1  C9  UNL     1       4.510  30.933 -12.785  1.00  0.00    -0.005 C
HETATM    2  C10 UNL     1       3.637  31.346 -11.833  1.00  0.00     0.042 C
HETATM    3  C12 UNL     1       2.222  31.409 -12.189  1.00  0.00     0.301 C
HETATM    4  O17 UNL     1       2.042  32.092 -13.411  1.00  0.00    -0.351 OA
HETATM    5  C24 UNL     1       2.920  31.766 -14.393  1.00  0.00     0.129 C
HETATM    6  C25 UNL     1       3.678  32.969 -14.907  1.00  0.00     0.040 C
HETATM    7  C26 UNL     1       3.787  30.612 -14.046  1.00  0.00     0.045 C
HETATM    8  C27 UNL     1       4.710  30.284 -15.185  1.00  0.00     0.017 C
ENDROOT
BRANCH   3   9
HETATM    9  O8  UNL     1       1.358  31.932 -11.287  1.00  0.00    -0.324 OA
BRANCH   9  10
HETATM   10  C13 UNL     1       0.038  31.536 -11.496  1.00  0.00     0.294 C
HETATM   11  O9  UNL     1      -0.730  32.650 -11.034  1.00  0.00    -0.356 OA
HETATM   12  C14 UNL     1      -0.299  32.933  -9.736  1.00  0.00     0.205 C
HETATM   13  C15 UNL     1      -0.754  31.839  -8.784  1.00  0.00     0.173 C
HETATM   14  C16 UNL     1      -0.176  30.538  -9.256  1.00  0.00     0.182 C
HETATM   15  C17 UNL     1      -0.382  30.345 -10.720  1.00  0.00     0.211 C
BRANCH  13  16
HETATM   16  O10 UNL     1      -2.115  31.846  -8.601  1.00  0.00    -0.391 OA
ATOM     17  H10 UNL     1      -2.366  32.301  -7.805  1.00  0.00     0.210 HD
ENDBRANCH  13  16
BRANCH  14  18
HETATM   18  O11 UNL     1      -0.668  29.453  -8.508  1.00  0.00    -0.390 OA
ATOM     19  H11 UNL     1      -0.935  28.735  -9.069  1.00  0.00     0.210 HD
ENDBRANCH  14  18
BRANCH  15  20
HETATM   20  O12 UNL     1      -1.730  30.087 -10.994  1.00  0.00    -0.346 OA
BRANCH  20  21
HETATM   21  C18 UNL     1      -1.970  28.766 -11.377  1.00  0.00     0.292 C
HETATM   22  O13 UNL     1      -3.268  28.447 -11.620  1.00  0.00    -0.351 OA
HETATM   23  C19 UNL     1      -3.767  28.961 -12.810  1.00  0.00     0.152 C
HETATM   24  C20 UNL     1      -3.811  30.470 -12.806  1.00  0.00     0.042 C
HETATM   25  C21 UNL     1      -2.998  28.512 -14.031  1.00  0.00     0.178 C
HETATM   26  C22 UNL     1      -1.839  27.651 -13.577  1.00  0.00     0.183 C
HETATM   27  C23 UNL     1      -1.057  28.307 -12.469  1.00  0.00     0.204 C
BRANCH  25  28
HETATM   28  O14 UNL     1      -3.781  27.833 -14.952  1.00  0.00    -0.390 OA
ATOM     29  H14 UNL     1      -3.936  28.326 -15.749  1.00  0.00     0.210 HD
ENDBRANCH  25  28
BRANCH  26  30
HETATM   30  O15 UNL     1      -1.001  27.494 -14.710  1.00  0.00    -0.390 OA
ATOM     31  H15 UNL     1      -0.705  26.592 -14.693  1.00  0.00     0.210 HD
ENDBRANCH  26  30
BRANCH  27  32
HETATM   32  O16 UNL     1      -0.126  27.348 -12.023  1.00  0.00    -0.388 OA
ATOM     33  H16 UNL     1      -0.293  26.486 -12.383  1.00  0.00     0.210 HD
ENDBRANCH  27  32
ENDBRANCH  20  21
ENDBRANCH  15  20
ENDBRANCH   9  10
ENDBRANCH   3   9
BRANCH   2  34
HETATM   34  C11 UNL     1       4.093  31.721 -10.527  1.00  0.00     0.271 C
HETATM   35  O7  UNL     1       4.094  30.876  -9.589  1.00  0.00    -0.302 OA
ENDBRANCH   2  34
BRANCH   1  36
HETATM   36  C8  UNL     1       5.931  30.837 -12.576  1.00  0.00     0.292 C
BRANCH  36  37
HETATM   37  O5  UNL     1       6.413  29.517 -12.628  1.00  0.00    -0.325 OA
BRANCH  37  38
HETATM   38  C7  UNL     1       5.822  28.686 -11.715  1.00  0.00     0.292 C
HETATM   39  C2  UNL     1       6.910  28.000 -10.920  1.00  0.00     0.178 C
HETATM   40  C3  UNL     1       6.480  26.603 -10.506  1.00  0.00     0.071 C
HETATM   41  C4  UNL     1       5.237  26.723  -9.651  1.00  0.00     0.151 C
HETATM   42  C5  UNL     1       4.034  26.447 -10.495  1.00  0.00     0.170 C
HETATM   43  C6  UNL     1       3.860  27.454 -11.611  1.00  0.00     0.205 C
HETATM   44  O4  UNL     1       5.045  27.690 -12.292  1.00  0.00    -0.356 OA
BRANCH  39  45
HETATM   45  O1  UNL     1       7.263  28.681  -9.770  1.00  0.00    -0.386 OA
HETATM   46  C1  UNL     1       8.623  28.665  -9.540  1.00  0.00     0.202 C
ENDBRANCH  39  45
BRANCH  41  47
HETATM   47  O2  UNL     1       5.309  25.759  -8.656  1.00  0.00    -0.393 OA
ATOM     48  H2  UNL     1       5.704  26.159  -7.890  1.00  0.00     0.210 HD
ENDBRANCH  41  47
BRANCH  42  49
HETATM   49  O3  UNL     1       2.897  26.569  -9.667  1.00  0.00    -0.391 OA
ATOM     50  H3  UNL     1       2.462  25.724  -9.652  1.00  0.00     0.210 HD
ENDBRANCH  42  49
ENDBRANCH  37  38
ENDBRANCH  36  37
BRANCH  36  51
HETATM   51  O6  UNL     1       6.660  31.640 -13.498  1.00  0.00    -0.367 OA
ATOM     52  H6  UNL     1       6.608  31.251 -14.363  1.00  0.00     0.213 HD
ENDBRANCH  36  51
ENDBRANCH   1  36
TORSDOF 17
ENDMDL