MODEL 3
REMARK VINA RESULT: -8.451363672      2.252      8.090
REMARK  16 active torsions:
REMARK  status: ('A' for Active; 'I' for Inactive)
REMARK    1  A    between atoms: O1_2  and  C2_3
REMARK    2  A    between atoms: C6_10  and  O3_11
REMARK    3  A    between atoms: C7_13  and  O4_14
REMARK    4  A    between atoms: O4_14  and  C8_15
REMARK    5  A    between atoms: C9_16  and  O5_17
REMARK    6  A    between atoms: C13_22  and  O6_23
REMARK    7  A    between atoms: O6_23  and  C14_24
REMARK    8  A    between atoms: C17_27  and  N2_28
REMARK    9  A    between atoms: C18_32  and  O7_33
REMARK   10  A    between atoms: O7_33  and  C19_34
REMARK   11  A    between atoms: C21_36  and  O8_37
REMARK   12  A    between atoms: C21_36  and  C22_39
REMARK   13  A    between atoms: C25_43  and  O10_44
REMARK   14  A    between atoms: C26_47  and  O12_48
REMARK   15  A    between atoms: C27_50  and  C28_51
REMARK   16  A    between atoms: C28_51  and  O13_52
ROOT
HETATM    1  C8  UNL     1      -1.518  30.409 -11.283  1.00  0.00     0.182 C
HETATM    2  C9  UNL     1      -2.319  31.385 -10.444  1.00  0.00     0.150 C
HETATM    3  C10 UNL     1      -1.835  31.261  -9.023  1.00  0.00     0.041 C
HETATM    4  C11 UNL     1      -0.370  31.563  -8.883  1.00  0.00     0.016 C
HETATM    5  C12 UNL     1      -0.116  33.018  -9.070  1.00  0.00     0.012 C
HETATM    6  C13 UNL     1       0.395  30.668  -9.838  1.00  0.00     0.159 C
HETATM    7  C26 UNL     1      -0.093  30.882 -11.259  1.00  0.00     0.179 C
ENDROOT
BRANCH   6   8
HETATM    8  O6  UNL     1       1.747  30.767  -9.694  1.00  0.00    -0.353 OA
BRANCH   8   9
HETATM    9  C14 UNL     1       2.399  30.511 -10.896  1.00  0.00     0.263 C
HETATM   10  C15 UNL     1       3.684  31.258 -11.033  1.00  0.00     0.063 C
HETATM   11  C16 UNL     1       4.284  30.968 -12.378  1.00  0.00     0.042 C
HETATM   12  C17 UNL     1       3.662  29.790 -13.040  1.00  0.00     0.238 C
HETATM   13  C18 UNL     1       3.152  28.718 -12.142  1.00  0.00     0.293 C
HETATM   14  O11 UNL     1       2.673  29.146 -10.928  1.00  0.00    -0.329 OA
BRANCH  12  15
HETATM   15  N2  UNL     1       2.661  30.167 -14.039  1.00  0.00    -0.070 N
ATOM     16  H23 UNL     1       2.212  31.049 -13.793  1.00  0.00     0.274 HD
ATOM     17  H22 UNL     1       3.106  30.447 -14.914  1.00  0.00     0.274 HD
ATOM     18  H21 UNL     1       1.968  29.435 -14.198  1.00  0.00     0.274 HD
ENDBRANCH  12  15
BRANCH  13  19
HETATM   19  O7  UNL     1       4.072  27.666 -11.988  1.00  0.00    -0.349 OA
BRANCH  19  20
HETATM   20  C19 UNL     1       4.375  27.412 -10.669  1.00  0.00     0.184 C
HETATM   21  C20 UNL     1       5.758  27.937 -10.296  1.00  0.00     0.105 C
HETATM   22  C21 UNL     1       6.301  26.799  -9.462  1.00  0.00     0.170 C
HETATM   23  O9  UNL     1       5.839  25.680 -10.145  1.00  0.00    -0.323 OA
HETATM   24  C25 UNL     1       4.503  25.951 -10.372  1.00  0.00     0.289 C
BRANCH  22  25
HETATM   25  O8  UNL     1       5.749  26.855  -8.203  1.00  0.00    -0.365 OA
ATOM     26  H8  UNL     1       5.649  25.972  -7.866  1.00  0.00     0.213 HD
ENDBRANCH  22  25
BRANCH  22  27
HETATM   27  C22 UNL     1       7.814  26.831  -9.396  1.00  0.00     0.040 C
HETATM   28  C23 UNL     1       8.407  26.480 -10.738  1.00  0.00     0.015 C
HETATM   29  C24 UNL     1       8.276  25.811  -8.390  1.00  0.00     0.015 C
ENDBRANCH  22  27
BRANCH  24  30
HETATM   30  O10 UNL     1       3.794  25.613  -9.206  1.00  0.00    -0.368 OA
ATOM     31  H10 UNL     1       4.372  25.225  -8.559  1.00  0.00     0.212 HD
ENDBRANCH  24  30
ENDBRANCH  19  20
ENDBRANCH  13  19
ENDBRANCH   8   9
ENDBRANCH   6   8
BRANCH   7  32
HETATM   32  O12 UNL     1       0.042  32.247 -11.513  1.00  0.00    -0.390 OA
ATOM     33  H12 UNL     1       0.382  32.736 -10.773  1.00  0.00     0.210 HD
ENDBRANCH   7  32
BRANCH   1  34
HETATM   34  O4  UNL     1      -2.064  30.232 -12.516  1.00  0.00    -0.368 OA
BRANCH  34  35
HETATM   35  C7  UNL     1      -2.320  28.946 -12.909  1.00  0.00     0.200 C
HETATM   36  C3  UNL     1      -1.643  28.744 -14.251  1.00  0.00     0.123 C
HETATM   37  N1  UNL     1      -1.903  29.781 -15.191  1.00  0.00    -0.368 N
HETATM   38  C4  UNL     1      -1.854  27.367 -14.772  1.00  0.00     0.066 C
HETATM   39  C2  UNL     1      -2.731  29.504 -16.301  1.00  0.00     0.366 C
ATOM     40  H1  UNL     1      -1.498  30.709 -15.065  1.00  0.00     0.158 HD
HETATM   41  O14 UNL     1      -2.556  28.284 -16.880  1.00  0.00    -0.336 OA
HETATM   42  C27 UNL     1      -1.717  27.397 -16.278  1.00  0.00     0.158 C
HETATM   43  C5  UNL     1      -3.152  26.823 -14.288  1.00  0.00     0.180 C
HETATM   44  O2  UNL     1      -4.119  27.758 -14.026  1.00  0.00    -0.358 OA
HETATM   45  C6  UNL     1      -3.791  28.666 -13.054  1.00  0.00     0.287 C
BRANCH  39  46
HETATM   46  O1  UNL     1      -2.419  30.457 -17.313  1.00  0.00    -0.349 OA
HETATM   47  C1  UNL     1      -1.414  31.315 -16.949  1.00  0.00     0.206 C
ENDBRANCH  39  46
BRANCH  42  48
HETATM   48  C28 UNL     1      -1.844  26.044 -16.908  1.00  0.00     0.196 C
BRANCH  48  49
HETATM   49  O13 UNL     1      -0.740  25.284 -16.456  1.00  0.00    -0.398 OA
ATOM     50  H13 UNL     1      -0.664  24.541 -17.044  1.00  0.00     0.209 HD
ENDBRANCH  48  49
ENDBRANCH  42  48
BRANCH  45  51
HETATM   51  O3  UNL     1      -4.535  29.839 -13.303  1.00  0.00    -0.369 OA
ATOM     52  H3  UNL     1      -5.180  29.919 -12.611  1.00  0.00     0.212 HD
ENDBRANCH  45  51
ENDBRANCH  34  35
ENDBRANCH   1  34
BRANCH   2  53
HETATM   53  O5  UNL     1      -3.658  30.988 -10.457  1.00  0.00    -0.393 OA
ATOM     54  H5  UNL     1      -4.185  31.712 -10.775  1.00  0.00     0.210 HD
ENDBRANCH   2  53
TORSDOF 16
ENDMDL