MODEL 4
REMARK VINA RESULT: -7.906816939      3.085      5.146
REMARK  6 active torsions:
REMARK  status: ('A' for Active; 'I' for Inactive)
REMARK       I    between atoms: N1_2  and  C2_4
REMARK    1  A    between atoms: C2_4  and  C3_6
REMARK    2  A    between atoms: C6_9  and  C7_10
REMARK    3  A    between atoms: C9_14  and  N3_15
REMARK    4  A    between atoms: C10_20  and  O2_21
REMARK    5  A    between atoms: O2_21  and  C11_22
REMARK    6  A    between atoms: C11_22  and  C12_23
ROOT
HETATM    1  C7  UNL     1      -2.892   1.679  10.916  1.00  0.00     0.043 A
HETATM    2  C8  UNL     1      -2.053   0.862  10.146  1.00  0.00     0.122 A
HETATM    3  N2  UNL     1      -1.946  -0.448  10.299  1.00  0.00    -0.201 N
ATOM      4  H2  UNL     1      -1.318  -0.994   9.709  1.00  0.00     0.183 HD
HETATM    5  C9  UNL     1      -2.681  -1.037  11.243  1.00  0.00     0.677 A
HETATM    6  N4  UNL     1      -3.492  -0.305  11.999  1.00  0.00    -0.170 N
ATOM      7  H4  UNL     1      -4.041  -0.783  12.713  1.00  0.00     0.186 HD
HETATM    8  C10 UNL     1      -3.636   1.047  11.880  1.00  0.00     0.174 A
ENDROOT
BRANCH   1   9
HETATM    9  C6  UNL     1      -2.967   3.098  10.708  1.00  0.00    -0.005 A
HETATM   10  C5  UNL     1      -4.043   3.633  10.043  1.00  0.00     0.016 A
HETATM   11  C4  UNL     1      -4.151   5.004   9.812  1.00  0.00     0.036 A
HETATM   12  C3  UNL     1      -3.129   5.813  10.277  1.00  0.00     0.100 A
HETATM   13  N5  UNL     1      -2.094   5.263  10.920  1.00  0.00    -0.361 N
HETATM   14  C18 UNL     1      -1.975   3.924  11.154  1.00  0.00     0.101 A
ATOM     15  H5  UNL     1      -1.352   5.878  11.254  1.00  0.00     0.165 HD
BRANCH  12  16
HETATM   16  C2  UNL     1      -3.206   7.254  10.054  1.00  0.00     0.267 C
HETATM   17  N1  UNL     1      -3.024   8.176  11.116  1.00  0.00    -0.360 N
HETATM   18  C1  UNL     1      -3.102   9.613  10.889  1.00  0.00     0.149 C
ATOM     19  H1  UNL     1      -2.835   7.826  12.056  1.00  0.00     0.162 HD
HETATM   20  O1  UNL     1      -3.439   7.703   8.900  1.00  0.00    -0.266 OA
ENDBRANCH  12  16
ENDBRANCH   1   9
BRANCH   8  21
HETATM   21  O2  UNL     1      -4.529   1.721  12.739  1.00  0.00    -0.303 OA
BRANCH  21  22
HETATM   22  C11 UNL     1      -3.971   2.284  13.881  1.00  0.00     0.159 C
BRANCH  22  23
HETATM   23  C12 UNL     1      -4.638   2.038  15.144  1.00  0.00     0.030 A
HETATM   24  C13 UNL     1      -5.445   3.054  15.654  1.00  0.00     0.047 A
HETATM   25 CL1  UNL     1      -5.641   4.586  14.811  1.00  0.00    -0.083 Cl
HETATM   26  C14 UNL     1      -6.122   2.896  16.845  1.00  0.00     0.025 A
HETATM   27  C15 UNL     1      -6.017   1.722  17.562  1.00  0.00     0.003 A
HETATM   28  C16 UNL     1      -5.224   0.705  17.074  1.00  0.00     0.025 A
HETATM   29  C17 UNL     1      -4.541   0.878  15.861  1.00  0.00     0.047 A
HETATM   30 CL2  UNL     1      -3.543  -0.398  15.205  1.00  0.00    -0.083 Cl
ENDBRANCH  22  23
ENDBRANCH  21  22
ENDBRANCH   8  21
BRANCH   5  31
HETATM   31  N3  UNL     1      -2.632  -2.300  11.451  1.00  0.00    -0.234 N
ATOM     32  H32 UNL     1      -2.950  -2.926  10.710  1.00  0.00     0.174 HD
ATOM     33  H31 UNL     1      -2.286  -2.690  12.327  1.00  0.00     0.174 HD
ENDBRANCH   5  31
TORSDOF 6
ENDMDL