MODEL 4
REMARK VINA RESULT: -6.583277684      2.371      3.307
REMARK  11 active torsions:
REMARK  status: ('A' for Active; 'I' for Inactive)
REMARK    1  A    between atoms: C3_3  and  C4_4
REMARK    2  A    between atoms: C7_7  and  C8_8
REMARK    3  A    between atoms: C8_8  and  O1_9
REMARK    4  A    between atoms: C8_8  and  C9_11
REMARK    5  A    between atoms: C8_8  and  C18_26
REMARK    6  A    between atoms: C9_11  and  O2_12
REMARK    7  A    between atoms: C9_11  and  C14_20
REMARK    8  A    between atoms: O2_12  and  C10_13
REMARK       I    between atoms: C10_13  and  N1_15
REMARK    9  A    between atoms: N1_15  and  C11_17
REMARK   10  A    between atoms: C14_20  and  O4_22
REMARK   11  A    between atoms: C14_20  and  C16_24
ROOT
HETATM    1  C1  UNL     1       4.475   5.275   9.099  1.00  0.00     0.112 C
HETATM    2  C2  UNL     1       3.169   4.798   9.597  1.00  0.00    -0.105 C
HETATM    3  C3  UNL     1       2.119   4.388  10.012  1.00  0.00    -0.067 C
ENDROOT
BRANCH   3   4
HETATM    4  C4  UNL     1       0.871   3.868  10.534  1.00  0.00     0.017 A
HETATM    5  C5  UNL     1       0.365   2.673  10.004  1.00  0.00     0.021 A
HETATM    6  C6  UNL     1      -0.808   2.139  10.476  1.00  0.00     0.012 A
HETATM    7  C7  UNL     1      -1.566   2.713  11.478  1.00  0.00    -0.012 A
HETATM    8  C19 UNL     1      -1.035   3.902  11.986  1.00  0.00     0.012 A
HETATM    9  C20 UNL     1       0.152   4.461  11.521  1.00  0.00     0.021 A
BRANCH   7  10
HETATM   10  C8  UNL     1      -2.833   2.148  11.929  1.00  0.00     0.212 C
BRANCH  10  11
HETATM   11  O1  UNL     1      -2.994   2.730  13.255  1.00  0.00    -0.374 OA
ATOM     12  H1  UNL     1      -3.803   3.221  13.174  1.00  0.00     0.211 HD
ENDBRANCH  10  11
BRANCH  10  13
HETATM   13  C9  UNL     1      -2.974   0.739  12.262  1.00  0.00     0.215 C
BRANCH  13  14
HETATM   14  O2  UNL     1      -4.128   0.702  13.158  1.00  0.00    -0.292 OA
BRANCH  14  15
HETATM   15  C10 UNL     1      -4.020   0.741  14.540  1.00  0.00     0.361 C
HETATM   16  O3  UNL     1      -3.141   0.026  15.059  1.00  0.00    -0.238 OA
HETATM   17  N1  UNL     1      -4.897   1.576  15.294  1.00  0.00    -0.333 N
ATOM     18  H1  UNL     1      -5.573   2.125  14.763  1.00  0.00     0.165 HD
BRANCH  17  19
HETATM   19  C11 UNL     1      -4.925   1.726  16.714  1.00  0.00     0.078 C
HETATM   20  C12 UNL     1      -5.978   2.842  16.989  1.00  0.00     0.032 C
HETATM   21  C13 UNL     1      -5.476   0.491  17.384  1.00  0.00     0.032 C
ENDBRANCH  17  19
ENDBRANCH  14  15
ENDBRANCH  13  14
BRANCH  13  22
HETATM   22  C14 UNL     1      -3.230  -0.360  11.310  1.00  0.00     0.084 C
HETATM   23  C15 UNL     1      -4.210  -0.205  10.234  1.00  0.00     0.049 C
BRANCH  22  24
HETATM   24  O4  UNL     1      -3.887  -1.322  12.215  1.00  0.00    -0.387 OA
ATOM     25  H4  UNL     1      -3.945  -2.073  11.635  1.00  0.00     0.210 HD
ENDBRANCH  22  24
BRANCH  22  26
HETATM   26  C16 UNL     1      -2.022  -1.179  10.936  1.00  0.00     0.035 C
HETATM   27  C17 UNL     1      -2.345  -2.668  10.939  1.00  0.00     0.008 C
ENDBRANCH  22  26
ENDBRANCH  13  22
ENDBRANCH  10  13
BRANCH  10  28
HETATM   28  C18 UNL     1      -4.020   2.842  11.282  1.00  0.00     0.425 C
HETATM   29  F1  UNL     1      -5.196   2.248  11.545  1.00  0.00    -0.167 F
HETATM   30  F2  UNL     1      -4.095   4.143  11.821  1.00  0.00    -0.167 F
HETATM   31  F3  UNL     1      -3.906   3.079   9.938  1.00  0.00    -0.167 F
ENDBRANCH  10  28
ENDBRANCH   7  10
ENDBRANCH   3   4
TORSDOF 11
ENDMDL