MODEL 3
REMARK VINA RESULT: -6.177756612      3.867      5.392
REMARK  10 active torsions:
REMARK  status: ('A' for Active; 'I' for Inactive)
REMARK    1  A    between atoms: C2_2  and  O1_3
REMARK    2  A    between atoms: O1_3  and  C3_4
REMARK    3  A    between atoms: C3_4  and  C4_8
REMARK    4  A    between atoms: C4_8  and  N2_9
REMARK    5  A    between atoms: C4_8  and  C14_25
REMARK    6  A    between atoms: N2_9  and  C5_11
REMARK    7  A    between atoms: C5_11  and  N3_13
REMARK    8  A    between atoms: N3_13  and  C6_15
REMARK    9  A    between atoms: C9_18  and  O2_19
REMARK   10  A    between atoms: C11_21  and  O3_22
ROOT
HETATM    1  N2  UNL     1      -3.171   3.802  11.165  1.00  0.00    -0.329 N
ATOM      2  H2  UNL     1      -3.739   3.767  10.319  1.00  0.00     0.168 HD
ENDROOT
BRANCH   1   3
HETATM    3  C4  UNL     1      -2.283   2.706  11.279  1.00  0.00     0.117 C
BRANCH   3   4
HETATM    4  C3  UNL     1      -0.855   2.935  10.987  1.00  0.00     0.163 C
HETATM    5  N1  UNL     1       0.028   3.090  11.969  1.00  0.00    -0.378 N
ATOM      6  H12 UNL     1       1.015   3.249  11.767  1.00  0.00     0.158 HD
ATOM      7  H11 UNL     1      -0.412   3.030  12.888  1.00  0.00     0.158 HD
BRANCH   4   8
HETATM    8  O1  UNL     1      -0.262   3.016   9.749  1.00  0.00    -0.335 OA
BRANCH   8   9
HETATM    9  C2  UNL     1       0.632   4.055   9.378  1.00  0.00     0.173 C
HETATM   10  C1  UNL     1       1.935   3.483   8.835  1.00  0.00     0.034 C
ENDBRANCH   8   9
ENDBRANCH   4   8
ENDBRANCH   3   4
BRANCH   3  11
HETATM   11  C14 UNL     1      -2.803   1.368  10.816  1.00  0.00     0.235 C
HETATM   12 CL1  UNL     1      -3.676   1.645   9.289  1.00  0.00    -0.077 Cl
HETATM   13 CL2  UNL     1      -4.083   0.876  12.004  1.00  0.00    -0.077 Cl
HETATM   14 CL3  UNL     1      -1.663   0.058  10.773  1.00  0.00    -0.077 Cl
ENDBRANCH   3  11
ENDBRANCH   1   3
BRANCH   1  15
HETATM   15  C5  UNL     1      -3.442   4.918  11.952  1.00  0.00     0.176 C
HETATM   16  S1  UNL     1      -4.133   6.224  11.177  1.00  0.00    -0.041 SA
BRANCH  15  17
HETATM   17  N3  UNL     1      -3.254   5.088  13.326  1.00  0.00    -0.333 N
ATOM     18  H3  UNL     1      -2.580   5.793  13.626  1.00  0.00     0.168 HD
BRANCH  17  19
HETATM   19  C6  UNL     1      -3.944   4.335  14.358  1.00  0.00     0.037 A
HETATM   20  C7  UNL     1      -5.112   4.724  14.932  1.00  0.00     0.032 A
HETATM   21  C8  UNL     1      -5.712   3.900  15.890  1.00  0.00     0.042 A
HETATM   22  C9  UNL     1      -5.114   2.711  16.240  1.00  0.00     0.101 A
HETATM   23  C11 UNL     1      -3.928   2.286  15.679  1.00  0.00     0.103 A
HETATM   24  C13 UNL     1      -3.366   3.117  14.741  1.00  0.00     0.069 A
BRANCH  22  25
HETATM   25  O2  UNL     1      -5.717   1.885  17.201  1.00  0.00    -0.353 OA
HETATM   26  C10 UNL     1      -6.771   1.015  16.899  1.00  0.00     0.210 C
ENDBRANCH  22  25
BRANCH  23  27
HETATM   27  O3  UNL     1      -3.388   1.087  16.077  1.00  0.00    -0.353 OA
HETATM   28  C12 UNL     1      -3.516  -0.119  15.384  1.00  0.00     0.210 C
ENDBRANCH  23  27
ENDBRANCH  17  19
ENDBRANCH  15  17
ENDBRANCH   1  15
TORSDOF 10
ENDMDL