MODEL 5
REMARK VINA RESULT: -8.441729291      3.480      5.395
REMARK  9 active torsions:
REMARK  status: ('A' for Active; 'I' for Inactive)
REMARK    1  A    between atoms: C2_2  and  N1_4
REMARK    2  A    between atoms: C2_2  and  C12_16
REMARK       I    between atoms: N1_4  and  C4_6
REMARK    3  A    between atoms: C4_6  and  O2_8
REMARK    4  A    between atoms: O2_8  and  C5_9
REMARK    5  A    between atoms: C5_9  and  C6_10
REMARK    6  A    between atoms: C12_16  and  N3_20
REMARK    7  A    between atoms: N3_20  and  N4_22
REMARK    8  A    between atoms: C13_24  and  C14_25
REMARK    9  A    between atoms: C17_28  and  C18_29
ROOT
HETATM    1  C12 UNL     1      -0.218   5.342  12.061  1.00  0.00     0.117 C
HETATM    2  N2  UNL     1       0.965   5.797  12.333  1.00  0.00    -0.386 N
ATOM      3  H21 UNL     1       1.009   6.457  13.109  1.00  0.00     0.157 HD
ATOM      4  H22 UNL     1       1.783   5.495  11.804  1.00  0.00     0.157 HD
ENDROOT
BRANCH   1   5
HETATM    5  C2  UNL     1      -0.280   4.381  10.931  1.00  0.00     0.087 C
HETATM    6  C1  UNL     1       1.050   4.380  10.254  1.00  0.00     0.046 C
HETATM    7  C3  UNL     1      -1.363   4.720   9.957  1.00  0.00     0.046 C
BRANCH   5   8
HETATM    8  N1  UNL     1      -0.600   3.027  11.470  1.00  0.00    -0.321 N
HETATM    9  C4  UNL     1      -0.409   1.943  10.504  1.00  0.00     0.361 C
HETATM   10  O1  UNL     1      -0.142   1.555   9.546  1.00  0.00    -0.238 OA
ATOM     11  H1  UNL     1      -0.923   2.871  12.425  1.00  0.00     0.166 HD
BRANCH   9  12
HETATM   12  O2  UNL     1      -0.889   0.738  11.384  1.00  0.00    -0.299 OA
BRANCH  12  13
HETATM   13  C5  UNL     1      -1.699  -0.209  10.704  1.00  0.00     0.219 C
BRANCH  13  14
HETATM   14  C6  UNL     1      -2.998   0.466  10.449  1.00  0.00    -0.034 A
HETATM   15  C7  UNL     1      -3.636   1.210  11.411  1.00  0.00     0.009 A
HETATM   16  C8  UNL     1      -4.854   1.834  11.156  1.00  0.00     0.001 A
HETATM   17  C9  UNL     1      -5.397   1.687   9.911  1.00  0.00     0.000 A
HETATM   18  C10 UNL     1      -4.812   0.957   8.907  1.00  0.00     0.001 A
HETATM   19  C11 UNL     1      -3.583   0.345   9.220  1.00  0.00     0.009 A
ENDBRANCH  13  14
ENDBRANCH  12  13
ENDBRANCH   9  12
ENDBRANCH   5   8
ENDBRANCH   1   5
BRANCH   1  20
HETATM   20  N3  UNL     1      -1.342   5.756  12.788  1.00  0.00    -0.288 N
ATOM     21  H3  UNL     1      -1.704   6.687  12.581  1.00  0.00     0.188 HD
BRANCH  20  22
HETATM   22  N4  UNL     1      -2.026   5.015  13.779  1.00  0.00    -0.310 N
HETATM   23  C13 UNL     1      -3.305   4.686  13.470  1.00  0.00     0.118 C
ATOM     24  H4  UNL     1      -1.590   4.748  14.661  1.00  0.00     0.186 HD
BRANCH  23  25
HETATM   25  C14 UNL     1      -4.022   3.951  14.476  1.00  0.00    -0.019 A
HETATM   26  C15 UNL     1      -5.296   4.188  14.905  1.00  0.00     0.013 A
HETATM   27  C16 UNL     1      -5.926   3.457  15.923  1.00  0.00     0.017 A
HETATM   28  C17 UNL     1      -5.223   2.451  16.528  1.00  0.00     0.048 A
HETATM   29  C19 UNL     1      -3.909   2.202  16.104  1.00  0.00     0.017 A
HETATM   30  C20 UNL     1      -3.331   2.922  15.111  1.00  0.00     0.013 A
BRANCH  28  31
HETATM   31  C18 UNL     1      -5.770   1.478  17.539  1.00  0.00     0.417 C
HETATM   32  F1  UNL     1      -5.845   2.086  18.796  1.00  0.00    -0.166 F
HETATM   33  F2  UNL     1      -7.086   1.165  17.148  1.00  0.00    -0.166 F
HETATM   34  F3  UNL     1      -5.072   0.296  17.591  1.00  0.00    -0.166 F
ENDBRANCH  28  31
ENDBRANCH  23  25
ENDBRANCH  20  22
ENDBRANCH   1  20
TORSDOF 9
ENDMDL