MODEL 4
REMARK VINA RESULT: -6.810941385      4.625      6.906
REMARK  7 active torsions:
REMARK  status: ('A' for Active; 'I' for Inactive)
REMARK    1  A    between atoms: N1_2  and  C2_5
REMARK    2  A    between atoms: C2_5  and  C3_6
REMARK    3  A    between atoms: C3_6  and  N2_7
REMARK    4  A    between atoms: N2_7  and  C4_9
REMARK    5  A    between atoms: C7_15  and  C8_16
REMARK    6  A    between atoms: C10_18  and  C11_19
REMARK    7  A    between atoms: C13_25  and  O1_26
ROOT
HETATM    1  C4  UNL     1      -5.052   7.275  13.515  1.00  0.00     0.117 A
HETATM    2  C5  UNL     1      -5.485   6.902  14.792  1.00  0.00     0.137 A
HETATM    3  N3  UNL     1      -5.229   5.684  15.284  1.00  0.00    -0.351 N
ATOM      4  H3  UNL     1      -5.556   5.437  16.218  1.00  0.00     0.166 HD
HETATM    5  C6  UNL     1      -4.528   4.762  14.539  1.00  0.00     0.131 A
HETATM    6 CL1  UNL     1      -4.182   3.207  15.279  1.00  0.00    -0.062 Cl
HETATM    7  C7  UNL     1      -4.090   5.091  13.281  1.00  0.00     0.085 A
HETATM    8  N6  UNL     1      -4.382   6.356  12.825  1.00  0.00    -0.338 N
ATOM      9  H6  UNL     1      -4.061   6.607  11.890  1.00  0.00     0.167 HD
ENDROOT
BRANCH   7  10
HETATM   10  C8  UNL     1      -3.280   4.179  12.488  1.00  0.00     0.017 A
HETATM   11  C9  UNL     1      -3.857   3.261  11.597  1.00  0.00     0.031 A
HETATM   12  C10 UNL     1      -3.134   2.344  10.867  1.00  0.00     0.018 A
HETATM   13  C15 UNL     1      -1.756   2.351  11.043  1.00  0.00     0.048 A
HETATM   14 CL2  UNL     1      -0.840   1.184  10.117  1.00  0.00    -0.083 Cl
HETATM   15  C16 UNL     1      -1.150   3.226  11.898  1.00  0.00     0.049 A
HETATM   16  C17 UNL     1      -1.914   4.153  12.636  1.00  0.00     0.048 A
HETATM   17 CL3  UNL     1      -1.103   5.178  13.768  1.00  0.00    -0.083 Cl
BRANCH  12  18
HETATM   18  C11 UNL     1      -3.746   1.437   9.900  1.00  0.00     0.094 A
HETATM   19  N4  UNL     1      -4.014   1.737   8.593  1.00  0.00    -0.297 N
HETATM   20  N5  UNL     1      -4.543   0.705   7.967  1.00  0.00    -0.309 N
ATOM     21  H4  UNL     1      -3.829   2.641   8.159  1.00  0.00     0.187 HD
HETATM   22  C12 UNL     1      -4.646  -0.319   8.828  1.00  0.00     0.146 A
ATOM     23  H5  UNL     1      -4.827   0.688   6.988  1.00  0.00     0.186 HD
HETATM   24  C13 UNL     1      -4.150   0.132  10.039  1.00  0.00     0.114 A
BRANCH  24  25
HETATM   25  O1  UNL     1      -4.086  -0.639  11.191  1.00  0.00    -0.352 OA
HETATM   26  C14 UNL     1      -3.008  -1.475  11.526  1.00  0.00     0.210 C
ENDBRANCH  24  25
ENDBRANCH  12  18
ENDBRANCH   7  10
BRANCH   1  27
HETATM   27  N2  UNL     1      -5.321   8.463  13.097  1.00  0.00    -0.374 N
ATOM     28  H2  UNL     1      -4.529   9.100  13.008  1.00  0.00     0.161 HD
BRANCH  27  29
HETATM   29  C3  UNL     1      -6.593   8.991  12.744  1.00  0.00     0.148 C
BRANCH  29  30
HETATM   30  C2  UNL     1      -6.671   9.310  11.249  1.00  0.00     0.251 C
BRANCH  30  31
HETATM   31  N1  UNL     1      -7.395   8.241  10.615  1.00  0.00    -0.077 N
HETATM   32  C1  UNL     1      -6.441   7.360   9.935  1.00  0.00     0.267 C
ATOM     33  H12 UNL     1      -8.124   8.583   9.989  1.00  0.00     0.276 HD
ATOM     34  H11 UNL     1      -7.994   7.736  11.268  1.00  0.00     0.276 HD
ENDBRANCH  30  31
ENDBRANCH  29  30
ENDBRANCH  27  29
ENDBRANCH   1  27
TORSDOF 7
ENDMDL