MODEL 4
REMARK VINA RESULT: -7.411072778      1.129      1.365
REMARK  8 active torsions:
REMARK  status: ('A' for Active; 'I' for Inactive)
REMARK    1  A    between atoms: O1_2  and  C2_3
REMARK    2  A    between atoms: C5_6  and  C6_7
REMARK    3  A    between atoms: C6_7  and  N2_11
REMARK    4  A    between atoms: N2_11  and  C7_13
REMARK    5  A    between atoms: C7_13  and  N3_14
REMARK    6  A    between atoms: C7_13  and  C12_21
REMARK       I    between atoms: N3_14  and  C8_16
REMARK    7  A    between atoms: C8_16  and  C9_18
REMARK    8  A    between atoms: C14_26  and  N4_27
ROOT
HETATM    1  C6  UNL     1      -3.921   5.019  12.996  1.00  0.00     0.106 C
HETATM    2  N1  UNL     1      -4.256   6.252  12.905  1.00  0.00    -0.385 N
ATOM      3  H11 UNL     1      -3.903   6.888  12.190  1.00  0.00     0.157 HD
ATOM      4  H12 UNL     1      -4.916   6.641  13.579  1.00  0.00     0.157 HD
ENDROOT
BRANCH   1   5
HETATM    5  C5  UNL     1      -4.432   4.101  14.028  1.00  0.00     0.010 A
HETATM    6  C4  UNL     1      -5.443   4.470  14.892  1.00  0.00     0.018 A
HETATM    7  C3  UNL     1      -5.910   3.582  15.863  1.00  0.00     0.040 A
HETATM    8  C2  UNL     1      -5.393   2.313  16.001  1.00  0.00     0.101 A
HETATM    9  C14 UNL     1      -4.379   1.949  15.131  1.00  0.00     0.137 A
HETATM   10  C13 UNL     1      -3.914   2.830  14.167  1.00  0.00     0.054 A
BRANCH   8  11
HETATM   11  O1  UNL     1      -5.866   1.437  16.970  1.00  0.00    -0.353 OA
HETATM   12  C1  UNL     1      -5.610   1.738  18.330  1.00  0.00     0.210 C
ENDBRANCH   8  11
BRANCH   9  13
HETATM   13  N4  UNL     1      -3.850   0.643  15.276  1.00  0.00    -0.113 N
HETATM   14  O3  UNL     1      -2.922   0.443  16.070  1.00  0.00    -0.532 OA
HETATM   15  O4  UNL     1      -4.382  -0.368  14.530  1.00  0.00    -0.532 OA
ENDBRANCH   9  13
ENDBRANCH   1   5
BRANCH   1  16
HETATM   16  N2  UNL     1      -2.996   4.474  12.051  1.00  0.00    -0.351 N
ATOM     17  H2  UNL     1      -2.082   4.127  12.343  1.00  0.00     0.163 HD
BRANCH  16  18
HETATM   18  C7  UNL     1      -3.408   4.432  10.665  1.00  0.00     0.240 C
BRANCH  18  19
HETATM   19  N3  UNL     1      -3.246   3.095  10.160  1.00  0.00    -0.336 N
HETATM   20  C8  UNL     1      -4.225   2.088  10.373  1.00  0.00     0.222 C
HETATM   21  O2  UNL     1      -5.255   2.383  11.022  1.00  0.00    -0.273 OA
ATOM     22  H3  UNL     1      -2.404   2.864   9.632  1.00  0.00     0.164 HD
BRANCH  20  23
HETATM   23  C9  UNL     1      -4.069   0.714   9.859  1.00  0.00     0.070 C
HETATM   24  C10 UNL     1      -4.433   0.701   8.395  1.00  0.00     0.019 C
HETATM   25  C11 UNL     1      -2.584   0.346   9.948  1.00  0.00     0.019 C
ENDBRANCH  20  23
ENDBRANCH  18  19
BRANCH  18  26
HETATM   26  C12 UNL     1      -2.603   5.455   9.868  1.00  0.00     0.226 C
HETATM   27 CL1  UNL     1      -1.117   5.776  10.790  1.00  0.00    -0.080 Cl
HETATM   28 CL2  UNL     1      -3.498   6.957   9.687  1.00  0.00    -0.080 Cl
HETATM   29 CL3  UNL     1      -2.122   4.763   8.297  1.00  0.00    -0.080 Cl
ENDBRANCH  18  26
ENDBRANCH  16  18
ENDBRANCH   1  16
TORSDOF 8
ENDMDL