MODEL 2
REMARK VINA RESULT: -8.364533902      2.364      6.349
REMARK  6 active torsions:
REMARK  status: ('A' for Active; 'I' for Inactive)
REMARK    1  A    between atoms: O1_2  and  C2_3
REMARK    2  A    between atoms: C7_8  and  N1_9
REMARK       I    between atoms: N1_9  and  C8_11
REMARK       I    between atoms: C8_11  and  N2_13
REMARK    3  A    between atoms: N2_13  and  C9_15
REMARK    4  A    between atoms: C9_15  and  N3_16
REMARK    5  A    between atoms: C9_15  and  C14_26
REMARK       I    between atoms: N3_16  and  C10_18
REMARK    6  A    between atoms: C10_18  and  C11_20
ROOT
HETATM    1  C9  UNL     1      -3.137   4.546  14.554  1.00  0.00     0.243 C
ENDROOT
BRANCH   1   2
HETATM    2  N2  UNL     1      -2.506   3.985  13.391  1.00  0.00    -0.317 N
HETATM    3  C8  UNL     1      -3.236   3.186  12.418  1.00  0.00     0.322 C
HETATM    4  N1  UNL     1      -2.584   2.656  11.296  1.00  0.00    -0.306 N
HETATM    5  O2  UNL     1      -4.449   3.046  12.703  1.00  0.00    -0.247 OA
ATOM      6  H1  UNL     1      -1.588   2.858  11.203  1.00  0.00     0.171 HD
ATOM      7  H2  UNL     1      -1.511   4.152  13.242  1.00  0.00     0.166 HD
BRANCH   4   8
HETATM    8  C7  UNL     1      -3.168   1.873  10.287  1.00  0.00     0.069 A
HETATM    9  C2  UNL     1      -3.188   0.478  10.463  1.00  0.00     0.095 A
HETATM   10  C3  UNL     1      -3.734  -0.387   9.543  1.00  0.00     0.039 A
HETATM   11  C4  UNL     1      -4.292   0.089   8.388  1.00  0.00     0.003 A
HETATM   12  C5  UNL     1      -4.285   1.444   8.190  1.00  0.00     0.002 A
HETATM   13  C6  UNL     1      -3.732   2.336   9.122  1.00  0.00     0.032 A
BRANCH   9  14
HETATM   14  O1  UNL     1      -2.619  -0.007  11.644  1.00  0.00    -0.354 OA
HETATM   15  C1  UNL     1      -3.488  -0.574  12.602  1.00  0.00     0.210 C
ENDBRANCH   9  14
ENDBRANCH   4   8
ENDBRANCH   1   2
BRANCH   1  16
HETATM   16  N3  UNL     1      -4.086   3.635  15.175  1.00  0.00    -0.330 N
HETATM   17  C10 UNL     1      -3.669   2.486  15.898  1.00  0.00     0.279 C
HETATM   18  O3  UNL     1      -2.465   2.179  16.050  1.00  0.00    -0.265 OA
ATOM     19  H3  UNL     1      -5.084   3.827  15.088  1.00  0.00     0.165 HD
BRANCH  17  20
HETATM   20  C11 UNL     1      -4.688   1.635  16.484  1.00  0.00     0.167 A
HETATM   21  C12 UNL     1      -6.045   1.871  16.542  1.00  0.00     0.064 A
HETATM   22  C13 UNL     1      -6.590   0.788  17.187  1.00  0.00     0.117 A
HETATM   23  N4  UNL     1      -5.565  -0.059  17.495  1.00  0.00    -0.272 N
HETATM   24  O4  UNL     1      -4.456   0.479  17.062  1.00  0.00    -0.233 OA
ATOM     25  H4  UNL     1      -5.650  -0.953  17.978  1.00  0.00     0.194 HD
ENDBRANCH  17  20
ENDBRANCH   1  16
BRANCH   1  26
HETATM   26  C14 UNL     1      -3.794   5.877  14.221  1.00  0.00     0.226 C
HETATM   27 CL1  UNL     1      -3.507   6.352  12.553  1.00  0.00    -0.080 Cl
HETATM   28 CL2  UNL     1      -3.160   7.103  15.312  1.00  0.00    -0.080 Cl
HETATM   29 CL3  UNL     1      -5.557   5.644  14.422  1.00  0.00    -0.080 Cl
ENDBRANCH   1  26
TORSDOF 6
ENDMDL