MODEL 5
REMARK VINA RESULT: -6.991646368      2.114      2.567
REMARK  9 active torsions:
REMARK  status: ('A' for Active; 'I' for Inactive)
REMARK    1  A    between atoms: O1_2  and  C2_3
REMARK    2  A    between atoms: C2_3  and  O2_4
REMARK    3  A    between atoms: C2_3  and  C3_6
REMARK    4  A    between atoms: C4_7  and  N1_8
REMARK       I    between atoms: N1_8  and  C5_10
REMARK    5  A    between atoms: C5_10  and  C6_12
REMARK    6  A    between atoms: C6_12  and  C7_14
REMARK    7  A    between atoms: C7_14  and  O5_15
REMARK    8  A    between atoms: C7_14  and  C8_17
REMARK    9  A    between atoms: C13_22  and  C14_23
ROOT
HETATM    1  C3  UNL     1      -4.165   4.666  12.875  1.00  0.00     0.045 A
HETATM    2  C4  UNL     1      -4.548   4.451  14.198  1.00  0.00     0.048 A
HETATM    3  C11 UNL     1      -4.923   5.554  14.926  1.00  0.00     0.031 A
HETATM    4  C12 UNL     1      -4.919   6.821  14.365  1.00  0.00     0.014 A
HETATM    5  C13 UNL     1      -4.546   7.035  13.078  1.00  0.00     0.002 A
HETATM    6  C16 UNL     1      -4.168   5.963  12.329  1.00  0.00     0.056 A
HETATM    7 CL3  UNL     1      -3.681   6.202  10.667  1.00  0.00    -0.083 Cl
ENDROOT
BRANCH   2   8
HETATM    8  N1  UNL     1      -4.524   3.174  14.739  1.00  0.00    -0.320 N
HETATM    9  C5  UNL     1      -3.537   2.495  15.472  1.00  0.00     0.294 C
HETATM   10  O3  UNL     1      -2.455   3.047  15.737  1.00  0.00    -0.264 OA
ATOM     11  H1  UNL     1      -5.373   2.632  14.575  1.00  0.00     0.169 HD
BRANCH   9  12
HETATM   12  C6  UNL     1      -3.746   1.116  15.949  1.00  0.00     0.245 C
HETATM   13  O4  UNL     1      -3.111   0.219  15.340  1.00  0.00    -0.284 OA
BRANCH  12  14
HETATM   14  C7  UNL     1      -4.621   0.763  17.054  1.00  0.00     0.201 C
BRANCH  14  15
HETATM   15  O5  UNL     1      -5.214  -0.512  16.737  1.00  0.00    -0.387 OA
ATOM     16  H5  UNL     1      -5.706  -0.790  17.500  1.00  0.00     0.210 HD
ENDBRANCH  14  15
BRANCH  14  17
HETATM   17  C8  UNL     1      -5.804   1.644  17.284  1.00  0.00     0.014 C
HETATM   18  C9  UNL     1      -5.826   2.273  18.666  1.00  0.00     0.012 C
HETATM   19  C10 UNL     1      -7.139   1.131  16.920  1.00  0.00     0.012 C
ENDBRANCH  14  17
ENDBRANCH  12  14
ENDBRANCH   9  12
ENDBRANCH   2   8
BRANCH   1  20
HETATM   20  C2  UNL     1      -3.756   3.584  11.969  1.00  0.00     0.294 C
BRANCH  20  21
HETATM   21  O1  UNL     1      -2.572   3.018  12.500  1.00  0.00    -0.362 OA
HETATM   22  C1  UNL     1      -1.448   3.487  11.829  1.00  0.00     0.205 C
ENDBRANCH  20  21
BRANCH  20  23
HETATM   23  O2  UNL     1      -4.711   2.542  12.070  1.00  0.00    -0.367 OA
ATOM     24  H2  UNL     1      -4.535   2.149  12.916  1.00  0.00     0.213 HD
ENDBRANCH  20  23
ENDBRANCH   1  20
BRANCH   5  25
HETATM   25  C14 UNL     1      -4.537   8.393  12.457  1.00  0.00     0.138 C
HETATM   26  C15 UNL     1      -4.938   9.398  13.503  1.00  0.00     0.056 C
HETATM   27 CL1  UNL     1      -2.920   8.803  11.875  1.00  0.00    -0.097 Cl
HETATM   28 CL2  UNL     1      -5.708   8.402  11.116  1.00  0.00    -0.097 Cl
ENDBRANCH   5  25
TORSDOF 9
ENDMDL