MODEL 4
REMARK VINA RESULT: -7.990268053      4.673      7.128
REMARK  8 active torsions:
REMARK  status: ('A' for Active; 'I' for Inactive)
REMARK    1  A    between atoms: O1_2  and  C2_3
REMARK    2  A    between atoms: C6_7  and  C7_8
REMARK    3  A    between atoms: C7_8  and  N1_9
REMARK    4  A    between atoms: N1_9  and  N2_10
REMARK    5  A    between atoms: N2_10  and  C8_12
REMARK    6  A    between atoms: N4_19  and  C13_21
REMARK    7  A    between atoms: C16_24  and  O2_25
REMARK    8  A    between atoms: O2_25  and  C17_26
ROOT
HETATM    1  C8  UNL     1      -3.438   0.695  12.001  1.00  0.00     0.708 A
HETATM    2  N3  UNL     1      -4.388   1.267  11.233  1.00  0.00    -0.199 N
ATOM      3  H3  UNL     1      -5.346   0.921  11.289  1.00  0.00     0.183 HD
HETATM    4  C9  UNL     1      -4.109   2.273  10.405  1.00  0.00     0.116 A
HETATM    5  C10 UNL     1      -2.793   2.739  10.341  1.00  0.00    -0.001 A
HETATM    6  C11 UNL     1      -2.530   3.860   9.402  1.00  0.00     0.054 C
HETATM    7  C12 UNL     1      -1.826   2.163  11.118  1.00  0.00     0.129 A
HETATM    8  N4  UNL     1      -0.633   2.488  11.147  1.00  0.00    -0.342 N
ATOM      9  H4  UNL     1      -0.158   1.883  11.816  1.00  0.00     0.167 HD
HETATM   10  N5  UNL     1      -2.184   1.120  11.957  1.00  0.00    -0.174 N
ATOM     11  H5  UNL     1      -1.478   0.678  12.545  1.00  0.00     0.186 HD
ENDROOT
BRANCH   8  12
HETATM   12  C13 UNL     1       0.291   3.344  10.629  1.00  0.00     0.033 A
HETATM   13  C14 UNL     1       0.991   3.120   9.434  1.00  0.00     0.032 A
HETATM   14  C15 UNL     1       1.922   4.017   8.973  1.00  0.00     0.039 A
HETATM   15  C16 UNL     1       2.225   5.180   9.644  1.00  0.00     0.078 A
HETATM   16  C18 UNL     1       1.550   5.422  10.819  1.00  0.00     0.039 A
HETATM   17  C19 UNL     1       0.614   4.537  11.299  1.00  0.00     0.032 A
BRANCH  15  18
HETATM   18  O2  UNL     1       3.160   6.091   9.188  1.00  0.00    -0.255 OA
BRANCH  18  19
HETATM   19  C17 UNL     1       4.558   5.802   9.219  1.00  0.00     0.530 C
HETATM   20  F1  UNL     1       4.949   5.064   8.135  1.00  0.00    -0.144 F
HETATM   21  F2  UNL     1       5.286   6.963   9.354  1.00  0.00    -0.144 F
HETATM   22  F3  UNL     1       4.790   5.027  10.352  1.00  0.00    -0.144 F
ENDBRANCH  18  19
ENDBRANCH  15  18
ENDBRANCH   8  12
BRANCH   1  23
HETATM   23  N2  UNL     1      -3.756  -0.295  12.806  1.00  0.00    -0.065 N
ATOM     24  H2  UNL     1      -3.978  -1.203  12.397  1.00  0.00     0.221 HD
BRANCH  23  25
HETATM   25  N1  UNL     1      -3.798  -0.172  14.076  1.00  0.00    -0.323 NA
BRANCH  25  26
HETATM   26  C7  UNL     1      -3.838   0.008  15.249  1.00  0.00     0.221 C
BRANCH  26  27
HETATM   27  C6  UNL     1      -4.631   1.133  15.811  1.00  0.00    -0.003 A
HETATM   28  C5  UNL     1      -5.137   1.122  17.089  1.00  0.00     0.014 A
HETATM   29  C4  UNL     1      -5.870   2.188  17.580  1.00  0.00     0.004 A
HETATM   30  C3  UNL     1      -6.114   3.296  16.801  1.00  0.00     0.037 A
HETATM   31  C2  UNL     1      -5.616   3.321  15.523  1.00  0.00     0.069 A
HETATM   32  C20 UNL     1      -4.889   2.261  15.038  1.00  0.00     0.050 A
BRANCH  31  33
HETATM   33  O1  UNL     1      -5.843   4.416  14.716  1.00  0.00    -0.356 OA
HETATM   34  C1  UNL     1      -4.971   5.520  14.803  1.00  0.00     0.210 C
ENDBRANCH  31  33
ENDBRANCH  26  27
ENDBRANCH  25  26
ENDBRANCH  23  25
ENDBRANCH   1  23
TORSDOF 8
ENDMDL