MODEL 1
REMARK VINA RESULT: -7.136705552      0.000      0.000
REMARK  8 active torsions:
REMARK  status: ('A' for Active; 'I' for Inactive)
REMARK    1  A    between atoms: N1_1  and  C1_4
REMARK    2  A    between atoms: C2_5  and  C3_6
REMARK    3  A    between atoms: C3_6  and  C4_7
REMARK    4  A    between atoms: N3_19  and  C11_20
REMARK    5  A    between atoms: C11_20  and  C12_21
REMARK    6  A    between atoms: C12_21  and  C13_22
REMARK    7  A    between atoms: C12_21  and  C14_27
REMARK    8  A    between atoms: C13_22  and  N4_23
ROOT
HETATM    1  C1  UNL     1      -4.446   4.521  14.388  1.00  0.00     0.123 A
HETATM    2  C2  UNL     1      -3.516   5.558  14.616  1.00  0.00     0.008 A
HETATM    3  C10 UNL     1      -2.371   5.092  14.008  1.00  0.00     0.118 A
HETATM    4  N2  UNL     1      -2.602   3.891  13.471  1.00  0.00    -0.307 N
ATOM      5  H2  UNL     1      -1.916   3.332  12.963  1.00  0.00     0.186 HD
HETATM    6  N3  UNL     1      -3.872   3.533  13.701  1.00  0.00    -0.276 N
ENDROOT
BRANCH   6   7
HETATM    7  C11 UNL     1      -4.471   2.279  13.316  1.00  0.00     0.164 C
BRANCH   7   8
HETATM    8  C12 UNL     1      -3.556   1.184  12.944  1.00  0.00     0.099 C
BRANCH   8   9
HETATM    9  C13 UNL     1      -3.697  -0.140  13.604  1.00  0.00     0.243 C
BRANCH   9  10
HETATM   10  N4  UNL     1      -3.447  -0.177  15.008  1.00  0.00    -0.079 N
ATOM     11  H43 UNL     1      -2.461   0.012  15.188  1.00  0.00     0.274 HD
ATOM     12  H42 UNL     1      -3.876   0.634  15.455  1.00  0.00     0.274 HD
ATOM     13  H41 UNL     1      -3.729  -1.027  15.496  1.00  0.00     0.274 HD
ENDBRANCH   9  10
ENDBRANCH   8   9
BRANCH   8  14
HETATM   14  C14 UNL     1      -3.798   0.929  11.468  1.00  0.00     0.088 A
HETATM   15  N5  UNL     1      -2.942   0.093  10.815  1.00  0.00    -0.355 N
HETATM   16  C15 UNL     1      -3.123  -0.155   9.513  1.00  0.00     0.090 A
ATOM     17  H5  UNL     1      -2.166  -0.341  11.317  1.00  0.00     0.166 HD
HETATM   18  C16 UNL     1      -4.177   0.445   8.865  1.00  0.00     0.034 A
HETATM   19  C17 UNL     1      -5.028   1.284   9.543  1.00  0.00     0.090 A
HETATM   20  N6  UNL     1      -4.811   1.506  10.850  1.00  0.00    -0.355 N
ATOM     21  H6  UNL     1      -5.434   2.127  11.368  1.00  0.00     0.166 HD
ENDBRANCH   8  14
ENDBRANCH   7   8
ENDBRANCH   6   7
BRANCH   1  22
HETATM   22  N1  UNL     1      -5.658   4.604  14.782  1.00  0.00    -0.384 N
ATOM     23  H12 UNL     1      -6.255   5.430  14.805  1.00  0.00     0.157 HD
ATOM     24  H11 UNL     1      -6.156   3.799  15.161  1.00  0.00     0.157 HD
ENDBRANCH   1  22
BRANCH   2  25
HETATM   25  C3  UNL     1      -3.805   6.797  15.356  1.00  0.00     0.084 C
BRANCH  25  26
HETATM   26  C4  UNL     1      -3.952   8.008  14.541  1.00  0.00    -0.030 A
HETATM   27  C5  UNL     1      -5.088   8.202  13.745  1.00  0.00     0.034 A
HETATM   28  C6  UNL     1      -5.278   9.317  12.966  1.00  0.00     0.056 A
HETATM   29 CL1  UNL     1      -6.714   9.532  11.977  1.00  0.00    -0.083 Cl
HETATM   30  C7  UNL     1      -4.331  10.318  12.938  1.00  0.00     0.057 A
HETATM   31 CL2  UNL     1      -4.572  11.749  11.939  1.00  0.00    -0.082 Cl
HETATM   32  C8  UNL     1      -3.203  10.159  13.710  1.00  0.00     0.050 A
HETATM   33  C9  UNL     1      -3.018   9.017  14.501  1.00  0.00     0.042 A
HETATM   34 CL3  UNL     1      -1.553   8.890  15.469  1.00  0.00    -0.084 Cl
ENDBRANCH  25  26
ENDBRANCH   2  25
TORSDOF 8
ENDMDL