MODEL 2
REMARK VINA RESULT: -7.324641736      4.629      6.641
REMARK  10 active torsions:
REMARK  status: ('A' for Active; 'I' for Inactive)
REMARK       I    between atoms: N1_2  and  C2_4
REMARK    1  A    between atoms: C2_4  and  C3_6
REMARK    2  A    between atoms: C6_9  and  N2_10
REMARK    3  A    between atoms: N2_10  and  C7_12
REMARK    4  A    between atoms: C8_15  and  O2_16
REMARK    5  A    between atoms: O2_16  and  C9_17
REMARK    6  A    between atoms: C9_17  and  N4_18
REMARK    7  A    between atoms: C9_17  and  C13_25
REMARK    8  A    between atoms: C10_20  and  N5_22
REMARK    9  A    between atoms: C13_25  and  O3_26
REMARK   10  A    between atoms: C16_34  and  O4_35
ROOT
HETATM    1  C7  UNL     1      -0.963   5.190  13.136  1.00  0.00     0.684 A
HETATM    2  N3  UNL     1      -1.494   4.166  13.831  1.00  0.00    -0.168 N
ATOM      3  H3  UNL     1      -0.943   3.316  13.947  1.00  0.00     0.186 HD
HETATM    4  C8  UNL     1      -2.722   4.218  14.377  1.00  0.00     0.183 A
HETATM    5  C14 UNL     1      -3.495   5.364  14.234  1.00  0.00     0.101 A
HETATM    6 CL1  UNL     1      -5.108   5.472  14.935  1.00  0.00    -0.078 Cl
HETATM    7  C15 UNL     1      -2.934   6.401  13.520  1.00  0.00     0.134 A
HETATM    8  N6  UNL     1      -1.700   6.293  12.994  1.00  0.00    -0.200 N
ATOM      9  H6  UNL     1      -1.316   7.079  12.471  1.00  0.00     0.183 HD
ENDROOT
BRANCH   1  10
HETATM   10  N2  UNL     1       0.220   5.048  12.649  1.00  0.00    -0.189 N
ATOM     11  H2  UNL     1       0.999   5.152  13.298  1.00  0.00     0.184 HD
BRANCH  10  12
HETATM   12  C6  UNL     1       0.539   4.768  11.332  1.00  0.00     0.082 A
HETATM   13  C5  UNL     1       1.066   5.733  10.511  1.00  0.00     0.034 A
HETATM   14  C4  UNL     1       1.401   5.517   9.204  1.00  0.00     0.019 A
HETATM   15  C3  UNL     1       1.199   4.246   8.667  1.00  0.00     0.034 A
HETATM   16  C18 UNL     1       0.674   3.258   9.457  1.00  0.00     0.056 A
HETATM   17  C16 UNL     1       0.347   3.525  10.783  1.00  0.00     0.096 A
BRANCH  15  18
HETATM   18  C2  UNL     1       1.531   3.963   7.287  1.00  0.00     0.251 C
HETATM   19  N1  UNL     1       0.721   4.403   6.234  1.00  0.00    -0.361 N
HETATM   20  C1  UNL     1       1.126   4.076   4.864  1.00  0.00     0.149 C
ATOM     21  H1  UNL     1      -0.129   4.938   6.414  1.00  0.00     0.162 HD
HETATM   22  O1  UNL     1       2.570   3.307   7.042  1.00  0.00    -0.268 OA
ENDBRANCH  15  18
BRANCH  17  23
HETATM   23  O4  UNL     1      -0.176   2.522  11.557  1.00  0.00    -0.354 OA
HETATM   24  C17 UNL     1      -0.727   1.363  10.965  1.00  0.00     0.210 C
ENDBRANCH  17  23
ENDBRANCH  10  12
ENDBRANCH   1  10
BRANCH   4  25
HETATM   25  O2  UNL     1      -3.264   3.178  15.084  1.00  0.00    -0.302 OA
BRANCH  25  26
HETATM   26  C9  UNL     1      -3.645   1.939  14.544  1.00  0.00     0.290 C
BRANCH  26  27
HETATM   27  N4  UNL     1      -4.130   2.046  13.196  1.00  0.00    -0.349 N
HETATM   28  C10 UNL     1      -4.047   1.108  12.347  1.00  0.00     0.070 C
HETATM   29  C11 UNL     1      -4.601   1.376  10.974  1.00  0.00     0.088 C
ATOM     30  H4  UNL     1      -4.563   2.922  12.906  1.00  0.00     0.163 HD
BRANCH  28  31
HETATM   31  N5  UNL     1      -3.484  -0.164  12.565  1.00  0.00    -0.385 N
HETATM   32  C12 UNL     1      -3.404  -1.204  11.564  1.00  0.00     0.147 C
ATOM     33  H5  UNL     1      -3.107  -0.364  13.491  1.00  0.00     0.160 HD
ENDBRANCH  28  31
ENDBRANCH  26  27
BRANCH  26  34
HETATM   34  C13 UNL     1      -4.679   1.339  15.479  1.00  0.00     0.354 C
HETATM   35  F1  UNL     1      -4.416   1.873  16.743  1.00  0.00    -0.215 F
BRANCH  34  36
HETATM   36  O3  UNL     1      -4.573  -0.031  15.591  1.00  0.00    -0.364 OA
ATOM     37  H3  UNL     1      -5.013  -0.376  16.359  1.00  0.00     0.213 HD
ENDBRANCH  34  36
ENDBRANCH  26  34
ENDBRANCH  25  26
ENDBRANCH   4  25
TORSDOF 10
ENDMDL