MODEL 1
REMARK VINA RESULT: -8.648818253      0.000      0.000
REMARK  7 active torsions:
REMARK  status: ('A' for Active; 'I' for Inactive)
REMARK    1  A    between atoms: O1_2  and  C2_3
REMARK    2  A    between atoms: C5_6  and  O2_7
REMARK    3  A    between atoms: O2_7  and  C6_8
REMARK    4  A    between atoms: C10_15  and  C11_16
REMARK    5  A    between atoms: C11_16  and  C13_24
REMARK    6  A    between atoms: N2_17  and  N3_19
REMARK    7  A    between atoms: C13_24  and  C14_27
ROOT
HETATM    1  C6  UNL     1      -3.065   3.992  11.905  1.00  0.00     0.160 A
HETATM    2  N1  UNL     1      -2.381   4.789  11.017  1.00  0.00    -0.345 N
ATOM      3  H1  UNL     1      -2.456   4.583  10.020  1.00  0.00     0.167 HD
HETATM    4  C7  UNL     1      -1.626   5.816  11.397  1.00  0.00     0.109 A
HETATM    5  C8  UNL     1      -1.544   6.071  12.743  1.00  0.00     0.027 A
HETATM    6 BR1  UNL     1      -0.478   7.526  13.360  1.00  0.00    -0.050 Br
HETATM    7  C9  UNL     1      -2.203   5.319  13.695  1.00  0.00     0.038 A
HETATM    8  C10 UNL     1      -2.985   4.256  13.233  1.00  0.00     0.047 A
ENDROOT
BRANCH   8   9
HETATM    9  C11 UNL     1      -3.875   3.590  14.184  1.00  0.00     0.121 C
HETATM   10  N2  UNL     1      -3.477   2.538  14.826  1.00  0.00    -0.295 N
ATOM     11  H2  UNL     1      -2.528   2.224  14.623  1.00  0.00     0.187 HD
BRANCH  10  12
HETATM   12  N3  UNL     1      -4.167   1.800  15.737  1.00  0.00    -0.276 N
HETATM   13  C12 UNL     1      -4.400   0.565  15.831  1.00  0.00     0.215 C
HETATM   14  N4  UNL     1      -5.187   0.073  16.952  1.00  0.00    -0.065 NA
HETATM   15  N5  UNL     1      -3.972  -0.435  14.942  1.00  0.00    -0.065 NA
ATOM     16  H3  UNL     1      -4.575   2.353  16.489  1.00  0.00     0.189 HD
ENDBRANCH  10  12
BRANCH   9  17
HETATM   17  C13 UNL     1      -5.263   4.000  14.478  1.00  0.00     0.364 C
HETATM   18  F1  UNL     1      -5.439   3.676  15.850  1.00  0.00    -0.189 F
HETATM   19  F2  UNL     1      -6.238   3.310  13.813  1.00  0.00    -0.189 F
BRANCH  17  20
HETATM   20  C14 UNL     1      -5.559   5.435  14.293  1.00  0.00     0.310 C
HETATM   21  N6  UNL     1      -6.135   5.952  13.111  1.00  0.00    -0.056 NA
HETATM   22  O3  UNL     1      -5.296   6.251  15.218  1.00  0.00    -0.270 OA
ENDBRANCH  17  20
ENDBRANCH   9  17
ENDBRANCH   8   9
BRANCH   1  23
HETATM   23  O2  UNL     1      -3.790   2.959  11.292  1.00  0.00    -0.293 OA
BRANCH  23  24
HETATM   24  C5  UNL     1      -3.118   1.766  11.167  1.00  0.00     0.078 A
HETATM   25  C4  UNL     1      -1.853   1.496  10.809  1.00  0.00     0.040 A
HETATM   26  C3  UNL     1      -1.307   0.212  10.730  1.00  0.00     0.039 A
HETATM   27  C2  UNL     1      -2.088  -0.857  11.032  1.00  0.00     0.068 A
HETATM   28  C16 UNL     1      -3.393  -0.642  11.405  1.00  0.00     0.039 A
HETATM   29  C15 UNL     1      -3.905   0.628  11.474  1.00  0.00     0.040 A
BRANCH  27  30
HETATM   30  O1  UNL     1      -1.643  -2.174  10.985  1.00  0.00    -0.356 OA
HETATM   31  C1  UNL     1      -2.540  -3.268  10.994  1.00  0.00     0.210 C
ENDBRANCH  27  30
ENDBRANCH  23  24
ENDBRANCH   1  23
TORSDOF 7
ENDMDL