MODEL 2
REMARK VINA RESULT: -7.484950802      1.053      1.322
REMARK  9 active torsions:
REMARK  status: ('A' for Active; 'I' for Inactive)
REMARK    1  A    between atoms: C3_4  and  C4_5
REMARK    2  A    between atoms: N2_11  and  C7_12
REMARK    3  A    between atoms: C7_12  and  O3_13
REMARK    4  A    between atoms: C7_12  and  C8_15
REMARK    5  A    between atoms: C9_16  and  C10_17
REMARK    6  A    between atoms: C10_17  and  N3_18
REMARK    7  A    between atoms: C10_17  and  C14_26
REMARK    8  A    between atoms: N3_18  and  C11_20
REMARK    9  A    between atoms: C11_20  and  C13_22
ROOT
HETATM    1  C7  UNL     1      -3.486   5.083  14.644  1.00  0.00     0.242 C
ENDROOT
BRANCH   1   2
HETATM    2  N2  UNL     1      -2.977   6.065  13.801  1.00  0.00    -0.347 N
HETATM    3  C3  UNL     1      -2.272   7.167  14.315  1.00  0.00     0.282 C
HETATM    4  O1  UNL     1      -1.204   7.436  13.452  1.00  0.00    -0.354 OA
HETATM    5  C2  UNL     1      -1.240   6.550  12.410  1.00  0.00     0.142 C
HETATM    6  C1  UNL     1      -0.032   5.635  12.364  1.00  0.00     0.042 C
HETATM    7  C15 UNL     1      -2.530   5.749  12.502  1.00  0.00     0.109 C
HETATM    8  C16 UNL     1      -3.526   6.390  11.524  1.00  0.00     0.035 C
BRANCH   3   9
HETATM    9  C4  UNL     1      -3.187   8.338  14.440  1.00  0.00     0.118 A
HETATM   10  C5  UNL     1      -2.889   9.637  14.094  1.00  0.00     0.126 A
HETATM   11  N1  UNL     1      -3.976  10.356  14.362  1.00  0.00    -0.354 N
HETATM   12  C6  UNL     1      -4.935   9.554  14.860  1.00  0.00     0.233 A
ATOM     13  H1  UNL     1      -4.067  11.362  14.213  1.00  0.00     0.166 HD
HETATM   14  O2  UNL     1      -4.427   8.330  14.897  1.00  0.00    -0.304 OA
ENDBRANCH   3   9
ENDBRANCH   1   2
BRANCH   1  15
HETATM   15  O3  UNL     1      -4.813   5.338  15.049  1.00  0.00    -0.373 OA
ATOM     16  H3  UNL     1      -5.456   4.868  14.530  1.00  0.00     0.212 HD
ENDBRANCH   1  15
BRANCH   1  17
HETATM   17  C8  UNL     1      -3.389   3.670  14.177  1.00  0.00     0.024 C
HETATM   18  C9  UNL     1      -4.222   2.747  14.586  1.00  0.00     0.009 C
BRANCH  18  19
HETATM   19  C10 UNL     1      -4.182   1.290  14.154  1.00  0.00     0.202 C
BRANCH  19  20
HETATM   20  N3  UNL     1      -3.325   1.155  13.047  1.00  0.00    -0.397 N
ATOM     21  H3  UNL     1      -2.390   1.561  13.034  1.00  0.00     0.154 HD
BRANCH  20  22
HETATM   22  C11 UNL     1      -3.834   0.430  11.964  1.00  0.00     0.128 C
HETATM   23  C12 UNL     1      -3.441  -1.024  12.004  1.00  0.00     0.036 C
BRANCH  22  24
HETATM   24  C13 UNL     1      -3.492   1.033  10.606  1.00  0.00     0.207 C
HETATM   25 CL1  UNL     1      -2.017   0.216   9.983  1.00  0.00    -0.082 Cl
HETATM   26 CL2  UNL     1      -3.171   2.755  10.681  1.00  0.00    -0.082 Cl
HETATM   27 CL3  UNL     1      -4.805   0.641   9.443  1.00  0.00    -0.082 Cl
ENDBRANCH  22  24
ENDBRANCH  20  22
ENDBRANCH  19  20
BRANCH  19  28
HETATM   28  C14 UNL     1      -3.841   0.492  15.365  1.00  0.00     0.200 C
HETATM   29  O4  UNL     1      -4.384  -0.601  15.650  1.00  0.00    -0.646 OA
HETATM   30  O5  UNL     1      -2.867   0.964  16.251  1.00  0.00    -0.646 OA
ENDBRANCH  19  28
ENDBRANCH  18  19
ENDBRANCH   1  17
TORSDOF 9
ENDMDL