MODEL 4
REMARK VINA RESULT: -7.263356356      4.265      8.200
REMARK  10 active torsions:
REMARK  status: ('A' for Active; 'I' for Inactive)
REMARK    1  A    between atoms: C6_8  and  N2_9
REMARK    2  A    between atoms: N2_9  and  C7_11
REMARK    3  A    between atoms: C8_14  and  N4_15
REMARK    4  A    between atoms: N4_15  and  C9_17
REMARK    5  A    between atoms: C9_17  and  C10_18
REMARK    6  A    between atoms: C10_18  and  N5_19
REMARK    7  A    between atoms: C13_24  and  N7_25
REMARK    8  A    between atoms: N7_25  and  C14_27
REMARK    9  A    between atoms: C17_30  and  O1_31
REMARK   10  A    between atoms: O1_31  and  C18_32
ROOT
HETATM    1  C7  UNL     1      -3.581   6.322  11.153  1.00  0.00     0.711 A
HETATM    2  N3  UNL     1      -2.360   6.239  10.561  1.00  0.00    -0.021 N
ATOM      3  H3  UNL     1      -1.870   7.104  10.328  1.00  0.00     0.203 HD
HETATM    4  C8  UNL     1      -1.773   5.070  10.270  1.00  0.00     0.707 A
HETATM    5  N6  UNL     1      -2.413   3.924  10.575  1.00  0.00    -0.021 N
ATOM      6  H6  UNL     1      -1.980   3.025  10.361  1.00  0.00     0.203 HD
HETATM    7  C13 UNL     1      -3.621   3.964  11.159  1.00  0.00     0.711 A
HETATM    8  N8  UNL     1      -4.190   5.149  11.441  1.00  0.00    -0.021 N
ATOM      9  H8  UNL     1      -5.107   5.164  11.886  1.00  0.00     0.203 HD
ENDROOT
BRANCH   7  10
HETATM   10  N7  UNL     1      -4.224   2.866  11.447  1.00  0.00    -0.191 N
ATOM     11  H7  UNL     1      -4.789   2.431  10.717  1.00  0.00     0.184 HD
BRANCH  10  12
HETATM   12  C14 UNL     1      -4.162   2.219  12.700  1.00  0.00     0.049 A
HETATM   13  C15 UNL     1      -4.394   2.940  13.844  1.00  0.00     0.033 A
HETATM   14  C16 UNL     1      -4.344   2.347  15.104  1.00  0.00     0.039 A
HETATM   15  C17 UNL     1      -4.055   1.004  15.218  1.00  0.00     0.078 A
HETATM   16  C19 UNL     1      -3.821   0.275  14.056  1.00  0.00     0.039 A
HETATM   17  C20 UNL     1      -3.874   0.884  12.806  1.00  0.00     0.033 A
BRANCH  15  18
HETATM   18  O1  UNL     1      -4.003   0.407  16.469  1.00  0.00    -0.255 OA
BRANCH  18  19
HETATM   19  C18 UNL     1      -5.197   0.414  17.240  1.00  0.00     0.530 C
HETATM   20  F1  UNL     1      -5.456  -0.833  17.791  1.00  0.00    -0.144 F
HETATM   21  F2  UNL     1      -5.110   1.328  18.271  1.00  0.00    -0.144 F
HETATM   22  F3  UNL     1      -6.296   0.730  16.460  1.00  0.00    -0.144 F
ENDBRANCH  18  19
ENDBRANCH  15  18
ENDBRANCH  10  12
ENDBRANCH   7  10
BRANCH   4  23
HETATM   23  N4  UNL     1      -0.622   4.967   9.713  1.00  0.00    -0.223 N
ATOM     24  H4  UNL     1      -0.197   5.829   9.370  1.00  0.00     0.177 HD
BRANCH  23  25
HETATM   25  C9  UNL     1       0.122   3.763   9.527  1.00  0.00     0.168 C
BRANCH  25  26
HETATM   26  C10 UNL     1       1.316   3.955   8.629  1.00  0.00     0.291 C
BRANCH  26  27
HETATM   27  N5  UNL     1       2.570   3.697   9.246  1.00  0.00     0.081 N
HETATM   28  C11 UNL     1       3.691   3.717   8.361  1.00  0.00     0.309 C
HETATM   29  C12 UNL     1       2.849   4.476  10.410  1.00  0.00     0.309 C
ENDBRANCH  26  27
ENDBRANCH  25  26
ENDBRANCH  23  25
ENDBRANCH   4  23
BRANCH   1  30
HETATM   30  N2  UNL     1      -4.117   7.465  11.419  1.00  0.00    -0.189 N
ATOM     31  H2  UNL     1      -4.086   8.173  10.686  1.00  0.00     0.184 HD
BRANCH  30  32
HETATM   32  C6  UNL     1      -4.737   7.822  12.620  1.00  0.00     0.071 A
HETATM   33  C2  UNL     1      -6.088   8.185  12.575  1.00  0.00     0.032 A
HETATM   34  C1  UNL     1      -6.799   8.170  11.252  1.00  0.00     0.070 C
HETATM   35  N1  UNL     1      -6.714   8.536  13.709  1.00  0.00    -0.368 N
HETATM   36  C3  UNL     1      -6.124   8.565  14.916  1.00  0.00     0.088 A
ATOM     37  H1  UNL     1      -7.699   8.796  13.651  1.00  0.00     0.165 HD
HETATM   38  C4  UNL     1      -4.786   8.206  14.969  1.00  0.00     0.019 A
HETATM   39  C5  UNL     1      -4.098   7.839  13.842  1.00  0.00     0.033 A
ENDBRANCH  30  32
ENDBRANCH   1  30
TORSDOF 10
ENDMDL