MODEL 5
REMARK VINA RESULT: -8.559459114      1.333      1.876
REMARK  9 active torsions:
REMARK  status: ('A' for Active; 'I' for Inactive)
REMARK       I    between atoms: N1_2  and  C2_4
REMARK    1  A    between atoms: C2_4  and  C3_6
REMARK    2  A    between atoms: C3_6  and  N2_7
REMARK    3  A    between atoms: N2_7  and  C4_9
REMARK    4  A    between atoms: C4_9  and  N3_10
REMARK    5  A    between atoms: C4_9  and  C14_28
REMARK    6  A    between atoms: N3_10  and  N4_11
REMARK       I    between atoms: N4_11  and  C5_13
REMARK    7  A    between atoms: C5_13  and  C6_15
REMARK    8  A    between atoms: C9_18  and  N5_19
REMARK    9  A    between atoms: C17_31  and  C18_32
ROOT
HETATM    1  C4  UNL     1      -2.979   4.354  13.618  1.00  0.00     0.210 C
ENDROOT
BRANCH   1   2
HETATM    2  N2  UNL     1      -1.676   3.935  13.088  1.00  0.00    -0.354 N
ATOM      3  H2  UNL     1      -0.883   3.799  13.715  1.00  0.00     0.162 HD
BRANCH   2   4
HETATM    4  C3  UNL     1      -1.531   3.717  11.675  1.00  0.00     0.225 C
BRANCH   4   5
HETATM    5  C2  UNL     1      -2.306   2.552  11.183  1.00  0.00     0.234 C
HETATM    6  N1  UNL     1      -2.384   1.335  11.885  1.00  0.00    -0.364 N
HETATM    7  C1  UNL     1      -3.172   0.215  11.376  1.00  0.00     0.149 C
ATOM      8  H1  UNL     1      -1.880   1.233  12.766  1.00  0.00     0.161 HD
HETATM    9  O1  UNL     1      -2.927   2.660  10.098  1.00  0.00    -0.272 OA
ENDBRANCH   4   5
ENDBRANCH   2   4
ENDBRANCH   1   2
BRANCH   1  10
HETATM   10  N3  UNL     1      -3.359   5.426  13.194  1.00  0.00    -0.304 NA
BRANCH  10  11
HETATM   11  N4  UNL     1      -4.080   6.333  12.641  1.00  0.00    -0.197 N
HETATM   12  C5  UNL     1      -5.050   7.204  13.287  1.00  0.00     0.280 C
HETATM   13  O2  UNL     1      -5.309   7.199  14.485  1.00  0.00    -0.265 OA
ATOM     14  H4  UNL     1      -3.959   6.456  11.636  1.00  0.00     0.205 HD
BRANCH  12  15
HETATM   15  C6  UNL     1      -5.694   8.103  12.325  1.00  0.00     0.034 A
HETATM   16  C7  UNL     1      -5.223   9.371  12.195  1.00  0.00     0.019 A
HETATM   17  C8  UNL     1      -5.752  10.155  11.183  1.00  0.00     0.032 A
HETATM   18  C9  UNL     1      -6.732   9.637  10.342  1.00  0.00     0.057 A
HETATM   19  C12 UNL     1      -7.216   8.361  10.474  1.00  0.00     0.032 A
HETATM   20  C13 UNL     1      -6.670   7.603  11.490  1.00  0.00     0.019 A
BRANCH  18  21
HETATM   21  N5  UNL     1      -7.161  10.447   9.260  1.00  0.00    -0.251 N
HETATM   22  C10 UNL     1      -6.409  11.498   8.821  1.00  0.00     0.208 A
HETATM   23  N6  UNL     1      -7.126  12.067   7.845  1.00  0.00    -0.346 N
HETATM   24  C11 UNL     1      -8.285  11.383   7.686  1.00  0.00     0.199 A
ATOM     25  H6  UNL     1      -6.844  12.886   7.306  1.00  0.00     0.167 HD
HETATM   26  N7  UNL     1      -8.281  10.389   8.570  1.00  0.00    -0.288 N
ATOM     27  H7  UNL     1      -9.021   9.698   8.693  1.00  0.00     0.188 HD
ENDBRANCH  18  21
ENDBRANCH  12  15
ENDBRANCH  10  11
ENDBRANCH   1  10
BRANCH   1  28
HETATM   28  C14 UNL     1      -3.723   3.508  14.537  1.00  0.00     0.024 A
HETATM   29  C15 UNL     1      -5.093   3.671  14.736  1.00  0.00     0.017 A
HETATM   30  C16 UNL     1      -5.830   2.935  15.615  1.00  0.00     0.017 A
HETATM   31  C17 UNL     1      -5.191   1.969  16.352  1.00  0.00     0.048 A
HETATM   32  C19 UNL     1      -3.835   1.770  16.188  1.00  0.00     0.017 A
HETATM   33  C20 UNL     1      -3.113   2.537  15.288  1.00  0.00     0.017 A
BRANCH  31  34
HETATM   34  C18 UNL     1      -5.968   1.153  17.320  1.00  0.00     0.417 C
HETATM   35  F1  UNL     1      -7.237   0.935  16.861  1.00  0.00    -0.166 F
HETATM   36  F2  UNL     1      -6.077   1.819  18.530  1.00  0.00    -0.166 F
HETATM   37  F3  UNL     1      -5.325  -0.076  17.456  1.00  0.00    -0.166 F
ENDBRANCH  31  34
ENDBRANCH   1  28
TORSDOF 9
ENDMDL