MODEL 2
REMARK VINA RESULT: -7.912663169      3.301      5.592
REMARK  10 active torsions:
REMARK  status: ('A' for Active; 'I' for Inactive)
REMARK    1  A    between atoms: N1_2  and  C2_4
REMARK    2  A    between atoms: C3_7  and  N3_8
REMARK    3  A    between atoms: N3_8  and  C4_10
REMARK    4  A    between atoms: C4_10  and  C5_11
REMARK    5  A    between atoms: C5_11  and  O1_12
REMARK    6  A    between atoms: O1_12  and  C6_13
REMARK    7  A    between atoms: C10_17  and  O2_18
REMARK    8  A    between atoms: O2_18  and  C11_19
REMARK    9  A    between atoms: C13_26  and  N5_27
REMARK   10  A    between atoms: N5_27  and  C14_29
ROOT
HETATM    1  C14 UNL     1      -5.410   5.518  13.839  1.00  0.00     0.049 A
HETATM    2  C15 UNL     1      -5.346   6.397  12.777  1.00  0.00     0.031 A
HETATM    3  C16 UNL     1      -4.791   7.648  12.953  1.00  0.00     0.025 A
HETATM    4  C17 UNL     1      -4.287   8.074  14.160  1.00  0.00     0.044 A
HETATM    5  C18 UNL     1      -3.709   9.399  14.313  1.00  0.00     0.099 C
HETATM    6  N6  UNL     1      -3.231  10.447  14.442  1.00  0.00    -0.191 NA
HETATM    7  C19 UNL     1      -4.350   7.197  15.224  1.00  0.00     0.025 A
HETATM    8  C20 UNL     1      -4.902   5.952  15.053  1.00  0.00     0.031 A
ENDROOT
BRANCH   1   9
HETATM    9  N5  UNL     1      -5.970   4.237  13.691  1.00  0.00    -0.191 N
ATOM     10  H5  UNL     1      -6.983   4.132  13.636  1.00  0.00     0.184 HD
BRANCH   9  11
HETATM   11  C13 UNL     1      -5.211   3.182  13.624  1.00  0.00     0.711 A
HETATM   12  N4  UNL     1      -4.747   2.755  12.438  1.00  0.00    -0.021 N
HETATM   13  C3  UNL     1      -3.963   1.675  12.313  1.00  0.00     0.707 A
ATOM     14  H4  UNL     1      -5.001   3.274  11.597  1.00  0.00     0.203 HD
HETATM   15  N2  UNL     1      -3.640   1.005  13.432  1.00  0.00    -0.022 N
HETATM   16  C2  UNL     1      -4.074   1.380  14.662  1.00  0.00     0.706 A
ATOM     17  H2  UNL     1      -3.043   0.181  13.355  1.00  0.00     0.203 HD
HETATM   18  N7  UNL     1      -4.860   2.476  14.713  1.00  0.00    -0.021 N
ATOM     19  H7  UNL     1      -5.205   2.783  15.623  1.00  0.00     0.203 HD
BRANCH  13  20
HETATM   20  N3  UNL     1      -3.537   1.299  11.151  1.00  0.00    -0.223 N
ATOM     21  H3  UNL     1      -3.720   1.863  10.322  1.00  0.00     0.177 HD
BRANCH  20  22
HETATM   22  C4  UNL     1      -2.788   0.050  11.052  1.00  0.00     0.164 C
BRANCH  22  23
HETATM   23  C5  UNL     1      -1.350   0.331  10.779  1.00  0.00     0.196 C
BRANCH  23  24
HETATM   24  O1  UNL     1      -1.059   1.340   9.894  1.00  0.00    -0.349 OA
BRANCH  24  25
HETATM   25  C6  UNL     1      -0.494   2.574  10.072  1.00  0.00     0.071 A
HETATM   26  C7  UNL     1       0.174   3.307   9.118  1.00  0.00     0.037 A
HETATM   27  C8  UNL     1       0.721   4.557   9.394  1.00  0.00     0.005 A
HETATM   28  C9  UNL     1       0.595   5.089  10.653  1.00  0.00     0.037 A
HETATM   29  C10 UNL     1      -0.068   4.370  11.610  1.00  0.00     0.081 A
HETATM   30  C12 UNL     1      -0.607   3.145  11.351  1.00  0.00     0.073 A
BRANCH  29  31
HETATM   31  O2  UNL     1      -0.194   4.910  12.880  1.00  0.00    -0.255 OA
BRANCH  31  32
HETATM   32  C11 UNL     1      -1.476   5.372  13.265  1.00  0.00     0.530 C
HETATM   33  F1  UNL     1      -2.252   5.688  12.169  1.00  0.00    -0.144 F
HETATM   34  F2  UNL     1      -1.347   6.542  14.011  1.00  0.00    -0.144 F
HETATM   35  F3  UNL     1      -2.153   4.462  14.038  1.00  0.00    -0.144 F
ENDBRANCH  31  32
ENDBRANCH  29  31
ENDBRANCH  24  25
ENDBRANCH  23  24
ENDBRANCH  22  23
ENDBRANCH  20  22
ENDBRANCH  13  20
BRANCH  16  36
HETATM   36  N1  UNL     1      -3.756   0.725  15.735  1.00  0.00    -0.229 N
HETATM   37  C1  UNL     1      -4.801   0.514  16.724  1.00  0.00     0.165 C
ATOM     38  H1  UNL     1      -2.810   0.371  15.879  1.00  0.00     0.177 HD
ENDBRANCH  16  36
ENDBRANCH   9  11
ENDBRANCH   1   9
TORSDOF 10
ENDMDL