MODEL 3
REMARK VINA RESULT: -7.823276603      3.324      5.447
REMARK  9 active torsions:
REMARK  status: ('A' for Active; 'I' for Inactive)
REMARK    1  A    between atoms: C2_2  and  O1_3
REMARK    2  A    between atoms: O1_3  and  C3_4
REMARK    3  A    between atoms: C4_5  and  C5_6
REMARK    4  A    between atoms: C6_10  and  N1_11
REMARK    5  A    between atoms: N1_11  and  C7_13
REMARK    6  A    between atoms: C10_18  and  N3_19
REMARK    7  A    between atoms: C13_23  and  C14_24
REMARK    8  A    between atoms: C15_25  and  N4_26
REMARK    9  A    between atoms: N8_37  and  O2_38
ROOT
HETATM    1  C7  UNL     1      -4.329   6.075  13.773  1.00  0.00     0.684 A
HETATM    2  N2  UNL     1      -4.561   6.833  14.861  1.00  0.00    -0.202 N
ATOM      3  H2  UNL     1      -3.944   6.761  15.670  1.00  0.00     0.183 HD
HETATM    4  C8  UNL     1      -5.601   7.684  14.888  1.00  0.00     0.110 A
HETATM    5  C9  UNL     1      -6.412   7.755  13.780  1.00  0.00     0.067 A
HETATM    6  C10 UNL     1      -6.192   6.984  12.650  1.00  0.00     0.123 A
HETATM    7  N7  UNL     1      -5.138   6.155  12.684  1.00  0.00    -0.176 N
ATOM      8  H7  UNL     1      -4.940   5.570  11.873  1.00  0.00     0.186 HD
ENDROOT
BRANCH   1   9
HETATM    9  N1  UNL     1      -3.328   5.255  13.737  1.00  0.00    -0.191 N
ATOM     10  H1  UNL     1      -2.382   5.600  13.575  1.00  0.00     0.184 HD
BRANCH   9  11
HETATM   11  C6  UNL     1      -3.565   3.877  13.925  1.00  0.00     0.070 A
HETATM   12  C4  UNL     1      -3.187   2.987  12.955  1.00  0.00     0.128 A
HETATM   13  C3  UNL     1      -3.385   1.612  13.067  1.00  0.00     0.186 A
HETATM   14  N8  UNL     1      -3.971   1.122  14.171  1.00  0.00    -0.212 N
HETATM   15  C19 UNL     1      -4.354   1.984  15.146  1.00  0.00     0.128 A
HETATM   16  C18 UNL     1      -4.164   3.353  15.047  1.00  0.00     0.051 A
BRANCH  12  17
HETATM   17  C5  UNL     1      -2.540   3.484  11.720  1.00  0.00     0.423 C
HETATM   18  F1  UNL     1      -1.686   2.595  11.139  1.00  0.00    -0.166 F
HETATM   19  F2  UNL     1      -3.463   3.992  10.821  1.00  0.00    -0.166 F
HETATM   20  F3  UNL     1      -1.763   4.581  12.109  1.00  0.00    -0.166 F
ENDBRANCH  12  17
BRANCH  13  21
HETATM   21  O1  UNL     1      -2.974   0.794  12.046  1.00  0.00    -0.334 OA
BRANCH  21  22
HETATM   22  C2  UNL     1      -3.779   0.017  11.228  1.00  0.00     0.173 C
HETATM   23  C1  UNL     1      -4.515   0.844  10.186  1.00  0.00     0.034 C
ENDBRANCH  21  22
ENDBRANCH  13  21
BRANCH  14  24
HETATM   24  O2  UNL     1      -4.210  -0.220  14.373  1.00  0.00    -0.281 OA
ATOM     25  H2  UNL     1      -4.976  -0.554  14.825  1.00  0.00     0.245 HD
ENDBRANCH  14  24
ENDBRANCH   9  11
ENDBRANCH   1   9
BRANCH   6  26
HETATM   26  N3  UNL     1      -7.056   7.093  11.535  1.00  0.00    -0.327 N
HETATM   27  C11 UNL     1      -7.090   8.127  10.760  1.00  0.00     0.123 A
HETATM   28  C12 UNL     1      -6.307   9.243  10.910  1.00  0.00     0.080 A
HETATM   29  N6  UNL     1      -7.838   8.365   9.687  1.00  0.00    -0.285 N
HETATM   30  C13 UNL     1      -6.616  10.156   9.885  1.00  0.00     0.053 A
HETATM   31  N5  UNL     1      -7.555   9.573   9.167  1.00  0.00    -0.299 N
ATOM     32  H5  UNL     1      -7.999   9.977   8.343  1.00  0.00     0.187 HD
ATOM     33  H6  UNL     1      -8.532   7.720   9.309  1.00  0.00     0.188 HD
ATOM     34  H3  UNL     1      -7.685   6.316  11.332  1.00  0.00     0.169 HD
BRANCH  30  35
HETATM   35  C14 UNL     1      -6.001  11.451   9.705  1.00  0.00     0.048 C
HETATM   36  C15 UNL     1      -6.554  12.593   9.586  1.00  0.00     0.086 C
BRANCH  36  37
HETATM   37  N4  UNL     1      -7.886  12.971   9.588  1.00  0.00    -0.398 N
HETATM   38  C16 UNL     1      -8.730  12.732   8.407  1.00  0.00     0.148 C
HETATM   39  C17 UNL     1      -8.535  13.661  10.713  1.00  0.00     0.148 C
ENDBRANCH  36  37
ENDBRANCH  30  35
ENDBRANCH   6  26
TORSDOF 9
ENDMDL