MODEL 2
REMARK VINA RESULT: -7.803604949      0.145      1.216
REMARK  8 active torsions:
REMARK  status: ('A' for Active; 'I' for Inactive)
REMARK       I    between atoms: C1_2  and  N1_3
REMARK    1  A    between atoms: C1_2  and  C4_9
REMARK    2  A    between atoms: N1_3  and  C2_5
REMARK    3  A    between atoms: C2_5  and  C3_6
REMARK       I    between atoms: C4_9  and  N2_11
REMARK    4  A    between atoms: N2_11  and  N3_13
REMARK    5  A    between atoms: N3_13  and  N4_15
REMARK    6  A    between atoms: C5_17  and  C6_18
REMARK    7  A    between atoms: C9_21  and  C10_22
REMARK    8  A    between atoms: N6_26  and  C12_27
ROOT
HETATM    1  C6  UNL     1      -4.126   2.669  15.439  1.00  0.00    -0.019 A
HETATM    2  C7  UNL     1      -3.052   3.461  14.995  1.00  0.00     0.013 A
HETATM    3  C8  UNL     1      -3.303   4.734  14.598  1.00  0.00     0.013 A
HETATM    4  C9  UNL     1      -4.552   5.312  14.600  1.00  0.00    -0.023 A
HETATM    5  C19 UNL     1      -5.598   4.513  15.044  1.00  0.00     0.013 A
HETATM    6  C20 UNL     1      -5.391   3.196  15.463  1.00  0.00     0.013 A
ENDROOT
BRANCH   1   7
HETATM    7  C5  UNL     1      -3.840   1.302  15.861  1.00  0.00     0.120 C
HETATM    8  N4  UNL     1      -3.711   0.271  15.187  1.00  0.00    -0.297 N
ATOM      9  H4  UNL     1      -3.515  -0.520  15.801  1.00  0.00     0.187 HD
BRANCH   8  10
HETATM   10  N3  UNL     1      -3.747  -0.143  13.914  1.00  0.00    -0.240 N
ATOM     11  H3  UNL     1      -4.289  -0.977  13.690  1.00  0.00     0.208 HD
BRANCH  10  12
HETATM   12  N2  UNL     1      -3.076   0.514  12.875  1.00  0.00    -0.247 N
HETATM   13  C4  UNL     1      -3.787   1.433  12.078  1.00  0.00     0.328 C
HETATM   14  O2  UNL     1      -4.995   1.655  12.305  1.00  0.00    -0.261 OA
ATOM     15  H2  UNL     1      -2.088   0.330  12.698  1.00  0.00     0.192 HD
BRANCH  13  16
HETATM   16  C1  UNL     1      -3.102   2.112  10.995  1.00  0.00     0.311 C
HETATM   17  O1  UNL     1      -3.517   1.986   9.797  1.00  0.00    -0.262 OA
HETATM   18  N1  UNL     1      -1.974   2.915  11.273  1.00  0.00    -0.348 N
ATOM     19  H1  UNL     1      -1.635   3.019  12.229  1.00  0.00     0.163 HD
BRANCH  18  20
HETATM   20  C2  UNL     1      -1.298   3.597  10.163  1.00  0.00     0.194 C
BRANCH  20  21
HETATM   21  C3  UNL     1       0.026   2.904   9.875  1.00  0.00     0.370 C
HETATM   22  F1  UNL     1       1.008   3.364  10.724  1.00  0.00    -0.213 F
HETATM   23  F2  UNL     1      -0.164   1.540  10.001  1.00  0.00    -0.213 F
ENDBRANCH  20  21
ENDBRANCH  18  20
ENDBRANCH  13  16
ENDBRANCH  10  12
ENDBRANCH   8  10
ENDBRANCH   1   7
BRANCH   4  24
HETATM   24  C10 UNL     1      -4.799   6.676  14.142  1.00  0.00     0.009 A
HETATM   25  C11 UNL     1      -4.794   7.809  14.940  1.00  0.00     0.121 A
HETATM   26  N5  UNL     1      -5.082   8.881  14.186  1.00  0.00    -0.304 N
HETATM   27  N6  UNL     1      -5.265   8.453  12.947  1.00  0.00    -0.267 N
ATOM     28  H5  UNL     1      -5.147   9.847  14.508  1.00  0.00     0.186 HD
HETATM   29  C18 UNL     1      -5.103   7.121  12.876  1.00  0.00     0.130 A
BRANCH  27  30
HETATM   30  C12 UNL     1      -5.606   9.343  11.860  1.00  0.00     0.056 A
HETATM   31  C13 UNL     1      -6.639   9.038  11.025  1.00  0.00     0.033 A
HETATM   32  C14 UNL     1      -6.972   9.865   9.989  1.00  0.00     0.026 A
HETATM   33  C15 UNL     1      -6.248  11.019   9.794  1.00  0.00     0.034 A
HETATM   34 CL1  UNL     1      -6.670  12.084   8.461  1.00  0.00    -0.084 Cl
HETATM   35  C16 UNL     1      -5.195  11.339  10.639  1.00  0.00     0.026 A
HETATM   36  C17 UNL     1      -4.881  10.488  11.677  1.00  0.00     0.033 A
ENDBRANCH  27  30
ENDBRANCH   4  24
TORSDOF 8
ENDMDL