MODEL 3
REMARK VINA RESULT: -7.843125390      3.596      7.019
REMARK  10 active torsions:
REMARK  status: ('A' for Active; 'I' for Inactive)
REMARK    1  A    between atoms: C2_2  and  O1_4
REMARK    2  A    between atoms: O1_4  and  C4_5
REMARK    3  A    between atoms: C7_8  and  N1_9
REMARK    4  A    between atoms: N1_9  and  C8_11
REMARK    5  A    between atoms: C9_14  and  N3_15
REMARK    6  A    between atoms: N3_15  and  C10_17
REMARK    7  A    between atoms: C10_17  and  C11_18
REMARK    8  A    between atoms: C11_18  and  C13_20
REMARK    9  A    between atoms: C14_26  and  N5_27
REMARK   10  A    between atoms: N5_27  and  C15_29
ROOT
HETATM    1  C8  UNL     1      -1.756   4.556  13.663  1.00  0.00     0.711 A
HETATM    2  N2  UNL     1      -2.682   3.594  13.744  1.00  0.00    -0.021 N
ATOM      3  H2  UNL     1      -2.418   2.652  13.453  1.00  0.00     0.203 HD
HETATM    4  C9  UNL     1      -3.935   3.787  14.182  1.00  0.00     0.707 A
HETATM    5  N4  UNL     1      -4.260   5.055  14.564  1.00  0.00    -0.021 N
ATOM      6  H4  UNL     1      -5.202   5.246  14.903  1.00  0.00     0.203 HD
HETATM    7  C14 UNL     1      -3.369   6.056  14.503  1.00  0.00     0.712 A
HETATM    8  N8  UNL     1      -2.110   5.793  14.047  1.00  0.00    -0.021 N
ATOM      9  H8  UNL     1      -1.427   6.549  13.997  1.00  0.00     0.203 HD
ENDROOT
BRANCH   1  10
HETATM   10  N1  UNL     1      -0.589   4.274  13.230  1.00  0.00    -0.191 N
ATOM     11  H1  UNL     1       0.197   4.199  13.875  1.00  0.00     0.184 HD
BRANCH  10  12
HETATM   12  C7  UNL     1      -0.401   4.067  11.842  1.00  0.00     0.049 A
HETATM   13  C6  UNL     1      -0.149   2.829  11.294  1.00  0.00     0.033 A
HETATM   14  C5  UNL     1       0.025   2.679   9.938  1.00  0.00     0.039 A
HETATM   15  C4  UNL     1      -0.042   3.758   9.051  1.00  0.00     0.069 A
HETATM   16  C20 UNL     1      -0.291   4.981   9.614  1.00  0.00     0.039 A
HETATM   17  C19 UNL     1      -0.468   5.147  10.966  1.00  0.00     0.033 A
BRANCH  15  18
HETATM   18  O1  UNL     1       0.147   3.497   7.723  1.00  0.00    -0.347 OA
BRANCH  18  19
HETATM   19  C2  UNL     1       0.830   4.262   6.783  1.00  0.00     0.120 C
HETATM   20  C1  UNL     1       1.721   3.430   5.897  1.00  0.00     0.040 C
HETATM   21  C3  UNL     1      -0.220   4.902   5.863  1.00  0.00     0.040 C
ENDBRANCH  18  19
ENDBRANCH  15  18
ENDBRANCH  10  12
ENDBRANCH   1  10
BRANCH   4  22
HETATM   22  N3  UNL     1      -4.809   2.835  14.252  1.00  0.00    -0.224 N
ATOM     23  H3  UNL     1      -5.003   2.251  13.439  1.00  0.00     0.177 HD
BRANCH  22  24
HETATM   24  C10 UNL     1      -5.500   2.613  15.490  1.00  0.00     0.151 C
BRANCH  24  25
HETATM   25  C11 UNL     1      -4.690   1.781  16.462  1.00  0.00     0.107 C
HETATM   26  C12 UNL     1      -4.192   0.567  15.686  1.00  0.00     0.021 C
BRANCH  25  27
HETATM   27  C13 UNL     1      -5.532   1.257  17.602  1.00  0.00     0.392 C
HETATM   28  F1  UNL     1      -5.076  -0.024  17.880  1.00  0.00    -0.171 F
HETATM   29  F2  UNL     1      -6.830   1.135  17.167  1.00  0.00    -0.171 F
HETATM   30  F3  UNL     1      -5.421   2.023  18.726  1.00  0.00    -0.171 F
ENDBRANCH  25  27
ENDBRANCH  24  25
ENDBRANCH  22  24
ENDBRANCH   4  22
BRANCH   7  31
HETATM   31  N5  UNL     1      -3.668   7.256  14.858  1.00  0.00    -0.188 N
ATOM     32  H5  UNL     1      -3.100   7.754  15.544  1.00  0.00     0.184 HD
BRANCH  31  33
HETATM   33  C15 UNL     1      -4.819   7.878  14.270  1.00  0.00     0.083 A
HETATM   34  C16 UNL     1      -5.955   8.295  14.918  1.00  0.00     0.138 A
HETATM   35  N6  UNL     1      -6.750   8.808  13.968  1.00  0.00    -0.308 N
HETATM   36  N7  UNL     1      -6.185   8.736  12.779  1.00  0.00    -0.306 N
ATOM     37  H6  UNL     1      -7.674   9.204  14.144  1.00  0.00     0.186 HD
HETATM   38  C17 UNL     1      -6.769   9.202  11.516  1.00  0.00     0.177 C
HETATM   39  C18 UNL     1      -4.983   8.161  12.938  1.00  0.00     0.141 A
ENDBRANCH  31  33
ENDBRANCH   7  31
TORSDOF 10
ENDMDL