MODEL 2
REMARK VINA RESULT: -8.154900666      1.251      1.887
REMARK  11 active torsions:
REMARK  status: ('A' for Active; 'I' for Inactive)
REMARK    1  A    between atoms: O1_2  and  C2_3
REMARK    2  A    between atoms: C2_3  and  C3_4
REMARK    3  A    between atoms: C3_4  and  N1_5
REMARK    4  A    between atoms: N1_5  and  C4_7
REMARK    5  A    between atoms: C5_10  and  N3_11
REMARK    6  A    between atoms: N3_11  and  C6_13
REMARK    7  A    between atoms: C10_17  and  O2_18
REMARK    8  A    between atoms: C13_23  and  N5_24
REMARK    9  A    between atoms: N5_24  and  C14_26
REMARK   10  A    between atoms: C19_31  and  O3_32
REMARK   11  A    between atoms: O3_32  and  C20_33
ROOT
HETATM    1  C4  UNL     1      -3.956   2.378  14.770  1.00  0.00     0.707 A
HETATM    2  N2  UNL     1      -4.742   3.461  15.032  1.00  0.00    -0.021 N
ATOM      3  H2  UNL     1      -4.960   3.698  16.000  1.00  0.00     0.203 HD
HETATM    4  C5  UNL     1      -5.242   4.235  14.026  1.00  0.00     0.711 A
HETATM    5  N4  UNL     1      -4.958   3.927  12.752  1.00  0.00    -0.021 N
ATOM      6  H4  UNL     1      -5.330   4.505  11.998  1.00  0.00     0.203 HD
HETATM    7  C13 UNL     1      -4.192   2.871  12.458  1.00  0.00     0.712 A
HETATM    8  N6  UNL     1      -3.713   2.126  13.477  1.00  0.00    -0.021 N
ATOM      9  H6  UNL     1      -3.130   1.321  13.248  1.00  0.00     0.203 HD
ENDROOT
BRANCH   7  10
HETATM   10  N5  UNL     1      -3.929   2.589  11.229  1.00  0.00    -0.188 N
ATOM     11  H5  UNL     1      -4.674   2.260  10.615  1.00  0.00     0.184 HD
BRANCH  10  12
HETATM   12  C14 UNL     1      -2.614   2.730  10.721  1.00  0.00     0.082 A
HETATM   13  C15 UNL     1      -2.212   3.879  10.066  1.00  0.00     0.033 A
HETATM   14  C16 UNL     1      -0.926   4.017   9.570  1.00  0.00     0.002 A
HETATM   15  C17 UNL     1      -0.058   2.959   9.758  1.00  0.00     0.003 A
HETATM   16  C18 UNL     1      -0.455   1.818  10.408  1.00  0.00     0.039 A
HETATM   17  C19 UNL     1      -1.743   1.669  10.909  1.00  0.00     0.105 A
BRANCH  17  18
HETATM   18  O3  UNL     1      -2.095   0.496  11.559  1.00  0.00    -0.253 OA
BRANCH  18  19
HETATM   19  C20 UNL     1      -2.623  -0.624  10.853  1.00  0.00     0.530 C
HETATM   20  F1  UNL     1      -1.846  -1.750  11.071  1.00  0.00    -0.144 F
HETATM   21  F2  UNL     1      -2.598  -0.376   9.493  1.00  0.00    -0.144 F
HETATM   22  F3  UNL     1      -3.922  -0.886  11.265  1.00  0.00    -0.144 F
ENDBRANCH  18  19
ENDBRANCH  17  18
ENDBRANCH  10  12
ENDBRANCH   7  10
BRANCH   4  23
HETATM   23  N3  UNL     1      -5.973   5.229  14.375  1.00  0.00    -0.191 N
ATOM     24  H3  UNL     1      -6.886   5.045  14.790  1.00  0.00     0.184 HD
BRANCH  23  25
HETATM   25  C6  UNL     1      -5.567   6.545  14.211  1.00  0.00     0.051 A
HETATM   26  C7  UNL     1      -4.565   7.075  15.031  1.00  0.00     0.030 A
HETATM   27  C8  UNL     1      -4.155   8.377  14.845  1.00  0.00     0.005 A
HETATM   28  C9  UNL     1      -4.680   9.197  13.885  1.00  0.00     0.037 A
HETATM   29  C10 UNL     1      -5.677   8.677  13.064  1.00  0.00     0.070 A
HETATM   30  C12 UNL     1      -6.095   7.376  13.244  1.00  0.00     0.066 A
BRANCH  29  31
HETATM   31  O2  UNL     1      -6.281   9.391  12.068  1.00  0.00    -0.356 OA
HETATM   32  C11 UNL     1      -6.802   8.932  10.865  1.00  0.00     0.210 C
ENDBRANCH  29  31
ENDBRANCH  23  25
ENDBRANCH   4  23
BRANCH   1  33
HETATM   33  N1  UNL     1      -3.516   1.687  15.763  1.00  0.00    -0.223 N
ATOM     34  H1  UNL     1      -2.877   2.129  16.424  1.00  0.00     0.177 HD
BRANCH  33  35
HETATM   35  C3  UNL     1      -3.891   0.314  15.977  1.00  0.00     0.164 C
BRANCH  35  36
HETATM   36  C2  UNL     1      -4.953   0.243  17.016  1.00  0.00     0.187 C
BRANCH  36  37
HETATM   37  O1  UNL     1      -6.251   0.153  16.519  1.00  0.00    -0.394 OA
HETATM   38  C1  UNL     1      -7.016   1.270  16.857  1.00  0.00     0.201 C
ENDBRANCH  36  37
ENDBRANCH  35  36
ENDBRANCH  33  35
ENDBRANCH   1  33
TORSDOF 11
ENDMDL