MODEL 4
REMARK VINA RESULT: -9.509700868      1.472      1.472
REMARK  1 active torsions:
REMARK  status: ('A' for Active; 'I' for Inactive)
REMARK    1  A    between atoms: N5_21  and  C11_22
ROOT
HETATM    1  O1  UNL     1      -0.473  23.188  32.164  1.00  0.00    -0.267 OA
HETATM    2  C1  UNL     1      -0.708  23.767  33.249  1.00  0.00     0.264 A
HETATM    3  N1  UNL     1      -1.925  24.097  33.687  1.00  0.00    -0.320 N
ATOM      4  H1  UNL     1      -2.733  23.868  33.108  1.00  0.00     0.169 HD
HETATM    5  C2  UNL     1      -2.126  24.718  34.859  1.00  0.00     0.077 A
HETATM    6  C3  UNL     1      -1.063  25.062  35.702  1.00  0.00     0.021 A
HETATM    7  C4  UNL     1      -1.290  25.695  36.894  1.00  0.00     0.018 A
HETATM    8  C5  UNL     1      -2.581  26.002  37.274  1.00  0.00     0.033 A
HETATM    9  C6  UNL     1      -3.653  25.672  36.456  1.00  0.00     0.062 A
HETATM   10  N2  UNL     1      -4.975  25.845  36.570  1.00  0.00    -0.350 N
ATOM     11  H2  UNL     1      -5.446  26.291  37.358  1.00  0.00     0.166 HD
HETATM   12  C7  UNL     1      -5.582  25.340  35.490  1.00  0.00     0.181 A
HETATM   13  N3  UNL     1      -4.631  24.851  34.700  1.00  0.00    -0.349 N
ATOM     14  H3  UNL     1      -4.790  24.400  33.798  1.00  0.00     0.167 HD
HETATM   15  C8  UNL     1      -3.425  25.041  35.268  1.00  0.00     0.088 A
HETATM   16  C9  UNL     1       0.207  24.721  35.252  1.00  0.00     0.070 A
HETATM   17  N4  UNL     1       1.282  25.005  35.983  1.00  0.00    -0.306 N
ATOM     18  H4  UNL     1       1.176  25.477  36.881  1.00  0.00     0.171 HD
HETATM   19  C10 UNL     1       2.520  24.669  35.537  1.00  0.00     0.334 A
HETATM   20  O2  UNL     1       3.515  24.957  36.261  1.00  0.00    -0.246 OA
HETATM   21  N5  UNL     1       2.744  24.053  34.377  1.00  0.00    -0.229 N
HETATM   22  C17 UNL     1       1.665  23.764  33.636  1.00  0.00     0.274 A
HETATM   23  O3  UNL     1       1.808  23.185  32.536  1.00  0.00    -0.266 OA
HETATM   24  C18 UNL     1       0.385  24.082  34.042  1.00  0.00     0.128 A
ENDROOT
BRANCH  21  25
HETATM   25  C11 UNL     1       4.058  23.719  33.947  1.00  0.00     0.047 A
HETATM   26  C12 UNL     1       4.718  24.542  33.052  1.00  0.00     0.030 A
HETATM   27  C13 UNL     1       5.994  24.245  32.616  1.00  0.00     0.002 A
HETATM   28  C14 UNL     1       6.647  23.101  33.073  1.00  0.00     0.000 A
HETATM   29  C15 UNL     1       6.000  22.266  33.970  1.00  0.00     0.002 A
HETATM   30  C16 UNL     1       4.720  22.580  34.396  1.00  0.00     0.030 A
ENDBRANCH  21  25
TORSDOF 1
ENDMDL