MODEL 3
REMARK VINA RESULT: -7.258459425      4.805      9.956
REMARK  5 active torsions:
REMARK  status: ('A' for Active; 'I' for Inactive)
REMARK    1  A    between atoms: N1_2  and  C2_4
REMARK    2  A    between atoms: C5_9  and  C6_10
REMARK    3  A    between atoms: C7_11  and  C8_12
REMARK    4  A    between atoms: C10_16  and  S1_17
REMARK    5  A    between atoms: C15_23  and  N5_24
ROOT
HETATM    1  C8  UNL     1       1.572  24.365  32.969  1.00  0.00     0.108 A
HETATM    2  N3  UNL     1       2.524  25.320  32.915  1.00  0.00    -0.356 N
ATOM      3  H3  UNL     1       2.263  26.301  33.019  1.00  0.00     0.166 HD
HETATM    4  C9  UNL     1       3.812  24.990  32.724  1.00  0.00     0.107 A
HETATM    5  C10 UNL     1       4.188  23.678  32.579  1.00  0.00     0.017 A
HETATM    6  C12 UNL     1       3.235  22.688  32.631  1.00  0.00     0.045 A
HETATM    7  C13 UNL     1       1.907  23.027  32.828  1.00  0.00     0.081 A
HETATM    8  C14 UNL     1       0.864  22.023  32.889  1.00  0.00     0.102 C
HETATM    9  N4  UNL     1       0.021  21.230  32.954  1.00  0.00    -0.191 NA
ENDROOT
BRANCH   1  10
HETATM   10  C7  UNL     1       0.178  24.709  33.175  1.00  0.00    -0.042 C
HETATM   11  C6  UNL     1      -0.974  25.013  33.349  1.00  0.00    -0.056 C
BRANCH  11  12
HETATM   12  C5  UNL     1      -2.347  25.359  33.599  1.00  0.00     0.064 A
HETATM   13  C4  UNL     1      -3.251  25.366  32.525  1.00  0.00     0.058 A
HETATM   14  C3  UNL     1      -4.573  25.691  32.717  1.00  0.00     0.095 A
HETATM   15  N2  UNL     1      -5.630  25.775  31.889  1.00  0.00    -0.188 N
HETATM   16  C17 UNL     1      -5.055  26.023  33.975  1.00  0.00     0.150 A
HETATM   17  C2  UNL     1      -6.728  26.135  32.551  1.00  0.00     0.679 A
ATOM     18  H2  UNL     1      -5.594  25.587  30.888  1.00  0.00     0.184 HD
HETATM   19  N7  UNL     1      -6.375  26.288  33.838  1.00  0.00    -0.174 N
ATOM     20  H7  UNL     1      -7.003  26.562  34.594  1.00  0.00     0.186 HD
HETATM   21  N6  UNL     1      -4.190  26.011  34.971  1.00  0.00    -0.325 N
HETATM   22  C15 UNL     1      -2.842  25.690  34.833  1.00  0.00     0.125 A
ATOM     23  H6  UNL     1      -4.530  26.252  35.902  1.00  0.00     0.169 HD
BRANCH  17  24
HETATM   24  N1  UNL     1      -7.922  26.307  32.048  1.00  0.00    -0.230 N
HETATM   25  C1  UNL     1      -8.051  26.710  30.664  1.00  0.00     0.165 C
ATOM     26  H1  UNL     1      -8.751  26.160  32.624  1.00  0.00     0.177 HD
ENDBRANCH  17  24
BRANCH  22  27
HETATM   27  N5  UNL     1      -2.144  25.721  35.865  1.00  0.00    -0.361 N
HETATM   28  C16 UNL     1      -2.332  25.739  37.220  1.00  0.00     0.120 C
ATOM     29  H5  UNL     1      -1.150  25.736  35.635  1.00  0.00     0.165 HD
ENDBRANCH  22  27
ENDBRANCH  11  12
ENDBRANCH   1  10
BRANCH   5  30
HETATM   30  S1  UNL     1       5.888  23.230  32.326  1.00  0.00    -0.133 SA
HETATM   31  C11 UNL     1       6.229  21.591  33.055  1.00  0.00     0.095 C
ENDBRANCH   5  30
TORSDOF 5
ENDMDL