MODEL 1
REMARK VINA RESULT: -9.235498667      0.000      0.000
REMARK  2 active torsions:
REMARK  status: ('A' for Active; 'I' for Inactive)
REMARK    1  A    between atoms: N1_2  and  C2_4
REMARK       I    between atoms: N3_13  and  C9_14
REMARK       I    between atoms: C9_14  and  N5_16
REMARK       I    between atoms: N5_16  and  C10_18
REMARK       I    between atoms: C10_18  and  N8_29
REMARK    2  A    between atoms: N6_19  and  C11_21
ROOT
HETATM    1  C2  UNL     1       1.301  20.505  33.716  1.00  0.00     0.687 A
HETATM    2  N2  UNL     1       2.303  19.729  33.261  1.00  0.00    -0.189 N
ATOM      3  H2  UNL     1       2.185  18.861  32.739  1.00  0.00     0.184 HD
HETATM    4  C3  UNL     1       3.481  20.273  33.598  1.00  0.00     0.077 A
HETATM    5  C4  UNL     1       4.796  19.932  33.406  1.00  0.00     0.032 A
HETATM    6  C5  UNL     1       5.851  20.691  33.870  1.00  0.00     0.002 A
HETATM    7  C6  UNL     1       5.556  21.864  34.570  1.00  0.00     0.002 A
HETATM    8  C7  UNL     1       4.257  22.230  34.779  1.00  0.00     0.033 A
HETATM    9  C8  UNL     1       3.226  21.456  34.306  1.00  0.00     0.087 A
HETATM   10  N3  UNL     1       1.883  21.555  34.351  1.00  0.00    -0.116 N
HETATM   11  C9  UNL     1       1.136  22.603  34.973  1.00  0.00     0.229 C
HETATM   12  N4  UNL     1       1.211  22.904  36.339  1.00  0.00    -0.062 NA
HETATM   13  N5  UNL     1       0.345  23.311  34.240  1.00  0.00    -0.161 N
ATOM     14  H5  UNL     1       0.281  23.099  33.244  1.00  0.00     0.187 HD
HETATM   15  C10 UNL     1      -0.442  24.377  34.763  1.00  0.00     0.694 C
HETATM   16  N6  UNL     1      -1.574  24.126  35.323  1.00  0.00    -0.190 N
ATOM     17  H6  UNL     1      -1.856  23.146  35.364  1.00  0.00     0.184 HD
HETATM   18  N8  UNL     1      -0.032  25.732  34.690  1.00  0.00    -0.126 N
ATOM     19  H8  UNL     1      -0.702  26.472  34.478  1.00  0.00     0.197 HD
HETATM   20  C17 UNL     1       1.314  26.026  34.915  1.00  0.00     0.196 C
HETATM   21  N9  UNL     1       2.442  26.252  35.094  1.00  0.00    -0.171 NA
ENDROOT
BRANCH  16  22
HETATM   22  C11 UNL     1      -2.459  25.058  35.882  1.00  0.00     0.065 A
HETATM   23  C12 UNL     1      -3.639  25.390  35.264  1.00  0.00     0.117 A
HETATM   24  N7  UNL     1      -4.527  26.279  35.765  1.00  0.00    -0.373 N
HETATM   25  C13 UNL     1      -4.293  26.907  36.933  1.00  0.00     0.094 A
ATOM     26  H7  UNL     1      -5.385  26.477  35.251  1.00  0.00     0.164 HD
HETATM   27  C14 UNL     1      -3.115  26.603  37.589  1.00  0.00    -0.044 A
HETATM   28  C15 UNL     1      -2.850  27.292  38.878  1.00  0.00     0.049 C
HETATM   29  C16 UNL     1      -2.199  25.702  37.097  1.00  0.00     0.039 A
ENDBRANCH  16  22
BRANCH   1  30
HETATM   30  N1  UNL     1       0.026  20.335  33.600  1.00  0.00    -0.230 N
HETATM   31  C1  UNL     1      -0.680  19.361  34.422  1.00  0.00     0.165 C
ATOM     32  H1  UNL     1      -0.496  20.891  32.922  1.00  0.00     0.177 HD
ENDBRANCH   1  30
TORSDOF 2
ENDMDL