MODEL 5
REMARK VINA RESULT: -8.311169123      1.010      1.052
REMARK  2 active torsions:
REMARK  status: ('A' for Active; 'I' for Inactive)
REMARK    1  A    between atoms: N1_1  and  S1_4
REMARK    2  A    between atoms: S1_4  and  C1_7
ROOT
HETATM    1  C1  UNL     1       2.429  21.338  35.415  1.00  0.00     0.092 A
HETATM    2  C2  UNL     1       1.458  20.659  36.224  1.00  0.00     0.028 A
HETATM    3  C3  UNL     1       0.245  21.188  36.559  1.00  0.00     0.029 A
HETATM    4  C4  UNL     1      -0.105  22.423  36.126  1.00  0.00     0.112 A
HETATM    5  C5  UNL     1       0.762  23.126  35.362  1.00  0.00     0.111 A
HETATM    6  C6  UNL     1       2.028  22.588  35.012  1.00  0.00     0.032 A
HETATM    7  C7  UNL     1       2.909  23.417  34.187  1.00  0.00     0.006 A
HETATM    8  C8  UNL     1       4.160  22.997  33.887  1.00  0.00     0.014 A
HETATM    9  C9  UNL     1       4.990  23.836  33.138  1.00  0.00     0.001 A
HETATM   10  C10 UNL     1       4.562  25.061  32.714  1.00  0.00     0.002 A
HETATM   11  C11 UNL     1       3.293  25.468  33.037  1.00  0.00     0.032 A
HETATM   12  C12 UNL     1       2.439  24.664  33.777  1.00  0.00     0.061 A
HETATM   13  N2  UNL     1       1.161  25.146  34.148  1.00  0.00    -0.278 N
ATOM     14  H2  UNL     1       0.846  26.063  33.832  1.00  0.00     0.189 HD
HETATM   15  N3  UNL     1       0.337  24.357  34.948  1.00  0.00    -0.184 N
HETATM   16  N4  UNL     1      -0.947  24.756  35.370  1.00  0.00    -0.201 N
ATOM     17  H4  UNL     1      -1.429  25.630  35.160  1.00  0.00     0.202 HD
HETATM   18  S2  UNL     1      -1.518  23.446  36.313  1.00  0.00     0.280 S
HETATM   19  O3  UNL     1      -2.733  22.840  35.690  1.00  0.00    -0.199 OA
HETATM   20  O4  UNL     1      -1.737  23.821  37.746  1.00  0.00    -0.199 OA
ENDROOT
BRANCH   1  21
HETATM   21  S1  UNL     1       3.786  20.496  34.875  1.00  0.00     0.257 S
HETATM   22  O1  UNL     1       3.527  19.058  35.486  1.00  0.00    -0.201 OA
HETATM   23  O2  UNL     1       5.114  20.583  35.548  1.00  0.00    -0.201 OA
BRANCH  21  24
HETATM   24  N1  UNL     1       3.789  19.837  33.253  1.00  0.00    -0.324 N
ATOM     25  H12 UNL     1       4.500  19.394  32.671  1.00  0.00     0.169 HD
ATOM     26  H11 UNL     1       2.805  20.075  33.137  1.00  0.00     0.169 HD
ENDBRANCH  21  24
ENDBRANCH   1  21
TORSDOF 2
ENDMDL