MODEL 4
REMARK VINA RESULT: -9.020262117      2.333      3.041
REMARK  2 active torsions:
REMARK  status: ('A' for Active; 'I' for Inactive)
REMARK    1  A    between atoms: N1_1  and  C1_4
REMARK    2  A    between atoms: C4_9  and  N3_10
ROOT
HETATM    1  C1  UNL     1      -2.455  25.522  38.088  1.00  0.00     0.169 A
HETATM    2  N2  UNL     1      -1.275  25.110  37.609  1.00  0.00    -0.336 N
ATOM      3  H2  UNL     1      -0.568  24.766  38.259  1.00  0.00     0.168 HD
HETATM    4  C2  UNL     1      -0.997  25.137  36.303  1.00  0.00     0.063 A
HETATM    5  C3  UNL     1       0.206  24.721  35.770  1.00  0.00     0.062 A
HETATM    6  C4  UNL     1       0.438  24.771  34.413  1.00  0.00     0.056 A
HETATM    7  C12 UNL     1      -0.562  25.246  33.593  1.00  0.00     0.033 A
HETATM    8  C13 UNL     1      -1.782  25.673  34.080  1.00  0.00     0.034 A
HETATM    9  C14 UNL     1      -1.975  25.608  35.443  1.00  0.00     0.062 A
HETATM   10  N4  UNL     1      -3.175  26.030  35.904  1.00  0.00    -0.318 N
ATOM     11  H4  UNL     1      -3.885  26.374  35.257  1.00  0.00     0.169 HD
HETATM   12  C15 UNL     1      -3.418  25.988  37.217  1.00  0.00     0.289 A
HETATM   13  O4  UNL     1      -4.553  26.390  37.635  1.00  0.00    -0.264 OA
ENDROOT
BRANCH   6  14
HETATM   14  N3  UNL     1       1.675  24.344  33.866  1.00  0.00    -0.200 N
HETATM   15  C5  UNL     1       2.899  25.045  33.742  1.00  0.00     0.273 A
HETATM   16  O1  UNL     1       2.965  26.250  34.169  1.00  0.00    -0.266 OA
HETATM   17  C6  UNL     1       3.956  24.310  33.138  1.00  0.00     0.056 A
HETATM   18  C7  UNL     1       5.271  24.731  32.881  1.00  0.00     0.018 A
HETATM   19  C11 UNL     1       3.663  23.030  32.755  1.00  0.00     0.096 A
HETATM   20  C8  UNL     1       6.174  23.907  32.292  1.00  0.00     0.001 A
HETATM   21  C9  UNL     1       5.865  22.639  31.920  1.00  0.00     0.002 A
HETATM   22  C10 UNL     1       4.587  22.192  32.154  1.00  0.00     0.026 A
HETATM   23  S1  UNL     1       1.976  22.784  33.194  1.00  0.00     0.273 S
HETATM   24  O2  UNL     1       1.131  22.536  31.989  1.00  0.00    -0.200 OA
HETATM   25  O3  UNL     1       1.840  21.700  34.222  1.00  0.00    -0.200 OA
ENDBRANCH   6  14
BRANCH   1  26
HETATM   26  N1  UNL     1      -2.741  25.503  39.358  1.00  0.00    -0.381 N
ATOM     27  H12 UNL     1      -3.381  26.213  39.714  1.00  0.00     0.157 HD
ATOM     28  H11 UNL     1      -2.351  24.812  39.998  1.00  0.00     0.157 HD
ENDBRANCH   1  26
TORSDOF 2
ENDMDL