MODEL 4
REMARK VINA RESULT: -10.733076776      1.611      2.585
REMARK  2 active torsions:
REMARK  status: ('A' for Active; 'I' for Inactive)
REMARK    1  A    between atoms: C4_5  and  N2_6
REMARK    2  A    between atoms: N2_6  and  C5_8
REMARK       I    between atoms: N6_27  and  C18_29
ROOT
HETATM    1  C1  UNL     1       1.113  26.287  35.087  1.00  0.00     0.175 C
HETATM    2  N1  UNL     1       0.462  25.010  35.033  1.00  0.00    -0.196 N
HETATM    3  C2  UNL     1       0.946  24.047  34.255  1.00  0.00     0.127 A
HETATM    4  C3  UNL     1       0.281  22.836  34.231  1.00  0.00     0.069 A
HETATM    5  C4  UNL     1       0.772  21.790  33.419  1.00  0.00     0.122 A
HETATM    6  N3  UNL     1       0.113  20.621  33.415  1.00  0.00    -0.338 N
ATOM      7  H3  UNL     1       0.468  19.866  32.828  1.00  0.00     0.168 HD
HETATM    8  C15 UNL     1      -0.993  20.396  34.147  1.00  0.00     0.183 A
HETATM    9  N4  UNL     1      -1.501  21.388  34.951  1.00  0.00    -0.337 N
ATOM     10  H4  UNL     1      -2.337  21.236  35.516  1.00  0.00     0.168 HD
HETATM   11  C16 UNL     1      -0.846  22.580  34.966  1.00  0.00     0.137 A
HETATM   12  N5  UNL     1      -1.305  23.602  35.754  1.00  0.00    -0.175 N
ATOM     13  H5  UNL     1      -2.138  23.470  36.326  1.00  0.00     0.186 HD
HETATM   14  C17 UNL     1      -0.648  24.794  35.773  1.00  0.00     0.688 A
HETATM   15  N6  UNL     1      -1.104  25.726  36.531  1.00  0.00    -0.163 N
ATOM     16  H6  UNL     1      -0.583  26.603  36.526  1.00  0.00     0.187 HD
HETATM   17  C18 UNL     1      -2.225  25.683  37.360  1.00  0.00     0.200 C
HETATM   18  N7  UNL     1      -2.081  25.619  38.650  1.00  0.00    -0.373 N
ATOM     19  H71 UNL     1      -2.901  25.587  39.256  1.00  0.00     0.158 HD
ATOM     20  H72 UNL     1      -1.138  25.606  39.038  1.00  0.00     0.158 HD
HETATM   21  N8  UNL     1      -3.558  25.701  36.811  1.00  0.00    -0.063 NA
ENDROOT
BRANCH   5  22
HETATM   22  N2  UNL     1       1.817  22.035  32.763  1.00  0.00    -0.341 N
ATOM     23  H2  UNL     1       1.660  22.576  31.913  1.00  0.00     0.167 HD
BRANCH  22  24
HETATM   24  C5  UNL     1       3.159  21.697  32.990  1.00  0.00     0.044 A
HETATM   25  C6  UNL     1       3.488  20.373  33.328  1.00  0.00     0.030 A
HETATM   26  C7  UNL     1       4.785  19.977  33.568  1.00  0.00     0.003 A
HETATM   27  C8  UNL     1       5.797  20.886  33.478  1.00  0.00     0.012 A
HETATM   28  C9  UNL     1       5.536  22.204  33.150  1.00  0.00    -0.024 A
HETATM   29  C10 UNL     1       6.581  23.097  33.070  1.00  0.00     0.012 A
HETATM   30  C14 UNL     1       4.204  22.580  32.910  1.00  0.00     0.001 A
HETATM   31  C11 UNL     1       6.329  24.406  32.746  1.00  0.00     0.001 A
HETATM   32  C12 UNL     1       5.046  24.818  32.504  1.00  0.00     0.001 A
HETATM   33  C13 UNL     1       4.010  23.913  32.588  1.00  0.00     0.014 A
ENDBRANCH  22  24
ENDBRANCH   5  22
TORSDOF 2
ENDMDL