MODEL 1
REMARK VINA RESULT: -7.572462787      0.000      0.000
REMARK  5 active torsions:
REMARK  status: ('A' for Active; 'I' for Inactive)
REMARK    1  A    between atoms: C2_2  and  C5_5
REMARK    2  A    between atoms: C6_6  and  C7_7
REMARK    3  A    between atoms: N2_11  and  C9_13
REMARK    4  A    between atoms: C11_23  and  N7_24
REMARK    5  A    between atoms: N7_24  and  C12_26
ROOT
HETATM    1  C7  UNL     1      -1.454  24.779  35.040  1.00  0.00     0.127 A
HETATM    2  N1  UNL     1      -1.870  24.318  36.227  1.00  0.00    -0.182 N
ATOM      3  H1  UNL     1      -1.186  24.021  36.924  1.00  0.00     0.185 HD
HETATM    4  C8  UNL     1      -3.181  24.246  36.503  1.00  0.00     0.686 A
HETATM    5  N2  UNL     1      -3.560  23.801  37.648  1.00  0.00    -0.174 N
ATOM      6  H2  UNL     1      -4.555  23.743  37.867  1.00  0.00     0.186 HD
HETATM    7  N6  UNL     1      -4.115  24.638  35.587  1.00  0.00    -0.175 N
ATOM      8  H6  UNL     1      -5.105  24.572  35.824  1.00  0.00     0.186 HD
HETATM    9  C11 UNL     1      -3.761  25.105  34.388  1.00  0.00     0.141 A
HETATM   10  C16 UNL     1      -2.410  25.175  34.117  1.00  0.00     0.124 A
HETATM   11  C17 UNL     1      -1.982  25.670  32.843  1.00  0.00     0.106 C
HETATM   12  N8  UNL     1      -1.634  26.071  31.824  1.00  0.00    -0.191 NA
ENDROOT
BRANCH   1  13
HETATM   13  C6  UNL     1      -0.046  24.847  34.768  1.00  0.00    -0.046 C
HETATM   14  C5  UNL     1       1.140  24.893  34.546  1.00  0.00    -0.091 C
BRANCH  14  15
HETATM   15  C2  UNL     1       2.586  24.974  34.273  1.00  0.00     0.013 C
HETATM   16  C1  UNL     1       2.851  24.905  32.790  1.00  0.00     0.028 C
HETATM   17  C3  UNL     1       3.186  26.243  34.816  1.00  0.00     0.028 C
HETATM   18  C4  UNL     1       3.278  23.808  34.935  1.00  0.00     0.028 C
ENDBRANCH  14  15
ENDBRANCH   1  13
BRANCH   9  19
HETATM   19  N7  UNL     1      -4.589  25.475  33.519  1.00  0.00    -0.366 N
ATOM     20  H7  UNL     1      -4.323  25.247  32.560  1.00  0.00     0.162 HD
BRANCH  19  21
HETATM   21  C12 UNL     1      -5.828  26.154  33.637  1.00  0.00     0.021 C
HETATM   22  C13 UNL     1      -7.014  25.250  33.822  1.00  0.00     0.037 C
HETATM   23  C14 UNL     1      -6.061  26.902  32.314  1.00  0.00     0.037 C
HETATM   24  C15 UNL     1      -5.733  27.196  34.735  1.00  0.00     0.037 C
ENDBRANCH  19  21
ENDBRANCH   9  19
BRANCH   5  25
HETATM   25  C9  UNL     1      -2.604  23.395  38.602  1.00  0.00     0.153 A
HETATM   26  C10 UNL     1      -2.208  24.085  39.722  1.00  0.00     0.159 A
HETATM   27  N3  UNL     1      -1.279  23.332  40.346  1.00  0.00    -0.294 N
HETATM   28  N4  UNL     1      -1.114  22.230  39.641  1.00  0.00    -0.241 N
ATOM     29  H3  UNL     1      -0.791  23.573  41.209  1.00  0.00     0.187 HD
HETATM   30  N5  UNL     1      -1.904  22.233  38.571  1.00  0.00    -0.269 N
ATOM     31  H4  UNL     1      -0.468  21.478  39.883  1.00  0.00     0.208 HD
ATOM     32  H5  UNL     1      -1.972  21.501  37.863  1.00  0.00     0.190 HD
ENDBRANCH   5  25
TORSDOF 5
ENDMDL