MODEL 1
REMARK VINA RESULT: -10.719383102      0.000      0.000
REMARK  2 active torsions:
REMARK  status: ('A' for Active; 'I' for Inactive)
REMARK    1  A    between atoms: C5_6  and  N2_7
REMARK    2  A    between atoms: N2_7  and  C6_9
ROOT
HETATM    1  N1  UNL     1      -2.876  27.258  39.118  1.00  0.00    -0.191 NA
HETATM    2  C1  UNL     1      -2.348  26.575  38.353  1.00  0.00     0.099 C
HETATM    3  C2  UNL     1      -1.712  25.708  37.394  1.00  0.00     0.046 A
HETATM    4  C3  UNL     1      -0.968  24.615  37.785  1.00  0.00     0.025 A
HETATM    5  C4  UNL     1      -0.353  23.772  36.912  1.00  0.00     0.032 A
HETATM    6  C5  UNL     1      -0.453  23.983  35.538  1.00  0.00     0.053 A
HETATM    7  C17 UNL     1      -1.210  25.097  35.140  1.00  0.00     0.072 A
HETATM    8  C18 UNL     1      -1.325  25.334  33.715  1.00  0.00     0.102 C
HETATM    9  N6  UNL     1      -1.408  25.540  32.576  1.00  0.00    -0.191 NA
HETATM   10  C19 UNL     1      -1.814  25.925  36.038  1.00  0.00     0.047 A
ENDROOT
BRANCH   6  11
HETATM   11  N2  UNL     1       0.127  23.200  34.601  1.00  0.00    -0.353 N
ATOM     12  H2  UNL     1      -0.666  22.801  34.098  1.00  0.00     0.166 HD
BRANCH  11  13
HETATM   13  C6  UNL     1       1.075  22.727  34.051  1.00  0.00     0.065 A
HETATM   14  C7  UNL     1       2.213  23.351  33.580  1.00  0.00     0.018 A
HETATM   15  C8  UNL     1       2.350  24.697  33.722  1.00  0.00     0.016 A
HETATM   16  C12 UNL     1       3.252  22.652  32.950  1.00  0.00     0.046 A
HETATM   17  C9  UNL     1       3.489  25.363  33.256  1.00  0.00     0.001 A
HETATM   18  C10 UNL     1       4.474  24.643  32.650  1.00  0.00     0.002 A
HETATM   19  C11 UNL     1       4.394  23.281  32.476  1.00  0.00     0.030 A
HETATM   20  N3  UNL     1       3.151  21.335  32.793  1.00  0.00    -0.341 N
HETATM   21  C13 UNL     1       2.085  20.672  33.223  1.00  0.00     0.128 A
ATOM     22  H3  UNL     1       3.906  20.827  32.334  1.00  0.00     0.167 HD
HETATM   23  N4  UNL     1       2.022  19.325  33.043  1.00  0.00    -0.293 N
HETATM   24  C16 UNL     1       1.047  21.318  33.844  1.00  0.00     0.104 A
HETATM   25  C14 UNL     1       0.962  18.611  33.462  1.00  0.00     0.328 A
ATOM     26  H4  UNL     1       2.795  18.846  32.581  1.00  0.00     0.172 HD
HETATM   27  O1  UNL     1       0.874  17.371  33.311  1.00  0.00    -0.247 OA
HETATM   28  N5  UNL     1      -0.060  19.246  34.073  1.00  0.00    -0.275 N
HETATM   29  C15 UNL     1      -0.030  20.574  34.266  1.00  0.00     0.265 A
ATOM     30  H5  UNL     1      -0.867  18.710  34.393  1.00  0.00     0.173 HD
HETATM   31  O2  UNL     1      -0.999  21.171  34.845  1.00  0.00    -0.267 OA
ENDBRANCH  11  13
ENDBRANCH   6  11
TORSDOF 2
ENDMDL