MODEL 3
REMARK VINA RESULT: -8.910853693      1.167      1.903
REMARK  3 active torsions:
REMARK  status: ('A' for Active; 'I' for Inactive)
REMARK    1  A    between atoms: O1_2  and  C2_3
REMARK    2  A    between atoms: C8_11  and  O2_12
REMARK    3  A    between atoms: C9_14  and  C10_15
ROOT
HETATM    1  C2  UNL     1       4.234  19.805  34.985  1.00  0.00     0.070 A
HETATM    2  C3  UNL     1       4.696  19.942  33.674  1.00  0.00     0.038 A
HETATM    3  C4  UNL     1       3.966  20.712  32.790  1.00  0.00     0.016 A
HETATM    4  C5  UNL     1       2.799  21.350  33.154  1.00  0.00    -0.007 A
HETATM    5  C6  UNL     1       2.065  22.123  32.271  1.00  0.00     0.045 A
HETATM    6  C7  UNL     1       0.901  22.736  32.706  1.00  0.00     0.063 A
HETATM    7  N1  UNL     1       0.014  23.518  32.092  1.00  0.00    -0.334 N
ATOM      8  H1  UNL     1       0.070  23.808  31.116  1.00  0.00     0.168 HD
HETATM    9  C8  UNL     1      -0.967  23.871  32.946  1.00  0.00     0.155 A
HETATM   10  C9  UNL     1      -0.714  23.291  34.194  1.00  0.00     0.071 A
HETATM   11  C18 UNL     1       0.456  22.589  34.013  1.00  0.00     0.076 A
HETATM   12  N4  UNL     1       1.191  21.837  34.830  1.00  0.00    -0.353 N
ATOM     13  H4  UNL     1       0.877  21.720  35.793  1.00  0.00     0.166 HD
HETATM   14  C19 UNL     1       2.337  21.219  34.447  1.00  0.00     0.045 A
HETATM   15  C20 UNL     1       3.071  20.441  35.349  1.00  0.00     0.067 A
ENDROOT
BRANCH  10  16
HETATM   16  C10 UNL     1      -1.532  23.420  35.398  1.00  0.00     0.064 A
HETATM   17  C11 UNL     1      -1.710  24.349  36.326  1.00  0.00     0.043 A
HETATM   18  C12 UNL     1      -1.345  25.607  36.756  1.00  0.00     0.061 A
HETATM   19  C17 UNL     1      -2.635  23.567  37.006  1.00  0.00     0.053 A
HETATM   20  N2  UNL     1      -0.388  26.398  36.038  1.00  0.00    -0.101 NA
HETATM   21  C13 UNL     1      -1.940  26.075  37.910  1.00  0.00     0.028 A
HETATM   22  C14 UNL     1      -2.864  25.298  38.593  1.00  0.00     0.011 A
HETATM   23  C15 UNL     1      -3.225  24.041  38.158  1.00  0.00    -0.034 A
HETATM   24  C16 UNL     1      -4.208  23.191  38.868  1.00  0.00     0.050 C
HETATM   25  N3  UNL     1      -2.481  22.646  36.119  1.00  0.00    -0.353 N
ATOM     26  H3  UNL     1      -2.884  21.719  35.986  1.00  0.00     0.166 HD
ENDBRANCH  10  16
BRANCH   9  27
HETATM   27  O2  UNL     1      -2.078  24.676  32.702  1.00  0.00    -0.345 OA
ATOM     28  H2  UNL     1      -2.996  24.431  32.700  1.00  0.00     0.219 HD
ENDBRANCH   9  27
BRANCH   1  29
HETATM   29  O1  UNL     1       4.992  19.026  35.844  1.00  0.00    -0.356 OA
HETATM   30  C1  UNL     1       4.359  18.188  36.758  1.00  0.00     0.210 C
ENDBRANCH   1  29
TORSDOF 3
ENDMDL