MODEL 2
REMARK VINA RESULT: -7.793803101      4.042      6.174
REMARK  7 active torsions:
REMARK  status: ('A' for Active; 'I' for Inactive)
REMARK    1  A    between atoms: N1_2  and  C2_4
REMARK    2  A    between atoms: C5_7  and  N2_8
REMARK    3  A    between atoms: C6_10  and  C7_11
REMARK    4  A    between atoms: C7_11  and  C8_13
REMARK    5  A    between atoms: N3_14  and  C9_16
REMARK    6  A    between atoms: N4_17  and  N5_18
REMARK    7  A    between atoms: C10_20  and  C11_21
ROOT
HETATM    1  C9  UNL     1     -33.304  13.709  -4.150  1.00  0.00     0.235 C
HETATM    2  N4  UNL     1     -34.307  13.273  -3.163  1.00  0.00    -0.239 N
HETATM    3  C15 UNL     1     -34.328  11.841  -3.195  1.00  0.00     0.208 C
HETATM    4  N6  UNL     1     -35.096  11.071  -2.243  1.00  0.00    -0.062 NA
HETATM    5  N7  UNL     1     -33.601  11.371  -4.144  1.00  0.00    -0.351 N
ATOM      6  H7  UNL     1     -33.475  10.380  -4.347  1.00  0.00     0.163 HD
HETATM    7  C16 UNL     1     -32.990  12.450  -4.881  1.00  0.00     0.065 C
HETATM    8  C17 UNL     1     -31.497  12.161  -4.925  1.00  0.00     0.042 C
HETATM    9  C18 UNL     1     -33.446  12.494  -6.331  1.00  0.00     0.042 C
ENDROOT
BRANCH   1  10
HETATM   10  N3  UNL     1     -32.137  14.215  -3.527  1.00  0.00    -0.377 N
HETATM   11  C8  UNL     1     -31.306  15.007  -4.072  1.00  0.00     0.079 C
ATOM     12  H3  UNL     1     -31.950  13.921  -2.568  1.00  0.00     0.160 HD
BRANCH  11  13
HETATM   13  C7  UNL     1     -30.114  15.484  -3.344  1.00  0.00     0.134 C
HETATM   14  S1  UNL     1     -29.800  17.251  -3.640  1.00  0.00    -0.081 SA
BRANCH  13  15
HETATM   15  C6  UNL     1     -28.901  14.675  -3.692  1.00  0.00     0.082 C
HETATM   16  N2  UNL     1     -28.321  13.910  -2.861  1.00  0.00    -0.368 N
ATOM     17  H2  UNL     1     -28.685  13.832  -1.911  1.00  0.00     0.165 HD
BRANCH  16  18
HETATM   18  C5  UNL     1     -27.172  13.162  -3.237  1.00  0.00     0.031 A
HETATM   19  C4  UNL     1     -27.266  11.875  -3.727  1.00  0.00     0.031 A
HETATM   20  C3  UNL     1     -26.138  11.168  -4.085  1.00  0.00     0.031 A
HETATM   21  C2  UNL     1     -24.862  11.701  -3.977  1.00  0.00     0.027 A
HETATM   22  C20 UNL     1     -24.776  12.987  -3.487  1.00  0.00     0.031 A
HETATM   23  C19 UNL     1     -25.903  13.696  -3.128  1.00  0.00     0.031 A
BRANCH  21  24
HETATM   24  N1  UNL     1     -23.710  10.957  -4.352  1.00  0.00    -0.394 N
HETATM   25  C1  UNL     1     -23.902   9.648  -4.938  1.00  0.00     0.146 C
ATOM     26  H1  UNL     1     -22.773  11.335  -4.212  1.00  0.00     0.159 HD
ENDBRANCH  21  24
ENDBRANCH  16  18
ENDBRANCH  13  15
ENDBRANCH  11  13
ENDBRANCH   1  10
BRANCH   2  27
HETATM   27  N5  UNL     1     -35.080  14.050  -2.339  1.00  0.00    -0.303 N
HETATM   28  C10 UNL     1     -36.277  14.375  -2.299  1.00  0.00     0.144 C
ATOM     29  H5  UNL     1     -34.541  14.461  -1.577  1.00  0.00     0.186 HD
BRANCH  28  30
HETATM   30  C11 UNL     1     -37.370  14.014  -3.181  1.00  0.00     0.091 A
HETATM   31  C12 UNL     1     -38.190  14.871  -3.855  1.00  0.00     0.040 A
HETATM   32  C13 UNL     1     -39.105  14.097  -4.589  1.00  0.00     0.027 A
HETATM   33  C14 UNL     1     -38.762  12.795  -4.298  1.00  0.00     0.142 A
HETATM   34  O1  UNL     1     -37.762  12.787  -3.486  1.00  0.00    -0.321 OA
ENDBRANCH  28  30
ENDBRANCH   2  27
TORSDOF 7
ENDMDL