MODEL 2
REMARK VINA RESULT: -9.161387611      3.441      9.782
REMARK  10 active torsions:
REMARK  status: ('A' for Active; 'I' for Inactive)
REMARK    1  A    between atoms: C4_5  and  N2_6
REMARK    2  A    between atoms: N2_6  and  C5_8
REMARK    3  A    between atoms: C5_8  and  O1_9
REMARK    4  A    between atoms: C5_8  and  C6_11
REMARK    5  A    between atoms: N4_15  and  C8_16
REMARK    6  A    between atoms: N5_18  and  C10_19
REMARK    7  A    between atoms: C10_19  and  C11_20
REMARK    8  A    between atoms: C17_26  and  O2_27
REMARK    9  A    between atoms: C18_29  and  N6_30
REMARK   10  A    between atoms: N6_30  and  O3_32
ROOT
HETATM    1  C8  UNL     1     -29.909  14.280  -3.873  1.00  0.00     0.104 A
HETATM    2  C9  UNL     1     -31.219  14.501  -4.215  1.00  0.00     0.127 A
HETATM    3  N5  UNL     1     -31.917  13.332  -4.272  1.00  0.00    -0.333 N
HETATM    4  C17 UNL     1     -31.028  12.375  -3.961  1.00  0.00     0.174 A
HETATM    5  C18 UNL     1     -29.784  12.912  -3.709  1.00  0.00     0.135 A
ENDROOT
BRANCH   1   6
HETATM    6  N4  UNL     1     -28.852  15.225  -3.707  1.00  0.00    -0.264 N
HETATM    7  N3  UNL     1     -27.756  15.145  -3.003  1.00  0.00    -0.305 N
HETATM    8  C7  UNL     1     -27.017  16.257  -3.112  1.00  0.00     0.120 A
ATOM      9  H3  UNL     1     -27.495  14.336  -2.440  1.00  0.00     0.186 HD
HETATM   10  C6  UNL     1     -27.701  17.105  -3.949  1.00  0.00     0.024 A
HETATM   11  C19 UNL     1     -28.863  16.426  -4.314  1.00  0.00     0.129 A
BRANCH  10  12
HETATM   12  C5  UNL     1     -27.306  18.476  -4.392  1.00  0.00     0.255 C
BRANCH  12  13
HETATM   13  N2  UNL     1     -25.893  18.660  -4.373  1.00  0.00    -0.359 N
ATOM     14  H2  UNL     1     -25.347  18.278  -5.146  1.00  0.00     0.162 HD
BRANCH  13  15
HETATM   15  C4  UNL     1     -25.209  19.336  -3.351  1.00  0.00     0.047 A
HETATM   16  C3  UNL     1     -25.663  19.651  -2.082  1.00  0.00     0.048 A
HETATM   17  C2  UNL     1     -24.661  20.321  -1.406  1.00  0.00     0.092 A
HETATM   18  N1  UNL     1     -23.613  20.426  -2.214  1.00  0.00    -0.368 N
HETATM   19  C1  UNL     1     -22.334  21.068  -1.893  1.00  0.00     0.154 C
HETATM   20  C20 UNL     1     -23.913  19.848  -3.379  1.00  0.00     0.119 A
ENDBRANCH  13  15
ENDBRANCH  12  13
BRANCH  12  21
HETATM   21  O1  UNL     1     -27.906  18.788  -5.599  1.00  0.00    -0.372 OA
ATOM     22  H1  UNL     1     -28.462  19.557  -5.573  1.00  0.00     0.212 HD
ENDBRANCH  12  21
ENDBRANCH  10  12
ENDBRANCH   1   6
BRANCH   5  23
HETATM   23  N6  UNL     1     -28.574  12.253  -3.349  1.00  0.00    -0.263 N
ATOM     24  H6  UNL     1     -27.737  12.820  -3.211  1.00  0.00     0.194 HD
BRANCH  23  25
HETATM   25  O3  UNL     1     -28.484  11.022  -3.193  1.00  0.00    -0.289 OA
ATOM     26  H3  UNL     1     -28.771  10.573  -2.407  1.00  0.00     0.244 HD
ENDBRANCH  23  25
ENDBRANCH   5  23
BRANCH   3  27
HETATM   27  C10 UNL     1     -33.322  13.212  -4.606  1.00  0.00     0.135 C
BRANCH  27  28
HETATM   28  C11 UNL     1     -34.190  12.870  -3.422  1.00  0.00     0.004 C
HETATM   29  C12 UNL     1     -34.843  11.530  -3.495  1.00  0.00     0.006 C
HETATM   30  C13 UNL     1     -35.351  11.212  -2.081  1.00  0.00     0.000 C
HETATM   31  C14 UNL     1     -36.338  12.244  -1.651  1.00  0.00     0.000 C
HETATM   32  C15 UNL     1     -35.821  13.656  -1.794  1.00  0.00     0.000 C
HETATM   33  C16 UNL     1     -35.257  13.911  -3.175  1.00  0.00     0.006 C
ENDBRANCH  27  28
ENDBRANCH   3  27
BRANCH   4  34
HETATM   34  O2  UNL     1     -31.337  11.025  -3.904  1.00  0.00    -0.344 OA
ATOM     35  H2  UNL     1     -31.138  10.408  -4.598  1.00  0.00     0.219 HD
ENDBRANCH   4  34
TORSDOF 10
ENDMDL