MODEL 5
REMARK VINA RESULT: -8.888152340      3.061      4.958
REMARK  8 active torsions:
REMARK  status: ('A' for Active; 'I' for Inactive)
REMARK       I    between atoms: C1_2  and  N1_3
REMARK       I    between atoms: C1_2  and  N3_11
REMARK    1  A    between atoms: N1_3  and  N2_4
REMARK    2  A    between atoms: N2_4  and  C2_5
REMARK    3  A    between atoms: C2_5  and  C3_6
REMARK    4  A    between atoms: N3_11  and  C7_13
REMARK    5  A    between atoms: C10_16  and  N4_17
REMARK    6  A    between atoms: N5_19  and  C11_21
REMARK    7  A    between atoms: C14_24  and  C15_25
REMARK    8  A    between atoms: C17_29  and  N6_30
ROOT
HETATM    1  C7  UNL     1     -28.819  16.248  -3.823  1.00  0.00     0.154 A
HETATM    2  C8  UNL     1     -30.177  16.204  -3.643  1.00  0.00     0.061 A
HETATM    3  C9  UNL     1     -30.610  15.082  -4.363  1.00  0.00     0.062 A
HETATM    4  C10 UNL     1     -29.518  14.500  -4.944  1.00  0.00     0.164 A
HETATM    5  O7  UNL     1     -28.453  15.233  -4.594  1.00  0.00    -0.276 OA
ENDROOT
BRANCH   4   6
HETATM    6  N4  UNL     1     -29.488  13.362  -5.751  1.00  0.00    -0.279 N
HETATM    7  N5  UNL     1     -30.266  12.463  -5.992  1.00  0.00    -0.296 N
ATOM      8  H5  UNL     1     -29.941  11.750  -6.644  1.00  0.00     0.187 HD
ATOM      9  H4  UNL     1     -28.607  13.263  -6.256  1.00  0.00     0.189 HD
BRANCH   7  10
HETATM   10  C11 UNL     1     -31.553  12.290  -5.482  1.00  0.00     0.081 A
HETATM   11  C12 UNL     1     -32.670  12.869  -6.072  1.00  0.00     0.034 A
HETATM   12  C13 UNL     1     -33.890  12.805  -5.556  1.00  0.00     0.021 A
HETATM   13  C14 UNL     1     -34.119  12.125  -4.341  1.00  0.00     0.043 A
HETATM   14  C16 UNL     1     -33.027  11.543  -3.741  1.00  0.00     0.056 A
HETATM   15  C17 UNL     1     -31.720  11.603  -4.289  1.00  0.00     0.132 A
BRANCH  13  16
HETATM   16  C15 UNL     1     -35.461  12.067  -3.753  1.00  0.00     0.209 C
HETATM   17  O3  UNL     1     -36.488  12.020  -4.446  1.00  0.00    -0.644 OA
HETATM   18  O4  UNL     1     -35.527  12.071  -2.375  1.00  0.00    -0.644 OA
ENDBRANCH  13  16
BRANCH  15  19
HETATM   19  N6  UNL     1     -30.657  10.958  -3.616  1.00  0.00    -0.113 N
HETATM   20  O5  UNL     1     -30.594   9.741  -3.494  1.00  0.00    -0.532 OA
HETATM   21  O6  UNL     1     -29.607  11.706  -3.066  1.00  0.00    -0.532 OA
ENDBRANCH  15  19
ENDBRANCH   7  10
ENDBRANCH   4   6
BRANCH   1  22
HETATM   22  N3  UNL     1     -27.883  17.175  -3.310  1.00  0.00    -0.275 N
HETATM   23  C1  UNL     1     -26.819  16.789  -2.397  1.00  0.00     0.430 C
HETATM   24  O1  UNL     1     -26.726  15.524  -2.114  1.00  0.00    -0.227 OA
HETATM   25  N1  UNL     1     -26.051  17.735  -1.934  1.00  0.00    -0.185 NA
ATOM     26  H3  UNL     1     -27.956  18.153  -3.591  1.00  0.00     0.173 HD
BRANCH  25  27
HETATM   27  N2  UNL     1     -25.247  18.698  -1.444  1.00  0.00    -0.254 NA
BRANCH  27  28
HETATM   28  C2  UNL     1     -24.584  19.609  -1.169  1.00  0.00     0.262 C
BRANCH  28  29
HETATM   29  C3  UNL     1     -24.023  20.470  -2.289  1.00  0.00     0.106 A
HETATM   30  C4  UNL     1     -22.752  20.907  -2.336  1.00  0.00     0.041 A
HETATM   31  C5  UNL     1     -22.677  21.692  -3.541  1.00  0.00     0.027 A
HETATM   32  C6  UNL     1     -23.919  21.622  -4.067  1.00  0.00     0.142 A
HETATM   33  O2  UNL     1     -24.723  20.873  -3.289  1.00  0.00    -0.320 OA
ENDBRANCH  28  29
ENDBRANCH  27  28
ENDBRANCH  25  27
ENDBRANCH   1  22
TORSDOF 8
ENDMDL