MODEL 5
REMARK VINA RESULT: -8.751292644      2.406      8.224
REMARK  8 active torsions:
REMARK  status: ('A' for Active; 'I' for Inactive)
REMARK    1  A    between atoms: C4_5  and  N2_6
REMARK    2  A    between atoms: C5_11  and  N4_12
REMARK    3  A    between atoms: C7_16  and  C8_17
REMARK    4  A    between atoms: C8_17  and  C9_18
REMARK    5  A    between atoms: C8_17  and  C10_23
REMARK    6  A    between atoms: N5_19  and  O3_21
REMARK       I    between atoms: C10_23  and  N6_25
REMARK    7  A    between atoms: N6_25  and  C11_27
REMARK    8  A    between atoms: C14_30  and  N7_31
ROOT
HETATM    1  N1  UNL     1     -30.370  10.600  -5.441  1.00  0.00    -0.191 NA
HETATM    2  C1  UNL     1     -29.696  11.462  -5.027  1.00  0.00     0.100 C
HETATM    3  C2  UNL     1     -28.840  12.511  -4.491  1.00  0.00     0.054 A
HETATM    4  C3  UNL     1     -27.573  12.106  -4.054  1.00  0.00     0.056 A
HETATM    5  C4  UNL     1     -26.707  13.026  -3.520  1.00  0.00     0.082 A
HETATM    6  C5  UNL     1     -27.083  14.334  -3.415  1.00  0.00     0.131 A
HETATM    7  C6  UNL     1     -28.330  14.698  -3.853  1.00  0.00     0.048 A
HETATM    8  C7  UNL     1     -29.249  13.823  -4.399  1.00  0.00    -0.017 A
ENDROOT
BRANCH   8   9
HETATM    9  C8  UNL     1     -30.570  14.184  -4.896  1.00  0.00     0.153 C
BRANCH   9  10
HETATM   10  C9  UNL     1     -30.574  15.524  -5.511  1.00  0.00     0.105 C
HETATM   11  N5  UNL     1     -30.305  16.525  -4.714  1.00  0.00    -0.283 N
ATOM     12  H5  UNL     1     -30.107  16.354  -3.728  1.00  0.00     0.192 HD
BRANCH  11  13
HETATM   13  O3  UNL     1     -30.288  17.791  -5.199  1.00  0.00    -0.291 OA
ATOM     14  H3  UNL     1     -29.521  18.337  -5.072  1.00  0.00     0.244 HD
ENDBRANCH  11  13
ENDBRANCH   9  10
BRANCH   9  15
HETATM   15  C10 UNL     1     -31.691  14.062  -3.953  1.00  0.00     0.235 C
HETATM   16  O4  UNL     1     -31.595  14.617  -2.847  1.00  0.00    -0.272 OA
HETATM   17  N6  UNL     1     -32.825  13.342  -4.298  1.00  0.00    -0.326 N
ATOM     18  H6  UNL     1     -32.831  12.919  -5.227  1.00  0.00     0.169 HD
BRANCH  17  19
HETATM   19  C11 UNL     1     -33.967  13.132  -3.506  1.00  0.00     0.034 A
HETATM   20  C12 UNL     1     -34.297  11.810  -3.130  1.00  0.00     0.032 A
HETATM   21  C13 UNL     1     -35.380  11.536  -2.348  1.00  0.00     0.038 A
HETATM   22  C14 UNL     1     -36.224  12.513  -1.870  1.00  0.00     0.103 A
HETATM   23  C15 UNL     1     -35.924  13.806  -2.223  1.00  0.00     0.038 A
HETATM   24  C16 UNL     1     -34.806  14.097  -3.032  1.00  0.00     0.032 A
BRANCH  22  25
HETATM   25  N7  UNL     1     -37.343  12.202  -1.060  1.00  0.00    -0.116 N
HETATM   26  O5  UNL     1     -38.512  12.335  -1.454  1.00  0.00    -0.532 OA
HETATM   27  O6  UNL     1     -37.141  11.736   0.211  1.00  0.00    -0.532 OA
ENDBRANCH  22  25
ENDBRANCH  17  19
ENDBRANCH   9  15
ENDBRANCH   8   9
BRANCH   5  28
HETATM   28  N2  UNL     1     -25.402  12.632  -3.065  1.00  0.00    -0.305 N
HETATM   29  N3  UNL     1     -24.358  12.809  -3.761  1.00  0.00    -0.345 N
ATOM     30  H32 UNL     1     -24.465  13.250  -4.675  1.00  0.00     0.176 HD
ATOM     31  H31 UNL     1     -23.432  12.530  -3.439  1.00  0.00     0.176 HD
ATOM     32  H2  UNL     1     -25.313  12.193  -2.149  1.00  0.00     0.186 HD
ENDBRANCH   5  28
BRANCH   6  33
HETATM   33  N4  UNL     1     -26.229  15.324  -2.872  1.00  0.00    -0.113 N
HETATM   34  O1  UNL     1     -25.442  15.936  -3.580  1.00  0.00    -0.532 OA
HETATM   35  O2  UNL     1     -26.296  15.588  -1.532  1.00  0.00    -0.532 OA
ENDBRANCH   6  33
TORSDOF 8
ENDMDL