MODEL 3
REMARK VINA RESULT: -8.459819843      1.970      3.819
REMARK  10 active torsions:
REMARK  status: ('A' for Active; 'I' for Inactive)
REMARK    1  A    between atoms: O1_2  and  C2_3
REMARK    2  A    between atoms: C5_8  and  N2_9
REMARK    3  A    between atoms: N2_9  and  C6_11
REMARK    4  A    between atoms: C6_11  and  C7_12
REMARK    5  A    between atoms: C6_11  and  C18_25
REMARK    6  A    between atoms: C7_12  and  C8_13
REMARK    7  A    between atoms: C18_25  and  O4_26
REMARK    8  A    between atoms: N3_28  and  O5_30
REMARK    9  A    between atoms: C19_32  and  N4_33
REMARK   10  A    between atoms: N4_33  and  O6_35
ROOT
HETATM    1  C6  UNL     1     -29.084  17.347  -4.433  1.00  0.00     0.161 C
ENDROOT
BRANCH   1   2
HETATM    2  N2  UNL     1     -27.682  17.175  -4.088  1.00  0.00    -0.376 N
ATOM      3  H2  UNL     1     -27.259  16.296  -4.383  1.00  0.00     0.160 HD
BRANCH   2   4
HETATM    4  C5  UNL     1     -26.837  18.056  -3.405  1.00  0.00     0.063 A
HETATM    5  C4  UNL     1     -26.555  17.999  -2.074  1.00  0.00     0.049 A
HETATM    6  C3  UNL     1     -25.690  18.881  -1.410  1.00  0.00     0.092 A
HETATM    7  N1  UNL     1     -25.100  19.846  -2.130  1.00  0.00    -0.345 N
HETATM    8  C2  UNL     1     -25.340  19.952  -3.447  1.00  0.00     0.173 A
ATOM      9  H1  UNL     1     -24.466  20.502  -1.675  1.00  0.00     0.167 HD
HETATM   10  C19 UNL     1     -26.186  19.090  -4.101  1.00  0.00     0.131 A
BRANCH   8  11
HETATM   11  O1  UNL     1     -24.724  20.948  -4.169  1.00  0.00    -0.339 OA
HETATM   12  C1  UNL     1     -23.478  21.499  -3.836  1.00  0.00     0.211 C
ENDBRANCH   8  11
BRANCH  10  13
HETATM   13  N4  UNL     1     -26.444  19.197  -5.493  1.00  0.00    -0.263 N
ATOM     14  H4  UNL     1     -26.917  20.017  -5.875  1.00  0.00     0.194 HD
BRANCH  13  15
HETATM   15  O6  UNL     1     -26.081  18.267  -6.235  1.00  0.00    -0.289 OA
ATOM     16  H6  UNL     1     -26.429  17.398  -6.073  1.00  0.00     0.244 HD
ENDBRANCH  13  15
ENDBRANCH  10  13
ENDBRANCH   2   4
ENDBRANCH   1   2
BRANCH   1  17
HETATM   17  C7  UNL     1     -29.900  16.451  -3.627  1.00  0.00     0.066 C
BRANCH  17  18
HETATM   18  C8  UNL     1     -29.716  14.999  -3.605  1.00  0.00     0.134 C
HETATM   19  O2  UNL     1     -28.546  14.495  -4.065  1.00  0.00    -0.350 OA
HETATM   20  C9  UNL     1     -28.339  13.169  -3.858  1.00  0.00     0.157 C
HETATM   21  C10 UNL     1     -27.507  12.605  -5.018  1.00  0.00     0.078 C
HETATM   22  C11 UNL     1     -27.418  13.043  -2.630  1.00  0.00     0.078 C
HETATM   23  O3  UNL     1     -29.392  12.367  -3.668  1.00  0.00    -0.350 OA
HETATM   24  C12 UNL     1     -30.655  12.802  -3.847  1.00  0.00     0.131 C
HETATM   25  C13 UNL     1     -31.480  11.923  -4.781  1.00  0.00     0.032 C
HETATM   26  C17 UNL     1     -30.831  14.221  -4.292  1.00  0.00     0.044 C
HETATM   27  C14 UNL     1     -32.819  12.557  -4.950  1.00  0.00     0.002 C
HETATM   28  C15 UNL     1     -33.170  13.540  -3.862  1.00  0.00     0.001 C
HETATM   29  C16 UNL     1     -32.195  14.693  -3.800  1.00  0.00     0.010 C
ENDBRANCH  17  18
ENDBRANCH   1  17
BRANCH   1  30
HETATM   30  C18 UNL     1     -29.271  17.510  -5.870  1.00  0.00     0.158 C
HETATM   31  N3  UNL     1     -30.218  18.308  -6.339  1.00  0.00    -0.249 N
ATOM     32  H3  UNL     1     -30.832  18.823  -5.709  1.00  0.00     0.196 HD
BRANCH  30  33
HETATM   33  O4  UNL     1     -28.498  16.858  -6.808  1.00  0.00    -0.347 OA
ATOM     34  H4  UNL     1     -27.929  17.313  -7.418  1.00  0.00     0.219 HD
ENDBRANCH  30  33
BRANCH  31  35
HETATM   35  O5  UNL     1     -30.347  18.421  -7.692  1.00  0.00    -0.288 OA
ATOM     36  H5  UNL     1     -31.183  18.192  -8.081  1.00  0.00     0.244 HD
ENDBRANCH  31  35
ENDBRANCH   1  30
TORSDOF 10
ENDMDL