MODEL 5
REMARK VINA RESULT: -7.706730863      3.115      7.945
REMARK  9 active torsions:
REMARK  status: ('A' for Active; 'I' for Inactive)
REMARK    1  A    between atoms: C2_2  and  C3_3
REMARK    2  A    between atoms: C3_3  and  C4_4
REMARK    3  A    between atoms: C4_4  and  C5_5
REMARK    4  A    between atoms: C5_5  and  N1_6
REMARK    5  A    between atoms: C6_7  and  O1_8
REMARK    6  A    between atoms: C7_10  and  N2_11
REMARK    7  A    between atoms: N2_11  and  N3_13
REMARK    8  A    between atoms: C12_21  and  O2_22
REMARK    9  A    between atoms: N5_24  and  C13_25
ROOT
HETATM    1  N1  UNL     1     -28.390  16.504  -3.565  1.00  0.00    -0.301 N
HETATM    2  C6  UNL     1     -29.605  16.479  -4.109  1.00  0.00     0.191 A
HETATM    3  C7  UNL     1     -29.952  15.162  -4.461  1.00  0.00     0.177 A
HETATM    4  N5  UNL     1     -28.897  14.408  -4.101  1.00  0.00    -0.300 N
HETATM    5  C18 UNL     1     -27.962  15.253  -3.560  1.00  0.00     0.184 A
HETATM    6  S2  UNL     1     -26.504  14.820  -3.014  1.00  0.00    -0.040 SA
ENDROOT
BRANCH   3   7
HETATM    7  N2  UNL     1     -31.178  14.794  -5.089  1.00  0.00    -0.281 N
ATOM      8  H2  UNL     1     -31.224  14.622  -6.094  1.00  0.00     0.188 HD
BRANCH   7   9
HETATM    9  N3  UNL     1     -32.298  14.680  -4.297  1.00  0.00    -0.294 N
HETATM   10  C8  UNL     1     -32.992  13.738  -3.903  1.00  0.00     0.094 C
HETATM   11  S1  UNL     1     -34.434  14.011  -2.837  1.00  0.00    -0.083 SA
HETATM   12  C12 UNL     1     -32.729  12.331  -4.241  1.00  0.00     0.204 C
HETATM   13  C9  UNL     1     -35.372  12.493  -2.710  1.00  0.00     0.352 C
HETATM   14  N4  UNL     1     -34.829  11.374  -3.414  1.00  0.00     0.096 N
HETATM   15  C10 UNL     1     -35.959  10.553  -3.870  1.00  0.00     0.310 C
HETATM   16  C11 UNL     1     -34.079  11.718  -4.582  1.00  0.00     0.311 C
ATOM     17  H3  UNL     1     -32.632  15.582  -3.958  1.00  0.00     0.187 HD
BRANCH  12  18
HETATM   18  O2  UNL     1     -31.964  12.270  -5.386  1.00  0.00    -0.387 OA
ATOM     19  H2  UNL     1     -31.657  11.380  -5.514  1.00  0.00     0.210 HD
ENDBRANCH  12  18
ENDBRANCH   7   9
ENDBRANCH   3   7
BRANCH   2  20
HETATM   20  O1  UNL     1     -30.468  17.563  -4.331  1.00  0.00    -0.343 OA
ATOM     21  H1  UNL     1     -30.942  17.775  -5.127  1.00  0.00     0.219 HD
ENDBRANCH   2  20
BRANCH   4  22
HETATM   22  C13 UNL     1     -28.719  12.994  -4.204  1.00  0.00     0.094 C
HETATM   23  C14 UNL     1     -28.888  12.174  -2.993  1.00  0.00     0.026 C
HETATM   24  C15 UNL     1     -28.107  10.867  -3.257  1.00  0.00     0.002 C
HETATM   25  C16 UNL     1     -26.914  11.356  -3.989  1.00  0.00     0.002 C
HETATM   26  C17 UNL     1     -27.347  12.606  -4.747  1.00  0.00     0.026 C
ENDBRANCH   4  22
BRANCH   1  27
HETATM   27  C5  UNL     1     -27.766  17.724  -3.103  1.00  0.00     0.133 C
BRANCH  27  28
HETATM   28  C4  UNL     1     -27.073  18.477  -4.207  1.00  0.00     0.020 C
BRANCH  28  29
HETATM   29  C3  UNL     1     -26.058  19.401  -3.569  1.00  0.00     0.001 C
BRANCH  29  30
HETATM   30  C2  UNL     1     -26.087  19.366  -2.065  1.00  0.00    -0.004 C
HETATM   31  C1  UNL     1     -24.683  19.480  -1.517  1.00  0.00     0.005 C
ENDBRANCH  29  30
ENDBRANCH  28  29
ENDBRANCH  27  28
ENDBRANCH   1  27
TORSDOF 9
ENDMDL