MODEL 2
REMARK VINA RESULT: -8.283763271      1.828      2.213
REMARK  9 active torsions:
REMARK  status: ('A' for Active; 'I' for Inactive)
REMARK    1  A    between atoms: C2_2  and  C3_3
REMARK    2  A    between atoms: C3_3  and  N1_4
REMARK    3  A    between atoms: C4_5  and  O1_6
REMARK    4  A    between atoms: C5_8  and  N2_9
REMARK    5  A    between atoms: N3_11  and  C6_13
REMARK    6  A    between atoms: C11_18  and  O2_19
REMARK    7  A    between atoms: C14_24  and  S1_25
REMARK    8  A    between atoms: S1_25  and  C15_26
REMARK    9  A    between atoms: C15_26  and  C17_28
ROOT
HETATM    1  N1  UNL     1     -28.425  11.662  -3.914  1.00  0.00    -0.308 N
HETATM    2  C4  UNL     1     -29.538  10.973  -4.199  1.00  0.00     0.174 A
HETATM    3  C5  UNL     1     -30.575  11.903  -4.251  1.00  0.00     0.115 A
HETATM    4  C10 UNL     1     -30.073  13.167  -3.993  1.00  0.00     0.075 A
HETATM    5  C11 UNL     1     -30.612  14.432  -3.912  1.00  0.00     0.105 A
HETATM    6  C12 UNL     1     -29.802  15.545  -3.618  1.00  0.00     0.112 A
HETATM    7  C13 UNL     1     -30.360  16.858  -3.541  1.00  0.00     0.105 C
HETATM    8  N4  UNL     1     -30.827  17.901  -3.491  1.00  0.00    -0.191 NA
HETATM    9  C14 UNL     1     -28.471  15.311  -3.420  1.00  0.00     0.096 A
HETATM   10  N5  UNL     1     -27.948  14.052  -3.504  1.00  0.00    -0.335 N
ATOM     11  H5  UNL     1     -26.950  13.917  -3.351  1.00  0.00     0.168 HD
HETATM   12  C18 UNL     1     -28.719  12.988  -3.784  1.00  0.00     0.126 A
ENDROOT
BRANCH   5  13
HETATM   13  O2  UNL     1     -31.932  14.682  -4.106  1.00  0.00    -0.358 OA
ATOM     14  H2  UNL     1     -32.281  15.561  -4.195  1.00  0.00     0.217 HD
ENDBRANCH   5  13
BRANCH   9  15
HETATM   15  S1  UNL     1     -27.403  16.702  -3.026  1.00  0.00    -0.095 SA
BRANCH  15  16
HETATM   16  C15 UNL     1     -26.528  17.282  -4.494  1.00  0.00     0.150 C
HETATM   17  C16 UNL     1     -25.247  18.007  -4.166  1.00  0.00     0.033 C
BRANCH  16  18
HETATM   18  C17 UNL     1     -27.361  18.008  -5.450  1.00  0.00     0.187 C
HETATM   19  O3  UNL     1     -27.168  19.258  -5.584  1.00  0.00    -0.647 OA
HETATM   20  O4  UNL     1     -28.346  17.438  -6.223  1.00  0.00    -0.647 OA
ENDBRANCH  16  18
ENDBRANCH  15  16
ENDBRANCH   9  15
BRANCH   3  21
HETATM   21  N2  UNL     1     -31.909  11.590  -4.517  1.00  0.00    -0.300 N
HETATM   22  N3  UNL     1     -32.891  11.632  -3.743  1.00  0.00    -0.331 N
ATOM     23  H3  UNL     1     -32.800  11.923  -2.769  1.00  0.00     0.180 HD
ATOM     24  H2  UNL     1     -32.109  11.285  -5.470  1.00  0.00     0.186 HD
BRANCH  22  25
HETATM   25  C6  UNL     1     -34.181  11.241  -4.319  1.00  0.00     0.099 C
HETATM   26  C7  UNL     1     -35.357  11.533  -3.438  1.00  0.00     0.027 C
HETATM   27  C8  UNL     1     -36.006  12.266  -4.610  1.00  0.00     0.004 C
HETATM   28  C9  UNL     1     -34.649  12.389  -5.225  1.00  0.00     0.027 C
ENDBRANCH  22  25
ENDBRANCH   3  21
BRANCH   2  29
HETATM   29  O1  UNL     1     -29.617   9.604  -4.399  1.00  0.00    -0.344 OA
ATOM     30  H1  UNL     1     -28.885   8.998  -4.404  1.00  0.00     0.219 HD
ENDBRANCH   2  29
BRANCH   1  31
HETATM   31  C3  UNL     1     -27.097  11.135  -3.755  1.00  0.00     0.159 C
BRANCH  31  32
HETATM   32  C2  UNL     1     -26.069  11.900  -4.468  1.00  0.00    -0.017 C
HETATM   33  C1  UNL     1     -24.913  12.150  -3.877  1.00  0.00     0.008 C
ENDBRANCH  31  32
ENDBRANCH   1  31
TORSDOF 9
ENDMDL