MODEL 2
REMARK VINA RESULT: -9.931070631      6.388      9.341
REMARK  8 active torsions:
REMARK  status: ('A' for Active; 'I' for Inactive)
REMARK    1  A    between atoms: C1_4  and  N2_5
REMARK    2  A    between atoms: C1_4  and  C8_18
REMARK    3  A    between atoms: N3_7  and  C2_9
REMARK    4  A    between atoms: C5_12  and  N4_13
REMARK    5  A    between atoms: C12_22  and  N5_23
REMARK    6  A    between atoms: N5_23  and  N6_25
REMARK    7  A    between atoms: N6_25  and  C13_27
REMARK    8  A    between atoms: C16_30  and  N7_31
ROOT
HETATM    1  C8  UNL     1     -32.216  13.929  -4.354  1.00  0.00     0.079 A
HETATM    2  C9  UNL     1     -32.553  13.134  -5.422  1.00  0.00     0.033 A
HETATM    3  C10 UNL     1     -33.823  12.551  -5.520  1.00  0.00     0.006 A
HETATM    4  C11 UNL     1     -34.709  12.814  -4.499  1.00  0.00     0.050 A
HETATM    5  C12 UNL     1     -34.355  13.621  -3.423  1.00  0.00     0.120 A
HETATM    6  N8  UNL     1     -33.135  14.159  -3.365  1.00  0.00    -0.338 N
ATOM      7  H8  UNL     1     -32.883  14.751  -2.573  1.00  0.00     0.167 HD
ENDROOT
BRANCH   1   8
HETATM    8  C1  UNL     1     -30.907  14.532  -4.266  1.00  0.00     0.140 C
HETATM    9  N1  UNL     1     -30.878  15.843  -4.077  1.00  0.00    -0.383 N
ATOM     10  H12 UNL     1     -29.953  16.269  -4.015  1.00  0.00     0.157 HD
ATOM     11  H11 UNL     1     -31.795  16.289  -4.042  1.00  0.00     0.157 HD
BRANCH   8  12
HETATM   12  N2  UNL     1     -29.666  13.928  -4.315  1.00  0.00    -0.284 N
HETATM   13  N3  UNL     1     -28.864  13.777  -3.386  1.00  0.00    -0.299 N
ATOM     14  H3  UNL     1     -29.099  14.123  -2.456  1.00  0.00     0.187 HD
ATOM     15  H2  UNL     1     -29.378  13.564  -5.224  1.00  0.00     0.188 HD
BRANCH  13  16
HETATM   16  C2  UNL     1     -27.599  13.117  -3.603  1.00  0.00     0.048 A
HETATM   17  C3  UNL     1     -26.405  13.744  -3.393  1.00  0.00     0.033 A
HETATM   18  C4  UNL     1     -25.226  13.050  -3.582  1.00  0.00     0.038 A
HETATM   19  C5  UNL     1     -25.245  11.712  -3.987  1.00  0.00     0.103 A
HETATM   20  C6  UNL     1     -26.455  11.106  -4.191  1.00  0.00     0.038 A
HETATM   21  C7  UNL     1     -27.636  11.804  -4.001  1.00  0.00     0.033 A
BRANCH  19  22
HETATM   22  N4  UNL     1     -24.039  10.990  -4.185  1.00  0.00    -0.116 N
HETATM   23  O1  UNL     1     -23.056  11.496  -4.721  1.00  0.00    -0.532 OA
HETATM   24  O2  UNL     1     -23.964   9.660  -3.769  1.00  0.00    -0.532 OA
ENDBRANCH  19  22
ENDBRANCH  13  16
ENDBRANCH   8  12
ENDBRANCH   1   8
BRANCH   5  25
HETATM   25  N5  UNL     1     -35.356  13.801  -2.402  1.00  0.00    -0.285 N
ATOM     26  H5  UNL     1     -35.267  14.540  -1.705  1.00  0.00     0.188 HD
BRANCH  25  27
HETATM   27  N6  UNL     1     -36.470  12.922  -2.393  1.00  0.00    -0.299 N
ATOM     28  H6  UNL     1     -37.205  13.053  -3.089  1.00  0.00     0.187 HD
BRANCH  27  29
HETATM   29  C13 UNL     1     -36.599  11.869  -1.454  1.00  0.00     0.048 A
HETATM   30  C14 UNL     1     -35.995  10.643  -1.681  1.00  0.00     0.033 A
HETATM   31  C15 UNL     1     -36.127   9.603  -0.781  1.00  0.00     0.038 A
HETATM   32  C16 UNL     1     -36.859   9.722   0.380  1.00  0.00     0.103 A
HETATM   33  C17 UNL     1     -37.465  10.948   0.610  1.00  0.00     0.038 A
HETATM   34  C18 UNL     1     -37.331  11.986  -0.291  1.00  0.00     0.033 A
BRANCH  32  35
HETATM   35  N7  UNL     1     -36.995   8.643   1.299  1.00  0.00    -0.116 N
HETATM   36  O3  UNL     1     -38.026   7.949   1.228  1.00  0.00    -0.532 OA
HETATM   37  O4  UNL     1     -36.053   8.332   2.244  1.00  0.00    -0.532 OA
ENDBRANCH  32  35
ENDBRANCH  27  29
ENDBRANCH  25  27
ENDBRANCH   5  25
TORSDOF 8
ENDMDL