MODEL 5
REMARK VINA RESULT: -8.879072385      3.574      5.080
REMARK  8 active torsions:
REMARK  status: ('A' for Active; 'I' for Inactive)
REMARK    1  A    between atoms: C2_3  and  C14_26
REMARK    2  A    between atoms: N2_4  and  N3_6
REMARK    3  A    between atoms: N3_6  and  C3_8
REMARK    4  A    between atoms: C6_11  and  N4_12
REMARK    5  A    between atoms: N4_12  and  C7_14
REMARK    6  A    between atoms: C7_14  and  C8_19
REMARK    7  A    between atoms: N5_15  and  O1_17
REMARK    8  A    between atoms: C14_26  and  C15_28
ROOT
HETATM    1  N1  UNL     1     -26.616  15.741  -1.830  1.00  0.00    -0.190 NA
HETATM    2  C1  UNL     1     -26.660  16.598  -2.610  1.00  0.00     0.123 C
HETATM    3  C2  UNL     1     -26.723  17.653  -3.583  1.00  0.00     0.180 C
HETATM    4  N2  UNL     1     -27.854  18.107  -3.992  1.00  0.00    -0.287 N
ATOM      5  H2  UNL     1     -27.886  18.855  -4.684  1.00  0.00     0.188 HD
ENDROOT
BRANCH   3   6
HETATM    6  C14 UNL     1     -25.466  18.199  -4.085  1.00  0.00     0.227 C
HETATM    7  O3  UNL     1     -25.021  17.909  -5.204  1.00  0.00    -0.284 OA
BRANCH   6   8
HETATM    8  C15 UNL     1     -24.694  19.125  -3.244  1.00  0.00     0.058 A
HETATM    9  C16 UNL     1     -23.384  19.507  -3.363  1.00  0.00     0.023 A
HETATM   10  C17 UNL     1     -22.915  20.370  -2.461  1.00  0.00     0.009 A
HETATM   11  C18 UNL     1     -23.772  20.805  -1.486  1.00  0.00     0.050 A
HETATM   12  S2  UNL     1     -25.221  19.986  -1.869  1.00  0.00    -0.098 SA
ENDBRANCH   6   8
ENDBRANCH   3   6
BRANCH   4  13
HETATM   13  N3  UNL     1     -29.035  17.572  -3.487  1.00  0.00    -0.300 N
ATOM     14  H3  UNL     1     -29.481  18.046  -2.702  1.00  0.00     0.187 HD
BRANCH  13  15
HETATM   15  C3  UNL     1     -29.652  16.402  -4.003  1.00  0.00     0.048 A
HETATM   16  C4  UNL     1     -30.802  15.889  -3.426  1.00  0.00     0.033 A
HETATM   17  C5  UNL     1     -31.396  14.749  -3.925  1.00  0.00     0.032 A
HETATM   18  C6  UNL     1     -30.866  14.074  -5.020  1.00  0.00     0.033 A
HETATM   19  C12 UNL     1     -29.728  14.575  -5.599  1.00  0.00     0.032 A
HETATM   20  C13 UNL     1     -29.141  15.720  -5.088  1.00  0.00     0.033 A
BRANCH  18  21
HETATM   21  N4  UNL     1     -31.492  12.904  -5.515  1.00  0.00    -0.339 N
ATOM     22  H4  UNL     1     -31.594  12.780  -6.522  1.00  0.00     0.167 HD
BRANCH  21  23
HETATM   23  C7  UNL     1     -31.978  11.907  -4.642  1.00  0.00     0.161 C
HETATM   24  N5  UNL     1     -31.206  11.008  -4.158  1.00  0.00    -0.234 N
ATOM     25  H5  UNL     1     -31.612  10.311  -3.533  1.00  0.00     0.197 HD
BRANCH  24  26
HETATM   26  O1  UNL     1     -29.870  10.931  -4.430  1.00  0.00    -0.189 OA
HETATM   27  S1  UNL     1     -28.650  11.410  -3.287  1.00  0.00     0.125 SA
ENDBRANCH  24  26
BRANCH  23  28
HETATM   28  C8  UNL     1     -33.397  11.867  -4.262  1.00  0.00     0.120 A
HETATM   29  C9  UNL     1     -34.437  12.321  -5.071  1.00  0.00     0.043 A
HETATM   30  C10 UNL     1     -35.612  12.129  -4.399  1.00  0.00     0.027 A
HETATM   31  C11 UNL     1     -35.250  11.557  -3.187  1.00  0.00     0.142 A
HETATM   32  O2  UNL     1     -33.960  11.429  -3.167  1.00  0.00    -0.319 OA
ENDBRANCH  23  28
ENDBRANCH  21  23
ENDBRANCH  18  21
ENDBRANCH  13  15
ENDBRANCH   4  13
TORSDOF 8
ENDMDL