MODEL 1
REMARK VINA RESULT: -8.176272374      0.000      0.000
REMARK  8 active torsions:
REMARK  status: ('A' for Active; 'I' for Inactive)
REMARK    1  A    between atoms: N1_2  and  C2_4
REMARK    2  A    between atoms: C5_7  and  S1_8
REMARK    3  A    between atoms: S1_8  and  S2_9
REMARK    4  A    between atoms: S2_9  and  C6_10
REMARK    5  A    between atoms: C9_13  and  N2_14
REMARK       I    between atoms: N2_14  and  C10_16
REMARK       I    between atoms: C10_16  and  N5_23
REMARK    6  A    between atoms: N3_17  and  N4_19
REMARK    7  A    between atoms: N4_19  and  O1_21
REMARK    8  A    between atoms: C12_27  and  N7_28
ROOT
HETATM    1  N2  UNL     1     -28.773  12.715  -2.697  1.00  0.00    -0.187 N
ATOM      2  H2  UNL     1     -28.632  12.333  -1.761  1.00  0.00     0.184 HD
HETATM    3  C10 UNL     1     -27.684  13.366  -3.343  1.00  0.00     0.707 C
HETATM    4  N3  UNL     1     -27.332  14.525  -2.961  1.00  0.00    -0.112 N
ATOM      5  H3  UNL     1     -27.862  14.936  -2.193  1.00  0.00     0.207 HD
HETATM    6  N5  UNL     1     -27.016  12.720  -4.393  1.00  0.00    -0.124 N
ATOM      7  H5  UNL     1     -27.010  13.170  -5.308  1.00  0.00     0.197 HD
HETATM    8  C11 UNL     1     -26.352  11.488  -4.258  1.00  0.00     0.196 C
HETATM    9  N6  UNL     1     -25.792  10.476  -4.136  1.00  0.00    -0.171 NA
ENDROOT
BRANCH   1  10
HETATM   10  C9  UNL     1     -30.038  12.579  -3.304  1.00  0.00     0.082 A
HETATM   11  C8  UNL     1     -30.866  13.705  -3.264  1.00  0.00     0.034 A
HETATM   12  C7  UNL     1     -32.132  13.664  -3.807  1.00  0.00     0.022 A
HETATM   13  C6  UNL     1     -32.640  12.530  -4.406  1.00  0.00     0.014 A
HETATM   14  C13 UNL     1     -31.829  11.428  -4.445  1.00  0.00     0.057 A
HETATM   15  C12 UNL     1     -30.527  11.456  -3.894  1.00  0.00     0.131 A
BRANCH  13  16
HETATM   16  S2  UNL     1     -34.290  12.518  -5.098  1.00  0.00    -0.052 SA
BRANCH  16  17
HETATM   17  S1  UNL     1     -35.668  13.131  -3.598  1.00  0.00    -0.053 SA
BRANCH  17  18
HETATM   18  C5  UNL     1     -35.862  11.770  -2.457  1.00  0.00     0.012 A
HETATM   19  C4  UNL     1     -35.235  10.574  -2.670  1.00  0.00     0.021 A
HETATM   20  C3  UNL     1     -35.432   9.556  -1.736  1.00  0.00     0.030 A
HETATM   21  C2  UNL     1     -36.230   9.733  -0.629  1.00  0.00     0.027 A
HETATM   22  C15 UNL     1     -36.854  10.936  -0.424  1.00  0.00     0.030 A
HETATM   23  C14 UNL     1     -36.669  11.965  -1.345  1.00  0.00     0.021 A
BRANCH  21  24
HETATM   24  N1  UNL     1     -36.403   8.667   0.298  1.00  0.00    -0.394 N
HETATM   25  C1  UNL     1     -36.570   8.866   1.700  1.00  0.00     0.146 C
ATOM     26  H1  UNL     1     -36.408   7.712  -0.060  1.00  0.00     0.159 HD
ENDBRANCH  21  24
ENDBRANCH  17  18
ENDBRANCH  16  17
ENDBRANCH  13  16
BRANCH  15  27
HETATM   27  N7  UNL     1     -29.765  10.287  -3.973  1.00  0.00    -0.113 N
HETATM   28  O2  UNL     1     -29.646   9.641  -5.008  1.00  0.00    -0.532 OA
HETATM   29  O3  UNL     1     -29.142   9.815  -2.842  1.00  0.00    -0.532 OA
ENDBRANCH  15  27
ENDBRANCH   1  10
BRANCH   4  30
HETATM   30  N4  UNL     1     -26.301  15.285  -3.484  1.00  0.00    -0.196 N
ATOM     31  H4  UNL     1     -26.467  16.228  -3.836  1.00  0.00     0.216 HD
BRANCH  30  32
HETATM   32  O1  UNL     1     -25.156  14.776  -3.510  1.00  0.00    -0.274 OA
ATOM     33  H1  UNL     1     -25.051  13.948  -3.962  1.00  0.00     0.246 HD
ENDBRANCH  30  32
ENDBRANCH   4  30
TORSDOF 8
ENDMDL