MODEL 5
REMARK VINA RESULT: -7.635621630      1.351      1.735
REMARK  10 active torsions:
REMARK  status: ('A' for Active; 'I' for Inactive)
REMARK    1  A    between atoms: N1_1  and  C1_4
REMARK    2  A    between atoms: C2_9  and  C3_10
REMARK    3  A    between atoms: C3_10  and  O1_11
REMARK    4  A    between atoms: C3_10  and  C4_13
REMARK    5  A    between atoms: C4_13  and  N4_14
REMARK    6  A    between atoms: N4_14  and  C5_16
REMARK    7  A    between atoms: C7_20  and  N6_21
REMARK    8  A    between atoms: N6_21  and  C8_23
REMARK    9  A    between atoms: C10_26  and  C11_27
REMARK   10  A    between atoms: C11_27  and  C12_29
ROOT
HETATM    1  C5  UNL     1     -23.654  21.565  -1.997  1.00  0.00     0.678 A
HETATM    2  N5  UNL     1     -23.558  21.215  -3.291  1.00  0.00    -0.198 N
ATOM      3  H5  UNL     1     -23.063  21.890  -3.873  1.00  0.00     0.183 HD
HETATM    4  C6  UNL     1     -23.998  20.132  -3.954  1.00  0.00     0.154 A
HETATM    5  C7  UNL     1     -24.692  19.042  -3.477  1.00  0.00     0.122 A
HETATM    6  N8  UNL     1     -25.086  18.876  -2.190  1.00  0.00    -0.337 N
ATOM      7  H8  UNL     1     -25.631  18.030  -2.019  1.00  0.00     0.168 HD
HETATM    8  C14 UNL     1     -24.880  19.638  -1.101  1.00  0.00     0.199 A
HETATM    9  N9  UNL     1     -24.258  20.853  -1.031  1.00  0.00    -0.188 N
ATOM     10  H9  UNL     1     -24.251  21.284  -0.107  1.00  0.00     0.185 HD
ENDROOT
BRANCH   1  11
HETATM   11  N4  UNL     1     -23.136  22.675  -1.596  1.00  0.00    -0.223 N
ATOM     12  H4  UNL     1     -22.224  22.991  -1.926  1.00  0.00     0.177 HD
BRANCH  11  13
HETATM   13  C4  UNL     1     -23.916  23.454  -0.653  1.00  0.00     0.177 C
BRANCH  13  14
HETATM   14  C3  UNL     1     -23.925  24.925  -1.004  1.00  0.00     0.205 C
BRANCH  14  15
HETATM   15  C2  UNL     1     -24.928  25.687  -0.253  1.00  0.00     0.143 A
HETATM   16  N3  UNL     1     -25.067  25.647   1.089  1.00  0.00    -0.272 N
HETATM   17  N2  UNL     1     -26.052  26.439   1.476  1.00  0.00    -0.131 N
ATOM     18  H3  UNL     1     -24.492  25.085   1.716  1.00  0.00     0.189 HD
HETATM   19  C1  UNL     1     -26.574  27.010   0.381  1.00  0.00     0.692 A
ATOM     20  H2  UNL     1     -26.361  26.589   2.437  1.00  0.00     0.205 HD
HETATM   21  N10 UNL     1     -25.879  26.545  -0.679  1.00  0.00    -0.176 N
ATOM     22  H10 UNL     1     -26.047  26.801  -1.652  1.00  0.00     0.185 HD
BRANCH  19  23
HETATM   23  N1  UNL     1     -27.555  27.846   0.358  1.00  0.00    -0.233 N
ATOM     24  H12 UNL     1     -28.342  27.887   1.006  1.00  0.00     0.174 HD
ATOM     25  H11 UNL     1     -27.686  28.596  -0.320  1.00  0.00     0.174 HD
ENDBRANCH  19  23
ENDBRANCH  14  15
BRANCH  14  26
HETATM   26  O1  UNL     1     -24.076  25.063  -2.381  1.00  0.00    -0.386 OA
ATOM     27  H1  UNL     1     -24.521  24.321  -2.773  1.00  0.00     0.210 HD
ENDBRANCH  14  26
ENDBRANCH  13  14
ENDBRANCH  11  13
ENDBRANCH   1  11
BRANCH   5  28
HETATM   28  N6  UNL     1     -24.991  18.102  -4.315  1.00  0.00    -0.341 N
ATOM     29  H6  UNL     1     -24.335  17.832  -5.048  1.00  0.00     0.167 HD
BRANCH  28  30
HETATM   30  C8  UNL     1     -26.278  17.437  -4.193  1.00  0.00     0.041 A
HETATM   31  C9  UNL     1     -26.326  16.105  -3.897  1.00  0.00     0.080 A
HETATM   32  S1  UNL     1     -27.997  15.779  -3.858  1.00  0.00    -0.096 SA
HETATM   33  C10 UNL     1     -28.592  17.335  -4.217  1.00  0.00     0.062 A
HETATM   34  C13 UNL     1     -27.449  18.077  -4.359  1.00  0.00     0.053 A
BRANCH  33  35
HETATM   35  C11 UNL     1     -29.988  17.761  -4.341  1.00  0.00     0.253 C
HETATM   36  O2  UNL     1     -30.898  16.931  -4.317  1.00  0.00    -0.281 OA
BRANCH  35  37
HETATM   37  C12 UNL     1     -30.267  19.169  -4.492  1.00  0.00     0.306 C
HETATM   38  N7  UNL     1     -30.617  19.689  -5.767  1.00  0.00    -0.054 NA
HETATM   39  O3  UNL     1     -30.201  19.929  -3.499  1.00  0.00    -0.267 OA
ENDBRANCH  35  37
ENDBRANCH  33  35
ENDBRANCH  28  30
ENDBRANCH   5  28
TORSDOF 10
ENDMDL