MODEL 3
REMARK VINA RESULT: -5.774204730      1.988      4.209
REMARK  11 active torsions:
REMARK  status: ('A' for Active; 'I' for Inactive)
REMARK    1  A    between atoms: S1_2  and  C2_3
REMARK    2  A    between atoms: C2_3  and  C3_4
REMARK    3  A    between atoms: C3_4  and  N1_5
REMARK    4  A    between atoms: C3_4  and  C4_9
REMARK       I    between atoms: C4_9  and  N2_11
REMARK    5  A    between atoms: N2_11  and  C5_13
REMARK    6  A    between atoms: C5_13  and  C6_14
REMARK    7  A    between atoms: C11_21  and  O4_22
REMARK    8  A    between atoms: C12_24  and  O5_25
REMARK    9  A    between atoms: C14_29  and  C15_30
REMARK   10  A    between atoms: C15_30  and  O7_31
REMARK   11  A    between atoms: C16_33  and  O8_34
ROOT
HETATM    1  C6  UNL     1     -24.589  28.084  -2.645  1.00  0.00     0.153 C
HETATM    2  O2  UNL     1     -24.622  27.596  -3.945  1.00  0.00    -0.334 OA
HETATM    3  C7  UNL     1     -23.510  26.838  -4.196  1.00  0.00     0.159 C
HETATM    4  C8  UNL     1     -22.784  27.216  -5.497  1.00  0.00     0.078 C
HETATM    5  C9  UNL     1     -23.812  25.351  -4.355  1.00  0.00     0.078 C
HETATM    6  O3  UNL     1     -22.667  26.976  -3.110  1.00  0.00    -0.344 OA
HETATM    7  C10 UNL     1     -23.467  27.310  -2.026  1.00  0.00     0.199 C
HETATM    8  C11 UNL     1     -23.944  26.103  -1.272  1.00  0.00     0.190 C
HETATM    9  C12 UNL     1     -24.750  26.653  -0.110  1.00  0.00     0.143 C
HETATM   10  C13 UNL     1     -25.733  25.628   0.405  1.00  0.00     0.213 C
HETATM   11  O6  UNL     1     -26.651  26.153  -0.479  1.00  0.00    -0.369 OA
HETATM   12  C14 UNL     1     -25.962  27.392  -0.594  1.00  0.00     0.146 C
HETATM   13  C16 UNL     1     -25.912  27.926  -1.947  1.00  0.00     0.201 C
ENDROOT
BRANCH   1  14
HETATM   14  C5  UNL     1     -24.214  29.533  -2.573  1.00  0.00     0.107 C
BRANCH  14  15
HETATM   15  N2  UNL     1     -23.595  30.055  -1.427  1.00  0.00    -0.336 N
HETATM   16  C4  UNL     1     -24.046  30.936  -0.435  1.00  0.00     0.252 C
HETATM   17  O1  UNL     1     -25.185  31.414  -0.467  1.00  0.00    -0.271 OA
ATOM     18  H2  UNL     1     -22.636  29.732  -1.291  1.00  0.00     0.168 HD
BRANCH  16  19
HETATM   19  C3  UNL     1     -23.194  31.347   0.706  1.00  0.00     0.284 C
BRANCH  19  20
HETATM   20  C2  UNL     1     -23.723  32.578   1.400  1.00  0.00     0.116 C
BRANCH  20  21
HETATM   21  S1  UNL     1     -24.392  32.176   3.029  1.00  0.00    -0.171 SA
HETATM   22  C1  UNL     1     -26.149  31.805   2.903  1.00  0.00     0.089 C
ENDBRANCH  20  21
ENDBRANCH  19  20
BRANCH  19  23
HETATM   23  N1  UNL     1     -23.096  30.284   1.681  1.00  0.00    -0.066 N
ATOM     24  H13 UNL     1     -22.181  29.833   1.680  1.00  0.00     0.275 HD
ATOM     25  H12 UNL     1     -23.078  30.630   2.641  1.00  0.00     0.275 HD
ATOM     26  H11 UNL     1     -23.858  29.626   1.515  1.00  0.00     0.275 HD
ENDBRANCH  19  23
ENDBRANCH  16  19
ENDBRANCH  14  15
ENDBRANCH   1  14
BRANCH  13  27
HETATM   27  O8  UNL     1     -26.646  29.105  -2.011  1.00  0.00    -0.389 OA
ATOM     28  H8  UNL     1     -26.076  29.861  -1.927  1.00  0.00     0.210 HD
ENDBRANCH  13  27
BRANCH   8  29
HETATM   29  O4  UNL     1     -22.848  25.429  -0.744  1.00  0.00    -0.390 OA
ATOM     30  H4  UNL     1     -22.979  25.299   0.187  1.00  0.00     0.210 HD
ENDBRANCH   8  29
BRANCH  12  31
HETATM   31  C15 UNL     1     -26.477  28.279   0.517  1.00  0.00     0.208 C
BRANCH  31  32
HETATM   32  O7  UNL     1     -27.864  28.448   0.487  1.00  0.00    -0.398 OA
ATOM     33  H7  UNL     1     -28.161  29.189   1.001  1.00  0.00     0.209 HD
ENDBRANCH  31  32
ENDBRANCH  12  31
BRANCH   9  34
HETATM   34  O5  UNL     1     -24.006  27.210   0.893  1.00  0.00    -0.382 OA
ATOM     35  H5  UNL     1     -24.045  26.748   1.723  1.00  0.00     0.211 HD
ENDBRANCH   9  34
TORSDOF 11
ENDMDL