MODEL 1
REMARK VINA RESULT: -5.924881239      0.000      0.000
REMARK  10 active torsions:
REMARK  status: ('A' for Active; 'I' for Inactive)
REMARK    1  A    between atoms: C2_2  and  N1_3
REMARK    2  A    between atoms: N1_3  and  C3_5
REMARK    3  A    between atoms: C5_11  and  N4_12
REMARK    4  A    between atoms: N4_12  and  C6_14
REMARK    5  A    between atoms: C6_14  and  C7_15
REMARK    6  A    between atoms: C6_14  and  C8_20
REMARK    7  A    between atoms: C7_15  and  N5_16
REMARK    8  A    between atoms: C8_20  and  C9_21
REMARK    9  A    between atoms: C9_21  and  N6_22
REMARK   10  A    between atoms: C13_30  and  N9_31
ROOT
HETATM    1  C6  UNL     1     -26.300  27.017  -0.985  1.00  0.00     0.126 C
ENDROOT
BRANCH   1   2
HETATM    2  N4  UNL     1     -24.907  26.934  -1.102  1.00  0.00    -0.219 N
ATOM      3  H4  UNL     1     -24.438  26.796  -0.207  1.00  0.00     0.178 HD
BRANCH   2   4
HETATM    4  C5  UNL     1     -24.108  26.992  -2.077  1.00  0.00     0.693 A
HETATM    5  N3  UNL     1     -24.374  26.338  -3.208  1.00  0.00    -0.187 N
HETATM    6  C4  UNL     1     -23.530  26.394  -4.253  1.00  0.00     0.215 A
ATOM      7  H3  UNL     1     -25.230  25.789  -3.282  1.00  0.00     0.185 HD
HETATM    8  N2  UNL     1     -22.402  27.129  -4.128  1.00  0.00    -0.187 N
HETATM    9  C3  UNL     1     -22.096  27.802  -3.007  1.00  0.00     0.693 A
ATOM     10  H2  UNL     1     -21.758  27.175  -4.916  1.00  0.00     0.185 HD
HETATM   11  N11 UNL     1     -22.966  27.719  -1.992  1.00  0.00    -0.022 N
ATOM     12  H11 UNL     1     -22.764  28.220  -1.127  1.00  0.00     0.203 HD
BRANCH   9  13
HETATM   13  N1  UNL     1     -21.007  28.480  -2.967  1.00  0.00    -0.226 N
ATOM     14  H1  UNL     1     -20.135  27.968  -3.106  1.00  0.00     0.177 HD
BRANCH  13  15
HETATM   15  C2  UNL     1     -20.912  29.883  -2.746  1.00  0.00     0.133 C
HETATM   16  C1  UNL     1     -19.652  30.309  -2.065  1.00  0.00     0.027 C
ENDBRANCH  13  15
ENDBRANCH   9  13
ENDBRANCH   2   4
ENDBRANCH   1   2
BRANCH   1  17
HETATM   17  C7  UNL     1     -26.937  26.081   0.027  1.00  0.00     0.255 C
BRANCH  17  18
HETATM   18  N5  UNL     1     -26.142  25.976   1.233  1.00  0.00    -0.077 N
ATOM     19  H53 UNL     1     -25.993  25.002   1.497  1.00  0.00     0.274 HD
ATOM     20  H52 UNL     1     -25.172  26.244   1.063  1.00  0.00     0.274 HD
ATOM     21  H51 UNL     1     -26.547  26.512   2.001  1.00  0.00     0.274 HD
ENDBRANCH  17  18
ENDBRANCH   1  17
BRANCH   1  22
HETATM   22  C8  UNL     1     -26.814  28.424  -0.775  1.00  0.00     0.048 C
BRANCH  22  23
HETATM   23  C9  UNL     1     -25.818  29.484  -0.545  1.00  0.00     0.136 C
BRANCH  23  24
HETATM   24  N6  UNL     1     -25.531  29.859   0.824  1.00  0.00    -0.293 N
HETATM   25  C10 UNL     1     -24.788  29.231   1.745  1.00  0.00     0.330 A
HETATM   26  O1  UNL     1     -24.182  28.145   1.589  1.00  0.00    -0.246 OA
HETATM   27  N7  UNL     1     -24.751  29.893   2.903  1.00  0.00    -0.287 N
HETATM   28  C11 UNL     1     -24.045  29.524   4.139  1.00  0.00     0.163 C
HETATM   29  C12 UNL     1     -25.488  31.001   2.775  1.00  0.00     0.157 A
HETATM   30  N8  UNL     1     -25.797  31.990   3.589  1.00  0.00    -0.174 N
HETATM   31  C15 UNL     1     -25.981  30.982   1.469  1.00  0.00     0.122 A
HETATM   32  C13 UNL     1     -26.599  33.030   3.221  1.00  0.00     0.678 A
ATOM     33  H8  UNL     1     -25.419  31.978   4.536  1.00  0.00     0.186 HD
HETATM   34  N10 UNL     1     -27.106  33.047   1.950  1.00  0.00    -0.179 N
HETATM   35  C14 UNL     1     -26.781  32.030   1.131  1.00  0.00     0.147 A
ATOM     36  H10 UNL     1     -27.710  33.806   1.634  1.00  0.00     0.185 HD
HETATM   37  S1  UNL     1     -27.449  32.057  -0.365  1.00  0.00    -0.057 SA
BRANCH  32  38
HETATM   38  N9  UNL     1     -26.865  33.920   3.989  1.00  0.00    -0.234 N
ATOM     39  H92 UNL     1     -27.584  33.784   4.700  1.00  0.00     0.174 HD
ATOM     40  H91 UNL     1     -26.384  34.819   3.948  1.00  0.00     0.174 HD
ENDBRANCH  32  38
ENDBRANCH  23  24
ENDBRANCH  22  23
ENDBRANCH   1  22
TORSDOF 10
ENDMDL