MODEL 3
REMARK VINA RESULT: -7.158489159      1.452      2.338
REMARK  8 active torsions:
REMARK  status: ('A' for Active; 'I' for Inactive)
REMARK    1  A    between atoms: C4_11  and  C5_12
REMARK    2  A    between atoms: C4_11  and  C7_16
REMARK    3  A    between atoms: C5_12  and  C6_13
REMARK    4  A    between atoms: C9_18  and  N6_19
REMARK    5  A    between atoms: N6_19  and  C10_21
REMARK    6  A    between atoms: C10_21  and  C11_22
REMARK    7  A    between atoms: C11_22  and  N7_23
REMARK    8  A    between atoms: C16_31  and  N9_32
ROOT
HETATM    1  C7  UNL     1     -24.752  28.762   1.831  1.00  0.00     0.079 A
HETATM    2  C8  UNL     1     -25.417  29.383   0.800  1.00  0.00     0.079 A
HETATM    3  C9  UNL     1     -25.931  28.607  -0.218  1.00  0.00     0.118 A
HETATM    4  N8  UNL     1     -25.790  27.293  -0.208  1.00  0.00    -0.177 N
ATOM      5  H8  UNL     1     -26.177  26.734  -0.969  1.00  0.00     0.185 HD
HETATM    6  C16 UNL     1     -25.140  26.693   0.803  1.00  0.00     0.677 A
HETATM    7  N10 UNL     1     -24.631  27.447   1.808  1.00  0.00    -0.191 N
ATOM      8  H10 UNL     1     -24.139  26.983   2.572  1.00  0.00     0.184 HD
ENDROOT
BRANCH   1   9
HETATM    9  C4  UNL     1     -24.181  29.606   2.955  1.00  0.00     0.164 A
HETATM   10  N1  UNL     1     -23.899  30.928   2.450  1.00  0.00    -0.327 N
HETATM   11  C1  UNL     1     -22.830  31.177   1.497  1.00  0.00     0.155 C
HETATM   12  C2  UNL     1     -24.658  32.075   2.859  1.00  0.00     0.194 A
HETATM   13  N2  UNL     1     -24.384  33.364   2.329  1.00  0.00    -0.063 NA
HETATM   14  N3  UNL     1     -25.603  31.958   3.718  1.00  0.00    -0.305 N
HETATM   15  C3  UNL     1     -25.916  30.694   4.271  1.00  0.00     0.192 A
ATOM     16  H3  UNL     1     -26.133  32.781   4.004  1.00  0.00     0.171 HD
HETATM   17  N4  UNL     1     -26.956  30.554   5.230  1.00  0.00    -0.063 NA
HETATM   18  N5  UNL     1     -25.260  29.675   3.908  1.00  0.00    -0.332 N
ATOM     19  H5  UNL     1     -25.528  28.792   4.343  1.00  0.00     0.165 HD
BRANCH   9  20
HETATM   20  C5  UNL     1     -23.015  28.932   3.571  1.00  0.00     0.174 C
BRANCH  20  21
HETATM   21  C6  UNL     1     -22.460  29.554   4.776  1.00  0.00     0.177 C
HETATM   22  O1  UNL     1     -22.955  29.449   5.912  1.00  0.00    -0.648 OA
HETATM   23  O2  UNL     1     -21.286  30.342   4.720  1.00  0.00    -0.648 OA
ENDBRANCH  20  21
ENDBRANCH   9  20
ENDBRANCH   1   9
BRANCH   3  24
HETATM   24  N6  UNL     1     -26.547  29.216  -1.171  1.00  0.00    -0.374 N
ATOM     25  H6  UNL     1     -27.367  29.770  -0.925  1.00  0.00     0.161 HD
BRANCH  24  26
HETATM   26  C10 UNL     1     -26.165  29.172  -2.557  1.00  0.00     0.140 C
BRANCH  26  27
HETATM   27  C11 UNL     1     -24.889  29.955  -2.757  1.00  0.00     0.136 C
BRANCH  27  28
HETATM   28  N7  UNL     1     -23.826  29.213  -3.324  1.00  0.00    -0.407 N
HETATM   29  C12 UNL     1     -23.991  27.811  -3.452  1.00  0.00     0.143 C
HETATM   30  C13 UNL     1     -23.170  27.005  -2.475  1.00  0.00     0.187 C
HETATM   31  O3  UNL     1     -21.851  27.413  -2.420  1.00  0.00    -0.388 OA
HETATM   32  C14 UNL     1     -21.559  28.501  -3.206  1.00  0.00     0.187 C
HETATM   33  C15 UNL     1     -22.517  29.663  -3.000  1.00  0.00     0.143 C
ENDBRANCH  27  28
ENDBRANCH  26  27
ENDBRANCH  24  26
ENDBRANCH   3  24
BRANCH   6  34
HETATM   34  N9  UNL     1     -24.979  25.411   0.850  1.00  0.00    -0.234 N
ATOM     35  H92 UNL     1     -25.419  24.838   0.130  1.00  0.00     0.174 HD
ATOM     36  H91 UNL     1     -24.430  24.962   1.582  1.00  0.00     0.174 HD
ENDBRANCH   6  34
TORSDOF 8
ENDMDL