MODEL 2
REMARK VINA RESULT: -7.957918107      1.051      1.166
REMARK  8 active torsions:
REMARK  status: ('A' for Active; 'I' for Inactive)
REMARK    1  A    between atoms: N1_1  and  C1_4
REMARK    2  A    between atoms: C1_4  and  N2_5
REMARK    3  A    between atoms: C1_4  and  C12_24
REMARK    4  A    between atoms: N2_5  and  C2_7
REMARK    5  A    between atoms: C2_7  and  C3_8
REMARK    6  A    between atoms: C3_8  and  N3_9
REMARK    7  A    between atoms: C5_13  and  C6_14
REMARK       I    between atoms: C6_14  and  N5_16
REMARK    8  A    between atoms: C12_24  and  C13_28
ROOT
HETATM    1  C1  UNL     1     -24.764  26.474  -0.500  1.00  0.00     0.122 C
ENDROOT
BRANCH   1   2
HETATM    2  N1  UNL     1     -24.904  26.851  -1.752  1.00  0.00    -0.384 N
ATOM      3  H12 UNL     1     -24.096  26.770  -2.369  1.00  0.00     0.157 HD
ATOM      4  H11 UNL     1     -25.822  27.203  -2.023  1.00  0.00     0.157 HD
ENDBRANCH   1   2
BRANCH   1   5
HETATM    5  N2  UNL     1     -23.565  25.855  -0.167  1.00  0.00    -0.373 N
ATOM      6  H2  UNL     1     -22.922  26.278   0.501  1.00  0.00     0.161 HD
BRANCH   5   7
HETATM    7  C2  UNL     1     -23.258  24.578  -0.805  1.00  0.00     0.141 C
BRANCH   7   8
HETATM    8  C3  UNL     1     -23.869  23.424  -0.066  1.00  0.00     0.148 C
BRANCH   8   9
HETATM    9  N3  UNL     1     -23.813  22.266  -0.926  1.00  0.00    -0.349 N
HETATM   10  C4  UNL     1     -22.916  21.276  -0.800  1.00  0.00     0.183 A
HETATM   11  N4  UNL     1     -23.163  20.368  -1.770  1.00  0.00    -0.347 N
HETATM   12  C5  UNL     1     -24.199  20.753  -2.515  1.00  0.00     0.117 A
ATOM     13  H4  UNL     1     -22.631  19.509  -1.911  1.00  0.00     0.167 HD
HETATM   14  C11 UNL     1     -24.605  21.963  -1.968  1.00  0.00     0.127 A
BRANCH  12  15
HETATM   15  C6  UNL     1     -24.791  20.066  -3.657  1.00  0.00     0.271 C
HETATM   16  O1  UNL     1     -24.546  20.484  -4.840  1.00  0.00    -0.266 OA
HETATM   17  N5  UNL     1     -25.635  18.947  -3.559  1.00  0.00    -0.344 N
HETATM   18  C7  UNL     1     -26.175  18.331  -4.744  1.00  0.00     0.145 C
HETATM   19  C10 UNL     1     -25.977  18.394  -2.286  1.00  0.00     0.145 C
HETATM   20  C8  UNL     1     -27.634  18.059  -4.492  1.00  0.00     0.133 C
HETATM   21  N6  UNL     1     -27.898  17.265  -3.337  1.00  0.00    -0.418 N
HETATM   22  C9  UNL     1     -26.825  17.142  -2.408  1.00  0.00     0.133 C
ATOM     23  H6  UNL     1     -28.801  16.814  -3.186  1.00  0.00     0.153 HD
ENDBRANCH  12  15
ENDBRANCH   8   9
ENDBRANCH   7   8
ENDBRANCH   5   7
ENDBRANCH   1   5
BRANCH   1  24
HETATM   24  C12 UNL     1     -25.854  26.732   0.409  1.00  0.00     0.085 C
HETATM   25  N7  UNL     1     -26.755  25.781   0.483  1.00  0.00    -0.395 N
ATOM     26  H72 UNL     1     -26.660  24.933  -0.078  1.00  0.00     0.156 HD
ATOM     27  H71 UNL     1     -27.525  25.964   1.125  1.00  0.00     0.156 HD
BRANCH  24  28
HETATM   28  C13 UNL     1     -25.990  27.944   1.210  1.00  0.00     0.057 A
HETATM   29  C14 UNL     1     -26.894  28.966   1.091  1.00  0.00     0.126 A
HETATM   30  N8  UNL     1     -26.612  29.851   2.062  1.00  0.00    -0.288 N
HETATM   31  N9  UNL     1     -25.601  29.465   2.780  1.00  0.00    -0.069 N
ATOM     32  H8  UNL     1     -27.128  30.718   2.215  1.00  0.00     0.187 HD
HETATM   33  C15 UNL     1     -24.993  30.053   3.845  1.00  0.00     0.699 A
HETATM   34  C17 UNL     1     -25.160  28.267   2.296  1.00  0.00     0.160 A
HETATM   35  N10 UNL     1     -25.442  31.177   4.265  1.00  0.00    -0.233 N
HETATM   36  N11 UNL     1     -23.958  29.462   4.431  1.00  0.00    -0.186 N
ATOM     37 2H10 UNL     1     -26.237  31.631   3.815  1.00  0.00     0.174 HD
ATOM     38 1H10 UNL     1     -24.987  31.618   5.064  1.00  0.00     0.174 HD
HETATM   39  C16 UNL     1     -23.524  28.284   3.954  1.00  0.00     0.199 A
ATOM     40  H11 UNL     1     -23.498  29.896   5.230  1.00  0.00     0.185 HD
HETATM   41  N12 UNL     1     -24.112  27.699   2.909  1.00  0.00    -0.335 N
ATOM     42  H12 UNL     1     -23.758  26.804   2.571  1.00  0.00     0.168 HD
ENDBRANCH  24  28
ENDBRANCH   1  24
TORSDOF 8
ENDMDL