MODEL 1
REMARK VINA RESULT: -7.837216619      0.000      0.000
REMARK  8 active torsions:
REMARK  status: ('A' for Active; 'I' for Inactive)
REMARK    1  A    between atoms: S1_2  and  C2_3
REMARK    2  A    between atoms: C2_3  and  C3_4
REMARK       I    between atoms: C3_4  and  N1_6
REMARK    3  A    between atoms: N1_6  and  N2_8
REMARK       I    between atoms: N2_8  and  C4_10
REMARK    4  A    between atoms: C4_10  and  C5_12
REMARK    5  A    between atoms: C7_19  and  N5_20
REMARK    6  A    between atoms: N5_20  and  N6_22
REMARK    7  A    between atoms: C10_27  and  C11_28
REMARK    8  A    between atoms: C11_28  and  C12_29
ROOT
HETATM    1  C5  UNL     1     -23.078  21.758  -2.409  1.00  0.00     0.394 C
HETATM    2  N3  UNL     1     -22.778  21.274  -1.091  1.00  0.00    -0.029 N
ATOM      3  H31 UNL     1     -21.832  21.526  -0.804  1.00  0.00     0.282 HD
ATOM      4  H32 UNL     1     -22.680  20.259  -1.076  1.00  0.00     0.282 HD
HETATM    5  C6  UNL     1     -23.761  21.726  -0.137  1.00  0.00     0.374 C
HETATM    6  N4  UNL     1     -23.833  23.168  -0.161  1.00  0.00    -0.201 N
ATOM      7  H4  UNL     1     -24.023  23.646   0.720  1.00  0.00     0.179 HD
HETATM    8  C7  UNL     1     -23.675  23.892  -1.206  1.00  0.00     0.693 C
HETATM    9  N11 UNL     1     -23.425  23.170  -2.428  1.00  0.00    -0.187 N
ATOM     10  H11 UNL     1     -23.492  23.658  -3.322  1.00  0.00     0.180 HD
ENDROOT
BRANCH   8  11
HETATM   11  N5  UNL     1     -23.756  25.296  -1.172  1.00  0.00    -0.112 N
ATOM     12  H5  UNL     1     -23.140  25.827  -1.788  1.00  0.00     0.207 HD
BRANCH  11  13
HETATM   13  N6  UNL     1     -24.615  25.998  -0.359  1.00  0.00    -0.191 N
HETATM   14  C8  UNL     1     -25.898  26.274  -0.604  1.00  0.00     0.154 A
HETATM   15  C9  UNL     1     -26.697  27.016   0.272  1.00  0.00     0.110 A
HETATM   16  N7  UNL     1     -26.108  27.451   1.396  1.00  0.00    -0.353 N
HETATM   17  C10 UNL     1     -24.813  27.190   1.675  1.00  0.00     0.103 A
ATOM     18  H7  UNL     1     -26.655  27.995   2.063  1.00  0.00     0.166 HD
HETATM   19  N10 UNL     1     -24.112  26.472   0.787  1.00  0.00    -0.267 N
ATOM     20  H10 UNL     1     -23.134  26.274   0.997  1.00  0.00     0.190 HD
BRANCH  17  21
HETATM   21  C11 UNL     1     -24.181  27.688   2.923  1.00  0.00     0.136 C
BRANCH  21  22
HETATM   22  C12 UNL     1     -24.080  29.149   2.982  1.00  0.00     0.032 A
HETATM   23  C13 UNL     1     -24.691  29.984   3.886  1.00  0.00     0.114 A
HETATM   24  N8  UNL     1     -24.362  31.262   3.625  1.00  0.00    -0.360 N
HETATM   25  C14 UNL     1     -23.545  31.244   2.560  1.00  0.00     0.180 A
ATOM     26  H8  UNL     1     -24.674  32.087   4.137  1.00  0.00     0.166 HD
HETATM   27  N9  UNL     1     -23.375  29.940   2.169  1.00  0.00    -0.354 N
ATOM     28  H9  UNL     1     -22.803  29.625   1.385  1.00  0.00     0.166 HD
ENDBRANCH  21  22
ENDBRANCH  17  21
ENDBRANCH  11  13
ENDBRANCH   8  11
BRANCH   1  29
HETATM   29  C4  UNL     1     -24.116  20.897  -3.028  1.00  0.00     0.287 C
HETATM   30  N2  UNL     1     -24.013  19.474  -2.999  1.00  0.00    -0.264 N
ATOM     31  H2  UNL     1     -23.225  19.011  -2.547  1.00  0.00     0.190 HD
HETATM   32  O2  UNL     1     -25.100  21.447  -3.588  1.00  0.00    -0.267 OA
BRANCH  30  33
HETATM   33  N1  UNL     1     -25.029  18.738  -3.610  1.00  0.00    -0.267 N
HETATM   34  C3  UNL     1     -26.026  18.087  -2.832  1.00  0.00     0.245 C
HETATM   35  O1  UNL     1     -25.944  18.214  -1.559  1.00  0.00    -0.271 OA
ATOM     36  H1  UNL     1     -25.056  18.666  -4.628  1.00  0.00     0.190 HD
BRANCH  34  37
HETATM   37  C2  UNL     1     -27.126  17.287  -3.386  1.00  0.00     0.177 C
BRANCH  37  38
HETATM   38  S1  UNL     1     -28.562  18.312  -3.743  1.00  0.00    -0.164 SA
HETATM   39  C1  UNL     1     -30.056  17.314  -3.880  1.00  0.00     0.090 C
ENDBRANCH  37  38
ENDBRANCH  34  37
ENDBRANCH  30  33
ENDBRANCH   1  29
TORSDOF 8
ENDMDL