MODEL 4
REMARK VINA RESULT: -6.169876081      2.945      6.875
REMARK  10 active torsions:
REMARK  status: ('A' for Active; 'I' for Inactive)
REMARK    1  A    between atoms: N2_3  and  C2_5
REMARK    2  A    between atoms: C7_13  and  C8_14
REMARK    3  A    between atoms: C8_14  and  N4_15
REMARK    4  A    between atoms: N4_15  and  O1_16
REMARK       I    between atoms: N4_15  and  C9_20
REMARK    5  A    between atoms: O1_16  and  N5_17
REMARK    6  A    between atoms: C10_23  and  O3_24
REMARK    7  A    between atoms: C10_23  and  C13_29
REMARK    8  A    between atoms: O3_24  and  C11_25
REMARK    9  A    between atoms: C11_25  and  C12_26
REMARK   10  A    between atoms: C12_26  and  O4_27
ROOT
HETATM    1  N1  UNL     1     -20.933  27.620  -4.004  1.00  0.00    -0.171 NA
HETATM    2  C1  UNL     1     -21.772  27.612  -3.210  1.00  0.00     0.196 C
HETATM    3  N2  UNL     1     -22.773  27.595  -2.246  1.00  0.00    -0.126 N
ATOM      4  H2  UNL     1     -22.607  27.171  -1.334  1.00  0.00     0.197 HD
ENDROOT
BRANCH   3   5
HETATM    5  C2  UNL     1     -24.032  28.176  -2.555  1.00  0.00     0.689 C
HETATM    6  N3  UNL     1     -24.314  28.283  -3.833  1.00  0.00    -0.225 N
HETATM    7  C3  UNL     1     -25.499  28.824  -4.444  1.00  0.00     0.138 C
ATOM      8  H3  UNL     1     -23.601  27.938  -4.476  1.00  0.00     0.177 HD
HETATM    9  C4  UNL     1     -25.900  30.131  -3.798  1.00  0.00     0.023 C
HETATM   10  C5  UNL     1     -26.626  29.896  -2.479  1.00  0.00     0.039 C
HETATM   11  C6  UNL     1     -25.592  29.752  -1.410  1.00  0.00     0.169 C
HETATM   12  S1  UNL     1     -26.177  29.877   0.261  1.00  0.00    -0.127 SA
HETATM   13  N7  UNL     1     -24.809  28.566  -1.417  1.00  0.00    -0.159 N
HETATM   14  C7  UNL     1     -24.799  28.729   0.915  1.00  0.00     0.158 C
HETATM   15  C10 UNL     1     -24.873  27.764  -0.151  1.00  0.00     0.260 C
BRANCH  14  16
HETATM   16  C8  UNL     1     -25.151  28.767   2.288  1.00  0.00     0.124 C
BRANCH  16  17
HETATM   17  N4  UNL     1     -24.375  29.042   3.407  1.00  0.00    -0.162 N
HETATM   18  C9  UNL     1     -24.801  29.795   4.503  1.00  0.00     0.360 C
HETATM   19  N6  UNL     1     -26.081  30.389   4.524  1.00  0.00    -0.037 NA
HETATM   20  O2  UNL     1     -24.050  29.960   5.490  1.00  0.00    -0.248 OA
BRANCH  17  21
HETATM   21  O1  UNL     1     -23.091  28.536   3.455  1.00  0.00    -0.154 OA
BRANCH  21  22
HETATM   22  N5  UNL     1     -23.150  27.506   4.328  1.00  0.00    -0.285 N
ATOM     23  H52 UNL     1     -23.967  27.202   4.857  1.00  0.00     0.186 HD
ATOM     24  H51 UNL     1     -22.210  27.111   4.336  1.00  0.00     0.186 HD
ENDBRANCH  21  22
ENDBRANCH  17  21
ENDBRANCH  16  17
ENDBRANCH  14  16
BRANCH  15  25
HETATM   25  O3  UNL     1     -23.915  26.808  -0.313  1.00  0.00    -0.348 OA
BRANCH  25  26
HETATM   26  C11 UNL     1     -23.934  25.624   0.252  1.00  0.00     0.197 C
BRANCH  26  27
HETATM   27  C12 UNL     1     -23.642  24.396  -0.614  1.00  0.00     0.190 C
BRANCH  27  28
HETATM   28  O4  UNL     1     -24.006  24.564  -1.919  1.00  0.00    -0.399 OA
ATOM     29  H4  UNL     1     -24.936  24.439  -2.065  1.00  0.00     0.209 HD
ENDBRANCH  27  28
ENDBRANCH  26  27
ENDBRANCH  25  26
ENDBRANCH  15  25
BRANCH  15  30
HETATM   30  C13 UNL     1     -26.202  27.092  -0.297  1.00  0.00     0.234 C
HETATM   31  O5  UNL     1     -26.421  26.482  -1.371  1.00  0.00    -0.644 OA
HETATM   32  O6  UNL     1     -27.210  27.068   0.619  1.00  0.00    -0.644 OA
ENDBRANCH  15  30
ENDBRANCH   3   5
TORSDOF 10
ENDMDL