MODEL 3
REMARK VINA RESULT: -5.023315706      4.811      7.394
REMARK  11 active torsions:
REMARK  status: ('A' for Active; 'I' for Inactive)
REMARK    1  A    between atoms: O1_2  and  C2_3
REMARK    2  A    between atoms: C3_4  and  N1_5
REMARK    3  A    between atoms: N1_5  and  C4_7
REMARK    4  A    between atoms: C6_10  and  N2_11
REMARK    5  A    between atoms: C11_21  and  O5_22
REMARK    6  A    between atoms: C13_25  and  N3_26
REMARK    7  A    between atoms: C14_30  and  O6_31
REMARK    8  A    between atoms: O6_31  and  C15_32
REMARK    9  A    between atoms: C15_32  and  C16_33
REMARK   10  A    between atoms: C16_33  and  N4_34
REMARK   11  A    between atoms: C17_38  and  N5_39
ROOT
HETATM    1  C2  UNL     1     -24.406  31.078   3.165  1.00  0.00     0.176 C
HETATM    2  C3  UNL     1     -25.844  30.885   3.583  1.00  0.00     0.112 C
HETATM    3  C12 UNL     1     -26.520  29.725   2.958  1.00  0.00     0.063 C
HETATM    4  C13 UNL     1     -25.854  29.108   1.780  1.00  0.00     0.216 C
HETATM    5  C14 UNL     1     -25.043  30.053   0.931  1.00  0.00     0.184 C
HETATM    6  C17 UNL     1     -24.175  31.003   1.709  1.00  0.00     0.245 C
ENDROOT
BRANCH   2   7
HETATM    7  N1  UNL     1     -25.899  30.815   4.991  1.00  0.00    -0.388 N
ATOM      8  H1  UNL     1     -25.039  30.834   5.540  1.00  0.00     0.156 HD
BRANCH   7   9
HETATM    9  C4  UNL     1     -27.149  30.720   5.635  1.00  0.00     0.249 C
HETATM   10  O2  UNL     1     -26.907  30.516   6.996  1.00  0.00    -0.354 OA
HETATM   11  C5  UNL     1     -27.558  31.544   7.684  1.00  0.00     0.189 C
HETATM   12  C6  UNL     1     -27.783  31.134   9.075  1.00  0.00     0.217 C
HETATM   13  C10 UNL     1     -28.756  31.887   6.852  1.00  0.00     0.224 C
HETATM   14  C7  UNL     1     -29.068  31.501   9.726  1.00  0.00     0.070 C
HETATM   15  C8  UNL     1     -29.883  32.521   8.991  1.00  0.00     0.158 C
HETATM   16  C9  UNL     1     -30.768  33.231   9.993  1.00  0.00     0.042 C
HETATM   17  O3  UNL     1     -29.117  33.448   8.321  1.00  0.00    -0.235 OA
HETATM   18  O4  UNL     1     -29.225  33.167   7.041  1.00  0.00    -0.230 OA
HETATM   19  C11 UNL     1     -28.061  31.886   5.475  1.00  0.00     0.201 C
BRANCH  12  20
HETATM   20  N2  UNL     1     -27.614  29.673   9.189  1.00  0.00    -0.072 N
ATOM     21  H23 UNL     1     -27.009  29.297   8.459  1.00  0.00     0.274 HD
ATOM     22  H22 UNL     1     -27.047  29.412   9.996  1.00  0.00     0.274 HD
ATOM     23  H21 UNL     1     -28.530  29.226   9.199  1.00  0.00     0.274 HD
ENDBRANCH  12  20
BRANCH  19  24
HETATM   24  O5  UNL     1     -27.407  33.113   5.392  1.00  0.00    -0.388 OA
ATOM     25  H5  UNL     1     -27.361  33.470   4.513  1.00  0.00     0.210 HD
ENDBRANCH  19  24
ENDBRANCH   7   9
ENDBRANCH   2   7
BRANCH   1  26
HETATM   26  O1  UNL     1     -23.519  30.282   3.893  1.00  0.00    -0.386 OA
HETATM   27  C1  UNL     1     -22.607  31.029   4.649  1.00  0.00     0.202 C
ENDBRANCH   1  26
BRANCH   6  28
HETATM   28  N5  UNL     1     -22.785  30.581   1.503  1.00  0.00    -0.070 N
ATOM     29  H53 UNL     1     -22.113  31.170   1.994  1.00  0.00     0.274 HD
ATOM     30  H52 UNL     1     -22.562  29.703   1.973  1.00  0.00     0.274 HD
ATOM     31  H51 UNL     1     -22.620  30.545   0.497  1.00  0.00     0.274 HD
ENDBRANCH   6  28
BRANCH   4  32
HETATM   32  N3  UNL     1     -25.103  27.910   2.111  1.00  0.00    -0.072 N
ATOM     33  H33 UNL     1     -24.952  27.336   1.281  1.00  0.00     0.274 HD
ATOM     34  H32 UNL     1     -24.135  28.139   2.335  1.00  0.00     0.274 HD
ATOM     35  H31 UNL     1     -25.530  27.364   2.859  1.00  0.00     0.274 HD
ENDBRANCH   4  32
BRANCH   5  36
HETATM   36  O6  UNL     1     -24.286  29.283   0.078  1.00  0.00    -0.380 OA
BRANCH  36  37
HETATM   37  C15 UNL     1     -24.726  29.005  -1.151  1.00  0.00     0.195 C
BRANCH  37  38
HETATM   38  C16 UNL     1     -24.682  27.620  -1.681  1.00  0.00     0.255 C
BRANCH  38  39
HETATM   39  N4  UNL     1     -23.775  26.729  -1.020  1.00  0.00    -0.077 N
ATOM     40  H43 UNL     1     -22.819  27.066  -1.123  1.00  0.00     0.274 HD
ATOM     41  H42 UNL     1     -23.887  26.806  -0.009  1.00  0.00     0.274 HD
ATOM     42  H41 UNL     1     -23.831  25.750  -1.302  1.00  0.00     0.274 HD
ENDBRANCH  38  39
ENDBRANCH  37  38
ENDBRANCH  36  37
ENDBRANCH   5  36
TORSDOF 11
ENDMDL