MODEL 2
REMARK VINA RESULT: -6.168764420      2.336      4.148
REMARK  11 active torsions:
REMARK  status: ('A' for Active; 'I' for Inactive)
REMARK    1  A    between atoms: C3_3  and  C4_4
REMARK       I    between atoms: C4_4  and  N1_6
REMARK    2  A    between atoms: N3_12  and  C8_13
REMARK    3  A    between atoms: C8_13  and  N4_14
REMARK    4  A    between atoms: N4_14  and  C9_16
REMARK    5  A    between atoms: C9_16  and  C10_21
REMARK    6  A    between atoms: N5_17  and  O2_19
REMARK    7  A    between atoms: C12_26  and  N8_27
REMARK    8  A    between atoms: N8_27  and  O3_29
REMARK    9  A    between atoms: C13_33  and  N10_34
REMARK   10  A    between atoms: C14_36  and  C15_37
REMARK   11  A    between atoms: C15_37  and  O4_38
ROOT
HETATM    1  C9  UNL     1     -25.526  30.791   2.175  1.00  0.00     0.139 C
HETATM    2  N5  UNL     1     -26.112  31.193   3.245  1.00  0.00    -0.252 N
ATOM      3  H5  UNL     1     -26.529  30.507   3.874  1.00  0.00     0.196 HD
ENDROOT
BRANCH   1   4
HETATM    4  N4  UNL     1     -24.956  31.764   1.318  1.00  0.00    -0.357 N
ATOM      5  H4  UNL     1     -24.430  32.545   1.710  1.00  0.00     0.162 HD
BRANCH   4   6
HETATM    6  C8  UNL     1     -25.119  31.648  -0.092  1.00  0.00     0.254 C
BRANCH   6   7
HETATM    7  N3  UNL     1     -23.948  31.075  -0.743  1.00  0.00    -0.328 N
HETATM    8  C2  UNL     1     -23.902  30.039  -1.594  1.00  0.00     0.042 A
HETATM    9  C1  UNL     1     -25.044  29.230  -2.075  1.00  0.00     0.071 C
HETATM   10  C3  UNL     1     -22.585  29.793  -2.001  1.00  0.00     0.124 A
HETATM   11  N2  UNL     1     -21.865  30.723  -1.357  1.00  0.00    -0.346 N
HETATM   12  C7  UNL     1     -22.670  31.490  -0.607  1.00  0.00     0.185 A
ATOM     13  H2  UNL     1     -20.852  30.832  -1.428  1.00  0.00     0.167 HD
BRANCH  10  14
HETATM   14  C4  UNL     1     -22.151  28.746  -2.921  1.00  0.00     0.271 C
HETATM   15  O1  UNL     1     -21.764  27.622  -2.520  1.00  0.00    -0.266 OA
HETATM   16  N1  UNL     1     -22.160  28.981  -4.317  1.00  0.00    -0.355 N
HETATM   17  C5  UNL     1     -21.725  27.926  -5.236  1.00  0.00     0.152 C
HETATM   18  C6  UNL     1     -22.585  30.234  -4.905  1.00  0.00     0.152 C
ENDBRANCH  10  14
ENDBRANCH   6   7
ENDBRANCH   4   6
ENDBRANCH   1   4
BRANCH   1  19
HETATM   19  C10 UNL     1     -25.443  29.378   1.820  1.00  0.00     0.096 A
HETATM   20  C11 UNL     1     -26.453  28.682   1.249  1.00  0.00     0.149 A
HETATM   21  N6  UNL     1     -27.695  29.332   0.949  1.00  0.00    -0.081 NA
HETATM   22  N7  UNL     1     -26.290  27.371   0.957  1.00  0.00    -0.176 N
HETATM   23  C12 UNL     1     -25.143  26.729   1.218  1.00  0.00     0.704 A
ATOM     24  H7  UNL     1     -27.059  26.858   0.527  1.00  0.00     0.185 HD
HETATM   25  N9  UNL     1     -24.123  27.386   1.782  1.00  0.00    -0.174 N
HETATM   26  C13 UNL     1     -24.225  28.709   2.100  1.00  0.00     0.138 A
ATOM     27  H9  UNL     1     -23.254  26.889   1.979  1.00  0.00     0.186 HD
BRANCH  23  28
HETATM   28  N8  UNL     1     -24.998  25.464   0.932  1.00  0.00    -0.098 N
ATOM     29  H8  UNL     1     -24.524  24.860   1.604  1.00  0.00     0.213 HD
BRANCH  28  30
HETATM   30  O3  UNL     1     -25.453  24.921  -0.225  1.00  0.00    -0.276 OA
ATOM     31  H3  UNL     1     -25.196  25.247  -1.079  1.00  0.00     0.245 HD
ENDBRANCH  28  30
ENDBRANCH  23  28
BRANCH  26  32
HETATM   32  N10 UNL     1     -23.325  29.372   2.620  1.00  0.00    -0.353 N
HETATM   33  C14 UNL     1     -22.667  29.769   3.743  1.00  0.00     0.088 C
ATOM     34  H10 UNL     1     -22.853  29.844   1.849  1.00  0.00     0.166 HD
BRANCH  33  35
HETATM   35  C15 UNL     1     -23.200  29.230   5.058  1.00  0.00     0.208 C
BRANCH  35  36
HETATM   36  O4  UNL     1     -24.245  30.107   5.433  1.00  0.00    -0.396 OA
ATOM     37  H4  UNL     1     -24.657  29.705   6.189  1.00  0.00     0.209 HD
ENDBRANCH  35  36
ENDBRANCH  33  35
ENDBRANCH  26  32
ENDBRANCH   1  19
BRANCH   2  38
HETATM   38  O2  UNL     1     -26.186  32.524   3.558  1.00  0.00    -0.288 OA
ATOM     39  H2  UNL     1     -26.925  32.876   4.040  1.00  0.00     0.244 HD
ENDBRANCH   2  38
TORSDOF 11
ENDMDL