MODEL 1
REMARK VINA RESULT: -6.966231801      0.000      0.000
REMARK  11 active torsions:
REMARK  status: ('A' for Active; 'I' for Inactive)
REMARK    1  A    between atoms: C2_2  and  C3_3
REMARK    2  A    between atoms: C2_2  and  C12_24
REMARK    3  A    between atoms: C3_3  and  N1_4
REMARK    4  A    between atoms: C4_5  and  C5_6
REMARK    5  A    between atoms: C7_14  and  N4_15
REMARK    6  A    between atoms: N4_15  and  C8_17
REMARK    7  A    between atoms: C12_24  and  O3_25
REMARK    8  A    between atoms: C12_24  and  C13_27
REMARK    9  A    between atoms: C13_27  and  N7_28
REMARK   10  A    between atoms: N7_28  and  C14_30
REMARK   11  A    between atoms: C16_36  and  N10_37
ROOT
HETATM    1  C8  UNL     1     -23.900  25.471  -0.990  1.00  0.00     0.245 C
HETATM    2  C9  UNL     1     -23.543  24.135  -0.533  1.00  0.00     0.078 C
HETATM    3  N5  UNL     1     -23.247  23.072  -0.155  1.00  0.00    -0.196 NA
ENDROOT
BRANCH   1   4
HETATM    4  N4  UNL     1     -25.112  25.928  -0.377  1.00  0.00    -0.363 N
ATOM      5  H4  UNL     1     -26.007  25.536  -0.671  1.00  0.00     0.162 HD
BRANCH   4   6
HETATM    6  C7  UNL     1     -25.080  26.829   0.541  1.00  0.00     0.119 A
HETATM    7  N3  UNL     1     -24.036  26.935   1.393  1.00  0.00    -0.325 N
HETATM    8  C6  UNL     1     -24.044  27.895   2.340  1.00  0.00     0.154 A
ATOM      9  H3  UNL     1     -23.247  26.293   1.319  1.00  0.00     0.169 HD
HETATM   10  N2  UNL     1     -23.184  28.245   3.302  1.00  0.00    -0.320 N
HETATM   11  C11 UNL     1     -25.100  28.771   2.455  1.00  0.00     0.154 A
HETATM   12  C4  UNL     1     -23.656  29.308   4.019  1.00  0.00     0.189 A
ATOM     13  H2  UNL     1     -22.294  27.780   3.478  1.00  0.00     0.169 HD
HETATM   14  N1  UNL     1     -24.834  29.627   3.497  1.00  0.00    -0.310 N
HETATM   15  N6  UNL     1     -26.112  28.636   1.598  1.00  0.00    -0.345 N
HETATM   16  C10 UNL     1     -26.157  27.700   0.635  1.00  0.00     0.138 A
ATOM     17  H6  UNL     1     -26.898  29.281   1.677  1.00  0.00     0.167 HD
BRANCH  12  18
HETATM   18  C5  UNL     1     -22.947  29.980   5.094  1.00  0.00     0.245 C
HETATM   19  O1  UNL     1     -22.926  29.394   6.227  1.00  0.00    -0.642 OA
HETATM   20  O2  UNL     1     -22.299  31.195   4.975  1.00  0.00    -0.642 OA
ENDBRANCH  12  18
BRANCH  14  21
HETATM   21  C3  UNL     1     -25.804  30.623   3.895  1.00  0.00     0.139 C
BRANCH  21  22
HETATM   22  C2  UNL     1     -25.821  31.724   2.893  1.00  0.00     0.030 C
HETATM   23  C1  UNL     1     -26.720  32.873   3.186  1.00  0.00     0.014 C
BRANCH  22  24
HETATM   24  C12 UNL     1     -24.424  32.225   2.567  1.00  0.00     0.141 C
BRANCH  24  25
HETATM   25  O3  UNL     1     -24.133  33.225   3.472  1.00  0.00    -0.394 OA
ATOM     26  H3  UNL     1     -24.255  32.858   4.340  1.00  0.00     0.210 HD
ENDBRANCH  24  25
BRANCH  24  27
HETATM   27  C13 UNL     1     -24.373  32.727   1.133  1.00  0.00     0.153 C
BRANCH  27  28
HETATM   28  N7  UNL     1     -24.858  31.705   0.230  1.00  0.00    -0.372 N
ATOM     29  H7  UNL     1     -25.858  31.505   0.184  1.00  0.00     0.161 HD
BRANCH  28  30
HETATM   30  C14 UNL     1     -24.041  31.045  -0.516  1.00  0.00     0.134 A
HETATM   31  C15 UNL     1     -22.679  31.255  -0.547  1.00  0.00     0.156 A
HETATM   32  N8  UNL     1     -21.875  30.514  -1.365  1.00  0.00    -0.294 N
HETATM   33  N9  UNL     1     -22.378  29.574  -2.149  1.00  0.00    -0.133 N
ATOM     34  H8  UNL     1     -20.869  30.688  -1.373  1.00  0.00     0.186 HD
HETATM   35  C16 UNL     1     -23.708  29.373  -2.115  1.00  0.00     0.692 A
ATOM     36  H9  UNL     1     -21.778  29.020  -2.759  1.00  0.00     0.205 HD
HETATM   37  N11 UNL     1     -24.531  30.086  -1.320  1.00  0.00    -0.175 N
ATOM     38  H11 UNL     1     -25.533  29.896  -1.330  1.00  0.00     0.186 HD
BRANCH  35  39
HETATM   39  N10 UNL     1     -24.263  28.463  -2.864  1.00  0.00    -0.233 N
ATOM     40 2H10 UNL     1     -23.733  27.603  -3.005  1.00  0.00     0.174 HD
ATOM     41 1H10 UNL     1     -25.182  28.618  -3.279  1.00  0.00     0.174 HD
ENDBRANCH  35  39
ENDBRANCH  28  30
ENDBRANCH  27  28
ENDBRANCH  24  27
ENDBRANCH  22  24
ENDBRANCH  21  22
ENDBRANCH  14  21
ENDBRANCH   4   6
ENDBRANCH   1   4
TORSDOF 11
ENDMDL