MODEL 4
REMARK VINA RESULT: -8.906610101      2.483     10.422
REMARK  13 active torsions:
REMARK  status: ('A' for Active; 'I' for Inactive)
REMARK    1  A    between atoms: C2_3  and  N2_4
REMARK       I    between atoms: N2_4  and  C3_6
REMARK    2  A    between atoms: C3_6  and  C4_8
REMARK    3  A    between atoms: C4_8  and  O2_9
REMARK    4  A    between atoms: O2_9  and  C5_10
REMARK    5  A    between atoms: C5_10  and  C6_12
REMARK    6  A    between atoms: C6_12  and  C7_13
REMARK    7  A    between atoms: C7_13  and  C8_14
REMARK    8  A    between atoms: C8_14  and  C9_15
REMARK       I    between atoms: C9_15  and  N3_17
REMARK    9  A    between atoms: N3_17  and  C10_19
REMARK       I    between atoms: N5_26  and  C15_28
REMARK   10  A    between atoms: C15_28  and  C16_30
REMARK   11  A    between atoms: C16_30  and  C17_31
REMARK   12  A    between atoms: C17_31  and  C18_32
REMARK   13  A    between atoms: C18_32  and  N6_33
ROOT
HETATM    1  N1  UNL     1      21.698  33.872  16.331  1.00  0.00    -0.196 NA
HETATM    2  C1  UNL     1      20.900  34.341  17.045  1.00  0.00     0.078 C
HETATM    3  C2  UNL     1      19.904  34.948  17.921  1.00  0.00     0.247 C
ENDROOT
BRANCH   3   4
HETATM    4  N2  UNL     1      19.458  36.241  17.408  1.00  0.00    -0.347 N
HETATM    5  C3  UNL     1      19.790  37.417  18.106  1.00  0.00     0.242 C
HETATM    6  O1  UNL     1      20.484  37.343  19.173  1.00  0.00    -0.271 OA
ATOM      7  H2  UNL     1      18.909  36.292  16.550  1.00  0.00     0.163 HD
BRANCH   5   8
HETATM    8  C4  UNL     1      19.363  38.741  17.646  1.00  0.00     0.281 C
BRANCH   8   9
HETATM    9  O2  UNL     1      18.080  39.145  18.030  1.00  0.00    -0.312 OA
BRANCH   9  10
HETATM   10  C5  UNL     1      16.888  38.629  17.573  1.00  0.00     0.259 C
HETATM   11  O3  UNL     1      16.877  37.894  16.570  1.00  0.00    -0.265 OA
BRANCH  10  12
HETATM   12  C6  UNL     1      15.619  38.946  18.274  1.00  0.00     0.111 C
BRANCH  12  13
HETATM   13  C7  UNL     1      15.377  37.874  19.309  1.00  0.00     0.019 C
BRANCH  13  14
HETATM   14  C8  UNL     1      14.314  36.900  18.961  1.00  0.00     0.103 C
BRANCH  14  15
HETATM   15  C9  UNL     1      14.885  35.655  18.395  1.00  0.00     0.222 C
HETATM   16  O4  UNL     1      15.176  34.741  19.166  1.00  0.00    -0.273 OA
HETATM   17  N3  UNL     1      15.094  35.518  16.998  1.00  0.00    -0.327 N
ATOM     18  H3  UNL     1      14.834  36.287  16.380  1.00  0.00     0.169 HD
BRANCH  17  19
HETATM   19  C10 UNL     1      15.644  34.364  16.447  1.00  0.00     0.036 A
HETATM   20  C11 UNL     1      14.960  33.166  16.492  1.00  0.00     0.032 A
HETATM   21  C12 UNL     1      15.409  31.997  15.958  1.00  0.00     0.033 A
HETATM   22  C13 UNL     1      16.657  31.945  15.296  1.00  0.00     0.051 A
HETATM   23  N4  UNL     1      17.212  30.902  14.738  1.00  0.00    -0.335 N
HETATM   24  C25 UNL     1      17.344  33.131  15.245  1.00  0.00     0.037 A
HETATM   25  C14 UNL     1      18.396  31.015  14.150  1.00  0.00     0.152 A
ATOM     26  H4  UNL     1      16.735  30.002  14.755  1.00  0.00     0.168 HD
HETATM   27  N5  UNL     1      19.145  30.165  13.548  1.00  0.00    -0.307 N
HETATM   28  S1  UNL     1      18.758  32.693  14.395  1.00  0.00    -0.052 SA
HETATM   29  C15 UNL     1      18.864  28.828  13.363  1.00  0.00     0.223 C
ATOM     30  H5  UNL     1      20.028  30.509  13.173  1.00  0.00     0.171 HD
HETATM   31  O5  UNL     1      19.606  27.992  14.014  1.00  0.00    -0.273 OA
HETATM   32  C26 UNL     1      16.858  34.331  15.809  1.00  0.00     0.051 A
BRANCH  29  33
HETATM   33  C16 UNL     1      17.824  28.209  12.518  1.00  0.00     0.105 C
BRANCH  33  34
HETATM   34  C17 UNL     1      18.358  27.067  11.669  1.00  0.00     0.029 C
BRANCH  34  35
HETATM   35  C18 UNL     1      19.463  27.514  10.756  1.00  0.00     0.120 C
BRANCH  35  36
HETATM   36  N6  UNL     1      20.477  26.459  10.735  1.00  0.00    -0.390 N
HETATM   37  C19 UNL     1      21.665  26.761  11.086  1.00  0.00     0.051 C
HETATM   38  C20 UNL     1      22.019  28.138  11.503  1.00  0.00     0.061 C
HETATM   39  C24 UNL     1      22.755  25.782  11.105  1.00  0.00     0.171 C
HETATM   40  C21 UNL     1      23.170  28.145  12.478  1.00  0.00     0.006 C
HETATM   41  C22 UNL     1      24.341  27.317  12.102  1.00  0.00     0.008 C
HETATM   42  C23 UNL     1      24.125  26.373  10.941  1.00  0.00     0.085 C
HETATM   43  O6  UNL     1      22.511  24.578  11.254  1.00  0.00    -0.291 OA
ATOM     44  H6  UNL     1      20.240  25.510  10.448  1.00  0.00     0.159 HD
ENDBRANCH  35  36
ENDBRANCH  34  35
ENDBRANCH  33  34
ENDBRANCH  29  33
ENDBRANCH  17  19
ENDBRANCH  14  15
ENDBRANCH  13  14
ENDBRANCH  12  13
ENDBRANCH  10  12
ENDBRANCH   9  10
ENDBRANCH   8   9
ENDBRANCH   5   8
ENDBRANCH   3   4
TORSDOF 13
ENDMDL