MODEL 3
REMARK VINA RESULT: -8.476729511      2.516      5.590
REMARK  13 active torsions:
REMARK  status: ('A' for Active; 'I' for Inactive)
REMARK    1  A    between atoms: C2_2  and  O1_3
REMARK    2  A    between atoms: O1_3  and  C3_4
REMARK    3  A    between atoms: C3_4  and  C4_6
REMARK    4  A    between atoms: C6_10  and  N2_11
REMARK       I    between atoms: N2_11  and  C7_13
REMARK       I    between atoms: C7_13  and  N3_15
REMARK    5  A    between atoms: N3_15  and  C8_16
REMARK    6  A    between atoms: N3_15  and  C23_36
REMARK    7  A    between atoms: C8_16  and  C9_17
REMARK    8  A    between atoms: C9_17  and  O4_18
REMARK    9  A    between atoms: O4_18  and  C10_19
REMARK   10  A    between atoms: C12_21  and  O5_22
REMARK   11  A    between atoms: C18_30  and  C19_31
REMARK   12  A    between atoms: C19_31  and  N5_32
REMARK   13  A    between atoms: C23_36  and  C24_37
ROOT
HETATM    1  N2  UNL     1      19.217  31.925  14.568  1.00  0.00    -0.289 N
ATOM      2  H2  UNL     1      19.647  32.685  14.041  1.00  0.00     0.172 HD
HETATM    3  C7  UNL     1      19.876  30.702  14.623  1.00  0.00     0.324 C
HETATM    4  O3  UNL     1      19.212  29.699  15.024  1.00  0.00    -0.247 OA
HETATM    5  N3  UNL     1      21.220  30.564  14.249  1.00  0.00    -0.330 N
ENDROOT
BRANCH   5   6
HETATM    6  C8  UNL     1      21.832  29.221  14.274  1.00  0.00     0.154 C
BRANCH   6   7
HETATM    7  C9  UNL     1      22.060  28.714  12.880  1.00  0.00     0.195 C
BRANCH   7   8
HETATM    8  O4  UNL     1      21.325  27.565  12.640  1.00  0.00    -0.348 OA
BRANCH   8   9
HETATM    9  C10 UNL     1      20.445  27.393  11.618  1.00  0.00     0.085 A
HETATM   10  C11 UNL     1      19.275  28.158  11.565  1.00  0.00     0.074 A
HETATM   11  C12 UNL     1      18.413  27.963  10.521  1.00  0.00     0.073 A
HETATM   12  C14 UNL     1      18.671  27.047   9.543  1.00  0.00     0.067 A
HETATM   13  C15 UNL     1      19.815  26.299   9.598  1.00  0.00     0.049 A
HETATM   14  N4  UNL     1      20.321  25.366   8.762  1.00  0.00    -0.358 N
HETATM   15  C22 UNL     1      20.727  26.446  10.631  1.00  0.00     0.037 A
HETATM   16  C16 UNL     1      21.471  24.919   9.189  1.00  0.00     0.018 A
ATOM     17  H4  UNL     1      19.864  25.052   7.907  1.00  0.00     0.166 HD
HETATM   18  C17 UNL     1      22.398  23.901   8.614  1.00  0.00     0.069 C
HETATM   19  C18 UNL     1      21.780  25.603  10.429  1.00  0.00     0.012 A
BRANCH  11  20
HETATM   20  O5  UNL     1      17.256  28.709  10.451  1.00  0.00    -0.356 OA
HETATM   21  C13 UNL     1      16.502  29.110  11.563  1.00  0.00     0.210 C
ENDBRANCH  11  20
BRANCH  19  22
HETATM   22  C19 UNL     1      23.050  25.311  11.082  1.00  0.00     0.073 C
BRANCH  22  23
HETATM   23  N5  UNL     1      24.208  25.999  10.799  1.00  0.00    -0.300 NA
HETATM   24  C20 UNL     1      23.943  27.258  10.046  1.00  0.00     0.115 C
HETATM   25  C21 UNL     1      24.929  26.435  11.987  1.00  0.00     0.115 C
ENDBRANCH  22  23
ENDBRANCH  19  22
ENDBRANCH   8   9
ENDBRANCH   7   8
ENDBRANCH   6   7
ENDBRANCH   5   6
BRANCH   5  26
HETATM   26  C23 UNL     1      22.009  31.710  13.885  1.00  0.00     0.153 C
BRANCH  26  27
HETATM   27  C24 UNL     1      22.580  32.507  14.992  1.00  0.00     0.111 C
HETATM   28  C25 UNL     1      22.428  32.112  16.407  1.00  0.00     0.129 C
HETATM   29  C26 UNL     1      22.219  33.593  16.647  1.00  0.00     0.220 C
HETATM   30  O6  UNL     1      22.426  34.368  17.593  1.00  0.00    -0.274 OA
HETATM   31  N6  UNL     1      21.702  33.640  15.327  1.00  0.00    -0.354 N
ATOM     32  H6  UNL     1      21.019  34.210  14.828  1.00  0.00     0.162 HD
ENDBRANCH  26  27
ENDBRANCH   5  26
BRANCH   1  33
HETATM   33  C6  UNL     1      18.072  32.147  15.161  1.00  0.00     0.153 A
HETATM   34  N1  UNL     1      16.965  31.413  15.097  1.00  0.00    -0.345 N
HETATM   35  C5  UNL     1      15.920  31.804  15.764  1.00  0.00     0.115 A
ATOM     36  H1  UNL     1      16.935  30.563  14.535  1.00  0.00     0.167 HD
HETATM   37  C4  UNL     1      16.013  32.952  16.500  1.00  0.00     0.099 A
HETATM   38  S1  UNL     1      17.635  33.429  16.193  1.00  0.00    -0.046 SA
BRANCH  37  39
HETATM   39  C3  UNL     1      14.989  33.603  17.334  1.00  0.00     0.301 C
HETATM   40  O2  UNL     1      13.834  33.649  16.914  1.00  0.00    -0.259 OA
BRANCH  39  41
HETATM   41  O1  UNL     1      15.299  34.147  18.548  1.00  0.00    -0.317 OA
BRANCH  41  42
HETATM   42  C2  UNL     1      15.603  35.485  18.791  1.00  0.00     0.174 C
HETATM   43  C1  UNL     1      14.394  36.374  18.934  1.00  0.00     0.034 C
ENDBRANCH  41  42
ENDBRANCH  39  41
ENDBRANCH  37  39
ENDBRANCH   1  33
TORSDOF 13
ENDMDL