MODEL 5
REMARK VINA RESULT: -7.647725439      2.760      9.062
REMARK  14 active torsions:
REMARK  status: ('A' for Active; 'I' for Inactive)
REMARK    1  A    between atoms: C2_2  and  N1_3
REMARK    2  A    between atoms: N1_3  and  C4_5
REMARK    3  A    between atoms: N1_3  and  C25_42
REMARK    4  A    between atoms: C4_5  and  C5_6
REMARK    5  A    between atoms: C5_6  and  N2_7
REMARK    6  A    between atoms: N2_7  and  C6_8
REMARK    7  A    between atoms: C7_11  and  S1_12
REMARK    8  A    between atoms: C9_16  and  N5_17
REMARK    9  A    between atoms: N5_17  and  C10_19
REMARK   10  A    between atoms: C10_19  and  C11_20
REMARK   11  A    between atoms: C11_20  and  N6_21
REMARK   12  A    between atoms: N6_21  and  C12_22
REMARK   13  A    between atoms: C19_35  and  O1_36
REMARK   14  A    between atoms: C25_42  and  C26_43
ROOT
HETATM    1  C6  UNL     1      16.947  36.032  18.606  1.00  0.00     0.191 C
HETATM    2  N3  UNL     1      18.198  35.960  19.171  1.00  0.00    -0.311 N
ATOM      3  H3  UNL     1      18.328  36.592  19.961  1.00  0.00     0.170 HD
HETATM    4  C7  UNL     1      19.270  35.230  18.890  1.00  0.00     0.147 C
HETATM    5  N4  UNL     1      19.476  34.482  17.776  1.00  0.00    -0.322 N
ATOM      6  H4  UNL     1      20.449  34.318  17.521  1.00  0.00     0.169 HD
HETATM    7  C9  UNL     1      18.543  33.926  16.961  1.00  0.00     0.117 C
HETATM    8  C18 UNL     1      17.153  34.004  17.112  1.00  0.00     0.056 A
HETATM    9  C19 UNL     1      16.512  32.997  16.421  1.00  0.00     0.083 A
HETATM   10  C21 UNL     1      15.136  32.949  16.480  1.00  0.00     0.038 A
HETATM   11  C22 UNL     1      14.434  33.892  17.215  1.00  0.00     0.004 A
HETATM   12  C23 UNL     1      15.085  34.893  17.902  1.00  0.00     0.017 A
HETATM   13  C24 UNL     1      16.470  34.949  17.849  1.00  0.00     0.039 A
ENDROOT
BRANCH   7  14
HETATM   14  N5  UNL     1      18.896  33.263  15.932  1.00  0.00    -0.370 N
ATOM     15  H5  UNL     1      18.152  32.908  15.331  1.00  0.00     0.161 HD
BRANCH  14  16
HETATM   16  C10 UNL     1      20.250  32.969  15.538  1.00  0.00     0.180 C
BRANCH  16  17
HETATM   17  C11 UNL     1      20.570  31.481  15.847  1.00  0.00     0.175 C
BRANCH  17  18
HETATM   18  N6  UNL     1      20.693  30.681  14.809  1.00  0.00    -0.419 NA
BRANCH  18  19
HETATM   19  C12 UNL     1      20.794  29.945  13.860  1.00  0.00     0.122 A
HETATM   20  C13 UNL     1      21.769  30.169  12.862  1.00  0.00     0.062 A
HETATM   21  C14 UNL     1      21.882  29.339  11.796  1.00  0.00     0.093 A
HETATM   22  N7  UNL     1      21.078  28.280  11.648  1.00  0.00    -0.350 N
HETATM   23  C15 UNL     1      20.145  28.035  12.570  1.00  0.00     0.135 A
ATOM     24  H7  UNL     1      21.177  27.666  10.840  1.00  0.00     0.166 HD
HETATM   25  N8  UNL     1      19.216  27.040  12.656  1.00  0.00    -0.285 N
HETATM   26  C17 UNL     1      19.973  28.825  13.668  1.00  0.00     0.067 A
HETATM   27  N9  UNL     1      18.513  27.234  13.770  1.00  0.00    -0.309 N
ATOM     28  H8  UNL     1      19.084  26.282  11.985  1.00  0.00     0.188 HD
HETATM   29  C16 UNL     1      18.946  28.316  14.417  1.00  0.00     0.126 A
ATOM     30  H9  UNL     1      17.748  26.637  14.086  1.00  0.00     0.186 HD
ENDBRANCH  18  19
ENDBRANCH  17  18
ENDBRANCH  16  17
ENDBRANCH  14  16
ENDBRANCH   7  14
BRANCH   4  31
HETATM   31  S1  UNL     1      20.613  35.211  20.100  1.00  0.00    -0.098 SA
HETATM   32  C8  UNL     1      21.887  36.358  19.496  1.00  0.00     0.099 C
ENDBRANCH   4  31
BRANCH   9  33
HETATM   33  O1  UNL     1      17.263  32.071  15.693  1.00  0.00    -0.355 OA
HETATM   34  C20 UNL     1      16.857  30.712  15.763  1.00  0.00     0.210 C
ENDBRANCH   9  33
BRANCH   1  35
HETATM   35  N2  UNL     1      16.289  36.983  18.749  1.00  0.00    -0.401 NA
BRANCH  35  36
HETATM   36  C5  UNL     1      15.551  38.116  18.958  1.00  0.00     0.185 C
BRANCH  36  37
HETATM   37  C4  UNL     1      16.451  39.269  19.231  1.00  0.00     0.296 C
BRANCH  37  38
HETATM   38  N1  UNL     1      16.705  40.204  18.178  1.00  0.00    -0.059 N
HETATM   39  C3  UNL     1      15.278  40.543  17.777  1.00  0.00     0.273 C
BRANCH  38  40
HETATM   40  C2  UNL     1      17.228  41.470  18.553  1.00  0.00     0.233 C
HETATM   41  C1  UNL     1      18.057  41.551  19.782  1.00  0.00     0.035 C
ENDBRANCH  38  40
BRANCH  38  42
HETATM   42  C25 UNL     1      17.194  39.618  16.971  1.00  0.00     0.314 C
BRANCH  42  43
HETATM   43  C26 UNL     1      18.613  39.334  16.845  1.00  0.00     0.148 C
HETATM   44  C27 UNL     1      19.506  40.106  15.926  1.00  0.00     0.092 C
HETATM   45  O2  UNL     1      19.148  38.458  17.474  1.00  0.00    -0.297 OA
ENDBRANCH  42  43
ENDBRANCH  38  42
ENDBRANCH  37  38
ENDBRANCH  36  37
ENDBRANCH  35  36
ENDBRANCH   1  35
TORSDOF 14
ENDMDL