MODEL 1
REMARK VINA RESULT: -8.266584587      0.000      0.000
REMARK  14 active torsions:
REMARK  status: ('A' for Active; 'I' for Inactive)
REMARK    1  A    between atoms: N1_2  and  C2_4
REMARK    2  A    between atoms: C3_7  and  C4_8
REMARK    3  A    between atoms: C4_8  and  C5_9
REMARK    4  A    between atoms: N3_12  and  C8_13
REMARK    5  A    between atoms: C8_13  and  C9_14
REMARK    6  A    between atoms: C9_14  and  C10_15
REMARK    7  A    between atoms: C10_15  and  O1_16
REMARK    8  A    between atoms: O1_16  and  C11_17
REMARK    9  A    between atoms: C11_17  and  C12_19
REMARK   10  A    between atoms: C20_30  and  C21_31
REMARK   11  A    between atoms: C21_31  and  N5_32
REMARK   12  A    between atoms: N5_32  and  O3_33
REMARK   13  A    between atoms: O3_33  and  C22_34
REMARK   14  A    between atoms: C22_34  and  C23_35
ROOT
HETATM    1  C5  UNL     1      19.007  27.822  11.710  1.00  0.00     0.040 A
HETATM    2  C6  UNL     1      18.554  29.096  12.079  1.00  0.00     0.031 A
HETATM    3  C7  UNL     1      17.117  29.386  11.992  1.00  0.00     0.070 C
HETATM    4  N3  UNL     1      19.407  30.068  12.486  1.00  0.00    -0.350 N
HETATM    5  C18 UNL     1      20.728  29.769  12.524  1.00  0.00     0.037 A
HETATM    6  C19 UNL     1      21.679  30.822  12.915  1.00  0.00     0.071 C
HETATM    7  C20 UNL     1      21.234  28.510  12.169  1.00  0.00     0.088 A
HETATM    8  N6  UNL     1      20.353  27.577  11.771  1.00  0.00    -0.349 N
HETATM    9  C24 UNL     1      20.871  26.302  11.392  1.00  0.00     0.156 C
ENDROOT
BRANCH   4  10
HETATM   10  C8  UNL     1      18.911  31.360  12.908  1.00  0.00     0.131 C
BRANCH  10  11
HETATM   11  C9  UNL     1      18.634  31.466  14.376  1.00  0.00     0.047 C
BRANCH  11  12
HETATM   12  C10 UNL     1      17.257  32.005  14.626  1.00  0.00     0.180 C
BRANCH  12  13
HETATM   13  O1  UNL     1      16.889  32.131  15.959  1.00  0.00    -0.316 OA
BRANCH  13  14
HETATM   14  C11 UNL     1      15.709  32.635  16.461  1.00  0.00     0.310 C
HETATM   15  O2  UNL     1      14.703  31.885  16.401  1.00  0.00    -0.258 OA
BRANCH  14  16
HETATM   16  C12 UNL     1      15.622  33.988  17.039  1.00  0.00     0.110 A
HETATM   17  C13 UNL     1      16.392  35.081  16.751  1.00  0.00     0.057 A
HETATM   18  C14 UNL     1      15.921  36.115  17.562  1.00  0.00     0.034 A
HETATM   19  S1  UNL     1      16.060  37.746  18.044  1.00  0.00    -0.100 SA
HETATM   20  C17 UNL     1      14.891  35.657  18.323  1.00  0.00     0.050 A
HETATM   21  C15 UNL     1      14.809  37.806  19.198  1.00  0.00     0.053 A
HETATM   22  C16 UNL     1      14.306  36.533  19.178  1.00  0.00     0.038 A
HETATM   23  N4  UNL     1      14.724  34.335  17.979  1.00  0.00    -0.350 N
ATOM     24  H4  UNL     1      14.024  33.710  18.379  1.00  0.00     0.166 HD
ENDBRANCH  14  16
ENDBRANCH  13  14
ENDBRANCH  12  13
ENDBRANCH  11  12
ENDBRANCH  10  11
ENDBRANCH   4  10
BRANCH   1  25
HETATM   25  C4  UNL     1      18.046  26.793  11.296  1.00  0.00     0.116 C
BRANCH  25  26
HETATM   26  C3  UNL     1      18.055  26.506   9.800  1.00  0.00     0.023 A
HETATM   27  N2  UNL     1      18.194  27.441   8.889  1.00  0.00    -0.340 N
HETATM   28  C2  UNL     1      18.237  27.084   7.607  1.00  0.00     0.144 A
ATOM     29  H2  UNL     1      18.267  28.422   9.157  1.00  0.00     0.168 HD
HETATM   30  S2  UNL     1      18.081  25.398   7.657  1.00  0.00    -0.064 SA
HETATM   31  C25 UNL     1      17.963  25.208   9.346  1.00  0.00     0.078 A
BRANCH  28  32
HETATM   32  N1  UNL     1      18.372  27.908   6.590  1.00  0.00    -0.375 N
HETATM   33  C1  UNL     1      18.659  27.308   5.301  1.00  0.00     0.148 C
ATOM     34  H1  UNL     1      18.280  28.918   6.703  1.00  0.00     0.161 HD
ENDBRANCH  28  32
ENDBRANCH  25  26
ENDBRANCH   1  25
BRANCH   7  35
HETATM   35  C21 UNL     1      22.671  28.273  12.284  1.00  0.00     0.249 C
BRANCH  35  36
HETATM   36  N5  UNL     1      23.535  27.874  11.556  1.00  0.00    -0.291 NA
BRANCH  36  37
HETATM   37  O3  UNL     1      24.427  27.485  10.763  1.00  0.00    -0.199 OA
BRANCH  37  38
HETATM   38  C22 UNL     1      24.471  26.449   9.833  1.00  0.00     0.330 C
BRANCH  38  39
HETATM   39  C23 UNL     1      24.119  25.140  10.390  1.00  0.00     0.201 C
HETATM   40  O4  UNL     1      24.393  24.834  11.573  1.00  0.00    -0.646 OA
HETATM   41  O5  UNL     1      23.469  24.221   9.592  1.00  0.00    -0.646 OA
ENDBRANCH  38  39
ENDBRANCH  37  38
ENDBRANCH  36  37
ENDBRANCH  35  36
ENDBRANCH   7  35
TORSDOF 14
ENDMDL