MODEL 3
REMARK VINA RESULT: -8.216634708      1.527      2.056
REMARK  12 active torsions:
REMARK  status: ('A' for Active; 'I' for Inactive)
REMARK    1  A    between atoms: O1_2  and  C2_3
REMARK    2  A    between atoms: C5_6  and  N1_7
REMARK    3  A    between atoms: N1_7  and  C6_8
REMARK    4  A    between atoms: N3_12  and  C8_14
REMARK    5  A    between atoms: C8_14  and  C9_15
REMARK    6  A    between atoms: C9_15  and  C10_16
REMARK    7  A    between atoms: C10_16  and  N4_17
REMARK    8  A    between atoms: N5_20  and  C13_21
REMARK    9  A    between atoms: C13_21  and  C14_22
REMARK   10  A    between atoms: C14_22  and  C15_23
REMARK   11  A    between atoms: C20_32  and  O2_33
REMARK   12  A    between atoms: C22_35  and  O3_36
ROOT
HETATM    1  C6  UNL     1      20.158  33.935  16.763  1.00  0.00     0.206 A
HETATM    2  N2  UNL     1      20.634  33.064  15.807  1.00  0.00    -0.163 N
ATOM      3  H2  UNL     1      21.631  33.092  15.597  1.00  0.00     0.187 HD
HETATM    4  C7  UNL     1      19.891  32.196  15.142  1.00  0.00     0.681 A
HETATM    5  N3  UNL     1      20.293  31.440  14.192  1.00  0.00    -0.226 N
ATOM      6  H3  UNL     1      19.602  30.816  13.776  1.00  0.00     0.177 HD
HETATM    7  N7  UNL     1      18.543  32.126  15.400  1.00  0.00    -0.191 N
ATOM      8  H7  UNL     1      17.954  31.461  14.898  1.00  0.00     0.184 HD
HETATM    9  C18 UNL     1      18.016  32.940  16.316  1.00  0.00     0.067 A
HETATM   10  C19 UNL     1      16.641  32.870  16.553  1.00  0.00     0.070 A
HETATM   11  C20 UNL     1      16.047  33.699  17.476  1.00  0.00     0.103 A
HETATM   12  C22 UNL     1      16.830  34.625  18.187  1.00  0.00     0.102 A
HETATM   13  C24 UNL     1      18.183  34.679  17.936  1.00  0.00     0.058 A
HETATM   14  C25 UNL     1      18.785  33.843  17.005  1.00  0.00     0.053 A
ENDROOT
BRANCH   5  15
HETATM   15  C8  UNL     1      21.603  31.385  13.662  1.00  0.00     0.140 C
BRANCH  15  16
HETATM   16  C9  UNL     1      22.466  30.231  14.039  1.00  0.00     0.050 C
BRANCH  16  17
HETATM   17  C10 UNL     1      21.950  28.887  13.612  1.00  0.00     0.274 C
BRANCH  17  18
HETATM   18  N4  UNL     1      22.678  28.356  12.488  1.00  0.00     0.091 N
HETATM   19  C11 UNL     1      22.603  26.914  12.425  1.00  0.00     0.291 C
HETATM   20  C12 UNL     1      21.522  26.452  11.446  1.00  0.00     0.147 C
HETATM   21  N5  UNL     1      20.391  27.293  11.663  1.00  0.00    -0.409 N
HETATM   22  C16 UNL     1      20.642  28.597  11.156  1.00  0.00     0.147 C
HETATM   23  C17 UNL     1      22.145  28.887  11.223  1.00  0.00     0.291 C
BRANCH  21  24
HETATM   24  C13 UNL     1      19.107  26.762  11.534  1.00  0.00     0.123 C
BRANCH  24  25
HETATM   25  C14 UNL     1      18.290  27.089  12.799  1.00  0.00     0.086 C
BRANCH  25  26
HETATM   26  C15 UNL     1      17.763  28.469  12.740  1.00  0.00     0.092 C
HETATM   27  N6  UNL     1      18.036  29.368  13.788  1.00  0.00    -0.095 NA
HETATM   28  S1  UNL     1      16.879  28.927  11.456  1.00  0.00    -0.069 SA
ENDBRANCH  25  26
ENDBRANCH  24  25
ENDBRANCH  21  24
ENDBRANCH  17  18
ENDBRANCH  16  17
ENDBRANCH  15  16
ENDBRANCH   5  15
BRANCH   1  29
HETATM   29  N1  UNL     1      20.820  34.720  17.335  1.00  0.00    -0.386 NA
BRANCH  29  30
HETATM   30  C5  UNL     1      21.561  35.583  17.992  1.00  0.00     0.110 A
HETATM   31  C4  UNL     1      21.919  36.872  17.588  1.00  0.00     0.047 A
HETATM   32  C3  UNL     1      22.710  37.697  18.349  1.00  0.00     0.040 A
HETATM   33  C2  UNL     1      23.191  37.278  19.560  1.00  0.00     0.074 A
HETATM   34  C27 UNL     1      22.867  36.012  20.014  1.00  0.00    -0.025 A
HETATM   35  C26 UNL     1      22.079  35.192  19.255  1.00  0.00     0.054 A
HETATM   36  C28 UNL     1      23.359  35.510  21.328  1.00  0.00     0.051 C
BRANCH  33  37
HETATM   37  O1  UNL     1      23.989  38.040  20.374  1.00  0.00    -0.355 OA
HETATM   38  C1  UNL     1      24.749  39.155  19.947  1.00  0.00     0.210 C
ENDBRANCH  33  37
ENDBRANCH  29  30
ENDBRANCH   1  29
BRANCH  11  39
HETATM   39  O2  UNL     1      14.718  33.691  17.758  1.00  0.00    -0.353 OA
HETATM   40  C21 UNL     1      13.779  34.314  16.928  1.00  0.00     0.210 C
ENDBRANCH  11  39
BRANCH  12  41
HETATM   41  O3  UNL     1      16.211  35.446  19.110  1.00  0.00    -0.353 OA
HETATM   42  C23 UNL     1      15.976  36.791  18.767  1.00  0.00     0.210 C
ENDBRANCH  12  41
TORSDOF 12
ENDMDL