MODEL 4
REMARK VINA RESULT: -8.750038290      2.067      9.732
REMARK  12 active torsions:
REMARK  status: ('A' for Active; 'I' for Inactive)
REMARK    1  A    between atoms: C2_2  and  C3_3
REMARK    2  A    between atoms: C3_3  and  O1_4
REMARK    3  A    between atoms: O1_4  and  C4_5
REMARK    4  A    between atoms: C9_10  and  O2_11
REMARK    5  A    between atoms: C11_13  and  N1_14
REMARK    6  A    between atoms: N1_14  and  C12_16
REMARK    7  A    between atoms: C12_16  and  C13_17
REMARK    8  A    between atoms: C13_17  and  N2_18
REMARK    9  A    between atoms: N6_26  and  C16_28
REMARK   10  A    between atoms: C19_31  and  N7_32
REMARK   11  A    between atoms: C24_38  and  O4_39
REMARK   12  A    between atoms: O4_39  and  C25_40
ROOT
HETATM    1  C4  UNL     1      20.624  28.171  11.441  1.00  0.00     0.104 A
HETATM    2  C5  UNL     1      19.607  28.757  12.109  1.00  0.00     0.071 A
HETATM    3  C6  UNL     1      19.797  29.902  12.888  1.00  0.00     0.068 A
HETATM    4  C7  UNL     1      21.074  30.466  12.992  1.00  0.00     0.038 A
HETATM    5  C8  UNL     1      22.092  29.844  12.297  1.00  0.00     0.057 A
HETATM    6  C9  UNL     1      21.934  28.718  11.519  1.00  0.00     0.102 A
HETATM    7  C11 UNL     1      21.234  31.608  13.756  1.00  0.00     0.129 A
HETATM    8  N5  UNL     1      20.144  32.127  14.364  1.00  0.00    -0.176 N
ATOM      9  H5  UNL     1      20.271  32.968  14.927  1.00  0.00     0.186 HD
HETATM   10  C15 UNL     1      18.908  31.618  14.280  1.00  0.00     0.686 A
HETATM   11  N6  UNL     1      17.890  32.072  14.790  1.00  0.00    -0.191 N
ATOM     12  H6  UNL     1      17.101  31.474  14.547  1.00  0.00     0.184 HD
HETATM   13  N8  UNL     1      18.764  30.475  13.517  1.00  0.00    -0.186 N
HETATM   14  C28 UNL     1      17.446  29.879  13.392  1.00  0.00     0.175 C
ENDROOT
BRANCH  11  15
HETATM   15  C16 UNL     1      17.443  33.105  15.573  1.00  0.00     0.052 A
HETATM   16  C17 UNL     1      16.561  34.025  14.972  1.00  0.00     0.032 A
HETATM   17  C18 UNL     1      16.083  35.123  15.644  1.00  0.00     0.035 A
HETATM   18  C19 UNL     1      16.460  35.353  16.939  1.00  0.00     0.070 A
HETATM   19  C24 UNL     1      17.334  34.456  17.568  1.00  0.00     0.097 A
HETATM   20  C27 UNL     1      17.797  33.362  16.867  1.00  0.00     0.069 A
BRANCH  18  21
HETATM   21  N7  UNL     1      15.968  36.500  17.627  1.00  0.00    -0.315 N
HETATM   22  C20 UNL     1      14.932  36.479  18.636  1.00  0.00     0.133 C
HETATM   23  C21 UNL     1      15.121  37.765  19.418  1.00  0.00     0.029 C
HETATM   24  C22 UNL     1      15.637  38.722  18.378  1.00  0.00     0.105 C
HETATM   25  C23 UNL     1      16.393  37.836  17.456  1.00  0.00     0.224 C
HETATM   26  O3  UNL     1      17.271  38.198  16.647  1.00  0.00    -0.273 OA
ENDBRANCH  18  21
BRANCH  19  27
HETATM   27  O4  UNL     1      17.670  34.751  18.858  1.00  0.00    -0.349 OA
BRANCH  27  28
HETATM   28  C25 UNL     1      18.910  35.084  19.387  1.00  0.00     0.171 C
HETATM   29  C26 UNL     1      19.315  36.513  18.998  1.00  0.00     0.034 C
ENDBRANCH  27  28
ENDBRANCH  19  27
ENDBRANCH  11  15
BRANCH   7  30
HETATM   30  N1  UNL     1      22.405  32.114  13.850  1.00  0.00    -0.374 N
ATOM     31  H1  UNL     1      22.783  32.519  12.993  1.00  0.00     0.161 HD
BRANCH  30  32
HETATM   32  C12 UNL     1      23.250  32.186  14.991  1.00  0.00     0.141 C
BRANCH  32  33
HETATM   33  C13 UNL     1      22.423  32.118  16.259  1.00  0.00     0.141 C
BRANCH  33  34
HETATM   34  N2  UNL     1      22.671  33.269  17.111  1.00  0.00    -0.365 N
HETATM   35  C14 UNL     1      22.000  34.360  17.062  1.00  0.00     0.197 C
HETATM   36  N3  UNL     1      20.921  34.592  16.163  1.00  0.00    -0.067 NA
HETATM   37  N4  UNL     1      22.344  35.407  17.959  1.00  0.00    -0.067 NA
ATOM     38  H2  UNL     1      23.427  33.205  17.793  1.00  0.00     0.161 HD
ENDBRANCH  33  34
ENDBRANCH  32  33
ENDBRANCH  30  32
ENDBRANCH   7  30
BRANCH   1  39
HETATM   39  O1  UNL     1      20.527  27.043  10.660  1.00  0.00    -0.345 OA
BRANCH  39  40
HETATM   40  C3  UNL     1      20.175  25.749  11.186  1.00  0.00     0.202 C
BRANCH  40  41
HETATM   41  C2  UNL     1      21.387  24.868  11.140  1.00  0.00    -0.011 C
HETATM   42  C1  UNL     1      22.082  24.575  10.071  1.00  0.00     0.009 C
ENDBRANCH  40  41
ENDBRANCH  39  40
ENDBRANCH   1  39
BRANCH   6  43
HETATM   43  O2  UNL     1      22.927  28.142  10.854  1.00  0.00    -0.353 OA
HETATM   44  C10 UNL     1      24.096  27.481  11.082  1.00  0.00     0.210 C
ENDBRANCH   6  43
TORSDOF 12
ENDMDL