MODEL 3
REMARK VINA RESULT: -7.868851930      0.670      1.432
REMARK  15 active torsions:
REMARK  status: ('A' for Active; 'I' for Inactive)
REMARK    1  A    between atoms: C2_2  and  C3_3
REMARK    2  A    between atoms: C3_3  and  C4_4
REMARK    3  A    between atoms: C4_4  and  C5_5
REMARK    4  A    between atoms: C5_5  and  C6_6
REMARK    5  A    between atoms: C6_6  and  C7_7
REMARK    6  A    between atoms: C7_7  and  C8_8
REMARK    7  A    between atoms: C8_8  and  C9_9
REMARK    8  A    between atoms: C9_9  and  C10_10
REMARK    9  A    between atoms: C10_10  and  C11_12
REMARK   10  A    between atoms: C17_19  and  O3_20
REMARK   11  A    between atoms: C19_23  and  O4_24
REMARK   12  A    between atoms: C20_26  and  O5_27
REMARK   13  A    between atoms: C27_36  and  C29_38
REMARK   14  A    between atoms: C29_38  and  C30_39
REMARK   15  A    between atoms: C30_39  and  O7_41
ROOT
HETATM    1  C11 UNL     1      19.549  28.987  12.491  1.00  0.00     0.133 A
HETATM    2  C12 UNL     1      18.725  28.785  13.748  1.00  0.00     0.144 A
HETATM    3  O2  UNL     1      18.685  27.794  14.446  1.00  0.00    -0.297 OA
HETATM    4  C13 UNL     1      18.219  30.112  13.576  1.00  0.00     0.074 A
HETATM    5  C14 UNL     1      19.055  30.410  12.376  1.00  0.00     0.038 A
HETATM    6  C15 UNL     1      20.005  31.496  12.516  1.00  0.00    -0.021 C
HETATM    7  C16 UNL     1      20.712  31.993  13.535  1.00  0.00     0.008 C
HETATM    8  C17 UNL     1      20.675  31.484  14.890  1.00  0.00     0.094 C
HETATM    9  C18 UNL     1      19.268  31.506  15.427  1.00  0.00     0.065 C
HETATM   10  C19 UNL     1      19.526  30.923  16.763  1.00  0.00     0.155 C
HETATM   11  C20 UNL     1      20.706  31.832  17.205  1.00  0.00     0.161 C
HETATM   12  C21 UNL     1      21.341  32.336  15.925  1.00  0.00     0.054 C
HETATM   13  C22 UNL     1      21.049  33.799  15.814  1.00  0.00     0.287 C
HETATM   14  N1  UNL     1      22.237  34.494  16.278  1.00  0.00     0.085 N
HETATM   15  C23 UNL     1      21.926  35.486  17.288  1.00  0.00     0.309 C
HETATM   16  C24 UNL     1      23.074  33.483  16.938  1.00  0.00     0.277 C
HETATM   17  C25 UNL     1      22.815  32.275  16.017  1.00  0.00     0.026 C
HETATM   18  C26 UNL     1      23.517  32.598  14.744  1.00  0.00     0.012 C
HETATM   19  C27 UNL     1      18.142  31.167  14.607  1.00  0.00    -0.015 C
HETATM   20  C28 UNL     1      17.661  32.419  13.833  1.00  0.00     0.017 C
ENDROOT
BRANCH   1  21
HETATM   21  C10 UNL     1      19.111  28.100  11.375  1.00  0.00     0.138 C
HETATM   22  O1  UNL     1      17.958  28.211  10.997  1.00  0.00    -0.297 OA
BRANCH  21  23
HETATM   23  C9  UNL     1      19.976  27.118  10.713  1.00  0.00     0.079 C
BRANCH  23  24
HETATM   24  C8  UNL     1      21.431  27.478  10.915  1.00  0.00     0.007 C
BRANCH  24  25
HETATM   25  C7  UNL     1      22.090  26.494  11.868  1.00  0.00     0.000 C
BRANCH  25  26
HETATM   26  C6  UNL     1      23.581  26.627  11.865  1.00  0.00     0.000 C
BRANCH  26  27
HETATM   27  C5  UNL     1      24.215  25.589  10.970  1.00  0.00     0.000 C
BRANCH  27  28
HETATM   28  C4  UNL     1      24.478  26.126   9.584  1.00  0.00     0.000 C
BRANCH  28  29
HETATM   29  C3  UNL     1      23.999  25.235   8.485  1.00  0.00    -0.000 C
BRANCH  29  30
HETATM   30  C2  UNL     1      22.966  24.284   9.084  1.00  0.00    -0.005 C
HETATM   31  C1  UNL     1      21.684  24.459   8.285  1.00  0.00     0.005 C
ENDBRANCH  29  30
ENDBRANCH  28  29
ENDBRANCH  27  28
ENDBRANCH  26  27
ENDBRANCH  25  26
ENDBRANCH  24  25
ENDBRANCH  23  24
ENDBRANCH  21  23
ENDBRANCH   1  21
BRANCH  19  32
HETATM   32  C29 UNL     1      16.944  30.811  15.462  1.00  0.00     0.121 C
BRANCH  32  33
HETATM   33  C30 UNL     1      16.200  31.913  16.041  1.00  0.00     0.259 C
HETATM   34  O6  UNL     1      14.956  31.981  15.744  1.00  0.00    -0.265 OA
BRANCH  33  35
HETATM   35  O7  UNL     1      16.648  32.913  16.873  1.00  0.00    -0.326 OA
HETATM   36  C31 UNL     1      15.803  33.817  17.548  1.00  0.00     0.213 C
ENDBRANCH  33  35
ENDBRANCH  32  33
ENDBRANCH  19  32
BRANCH   8  37
HETATM   37  O3  UNL     1      21.322  30.251  15.006  1.00  0.00    -0.384 OA
ATOM     38  H3  UNL     1      20.905  29.689  15.648  1.00  0.00     0.211 HD
ENDBRANCH   8  37
BRANCH  10  39
HETATM   39  O4  UNL     1      20.061  29.648  16.809  1.00  0.00    -0.392 OA
ATOM     40  H4  UNL     1      20.981  29.567  17.033  1.00  0.00     0.210 HD
ENDBRANCH  10  39
BRANCH  11  41
HETATM   41  O5  UNL     1      21.654  31.109  17.914  1.00  0.00    -0.392 OA
ATOM     42  H5  UNL     1      22.021  31.628  18.620  1.00  0.00     0.210 HD
ENDBRANCH  11  41
TORSDOF 15
ENDMDL