MODEL 3
REMARK VINA RESULT: -9.473339334      2.479      4.765
REMARK  12 active torsions:
REMARK  status: ('A' for Active; 'I' for Inactive)
REMARK    1  A    between atoms: C2_2  and  C3_3
REMARK    2  A    between atoms: C3_3  and  N1_4
REMARK    3  A    between atoms: C5_6  and  C6_7
REMARK    4  A    between atoms: C6_7  and  O1_8
REMARK    5  A    between atoms: N2_10  and  O2_12
REMARK       I    between atoms: N3_14  and  C7_15
REMARK    6  A    between atoms: C7_15  and  C8_17
REMARK    7  A    between atoms: N4_22  and  C13_23
REMARK    8  A    between atoms: C13_23  and  C17_27
REMARK    9  A    between atoms: C14_24  and  C15_25
REMARK       I    between atoms: C17_27  and  N5_29
REMARK   10  A    between atoms: N5_29  and  C18_31
REMARK   11  A    between atoms: C18_31  and  C19_32
REMARK   12  A    between atoms: C19_32  and  C20_33
ROOT
HETATM    1  C8  UNL     1      19.671  33.607  15.909  1.00  0.00     0.155 C
HETATM    2  C9  UNL     1      21.025  33.262  15.290  1.00  0.00     0.030 C
HETATM    3  C10 UNL     1      21.858  32.472  16.281  1.00  0.00     0.003 C
HETATM    4  C11 UNL     1      21.067  31.290  16.813  1.00  0.00     0.015 C
HETATM    5  C12 UNL     1      19.816  31.188  16.021  1.00  0.00     0.097 C
HETATM    6  N4  UNL     1      18.970  32.363  16.142  1.00  0.00    -0.266 NA
ENDROOT
BRANCH   6   7
HETATM    7  C13 UNL     1      17.778  32.182  15.392  1.00  0.00     0.076 C
HETATM    8  C14 UNL     1      16.538  32.884  15.567  1.00  0.00     0.002 C
BRANCH   8   9
HETATM    9  C15 UNL     1      15.716  32.874  16.785  1.00  0.00     0.025 C
HETATM   10  C16 UNL     1      14.338  33.465  16.628  1.00  0.00     0.009 C
ENDBRANCH   8   9
BRANCH   7  11
HETATM   11  C17 UNL     1      17.987  31.613  14.070  1.00  0.00     0.262 C
HETATM   12  O4  UNL     1      18.710  32.212  13.187  1.00  0.00    -0.267 OA
HETATM   13  N5  UNL     1      17.449  30.377  13.628  1.00  0.00    -0.355 N
ATOM     14  H5  UNL     1      16.816  29.871  14.247  1.00  0.00     0.162 HD
BRANCH  13  15
HETATM   15  C18 UNL     1      17.760  29.805  12.338  1.00  0.00     0.138 C
BRANCH  15  16
HETATM   16  C19 UNL     1      18.592  28.561  12.532  1.00  0.00     0.019 C
HETATM   17  C24 UNL     1      18.786  27.851  11.192  1.00  0.00     0.017 C
HETATM   18  C25 UNL     1      18.370  26.431  11.378  1.00  0.00     0.001 C
HETATM   19  C26 UNL     1      17.690  26.305  12.701  1.00  0.00     0.001 C
HETATM   20  C27 UNL     1      17.994  27.568  13.469  1.00  0.00     0.017 C
BRANCH  16  21
HETATM   21  C20 UNL     1      19.975  28.922  12.976  1.00  0.00     0.035 A
HETATM   22  C21 UNL     1      20.628  28.268  13.995  1.00  0.00     0.113 A
HETATM   23  N6  UNL     1      21.872  28.638  14.417  1.00  0.00    -0.372 N
HETATM   24  C22 UNL     1      22.498  29.672  13.831  1.00  0.00     0.104 A
ATOM     25  H6  UNL     1      22.326  28.130  15.176  1.00  0.00     0.164 HD
HETATM   26  C23 UNL     1      21.848  30.326  12.810  1.00  0.00     0.105 A
HETATM   27  N7  UNL     1      20.624  29.964  12.395  1.00  0.00    -0.366 N
ATOM     28  H7  UNL     1      20.177  30.477  11.635  1.00  0.00     0.165 HD
ENDBRANCH  16  21
ENDBRANCH  15  16
ENDBRANCH  13  15
ENDBRANCH   7  11
ENDBRANCH   6   7
BRANCH   1  29
HETATM   29  C7  UNL     1      19.866  34.334  17.181  1.00  0.00     0.239 C
HETATM   30  N3  UNL     1      19.049  35.364  17.628  1.00  0.00    -0.325 N
HETATM   31  C5  UNL     1      19.241  36.225  18.819  1.00  0.00     0.178 C
HETATM   32  C28 UNL     1      17.776  35.800  17.097  1.00  0.00     0.223 C
HETATM   33  C4  UNL     1      18.772  37.534  18.230  1.00  0.00     0.130 C
HETATM   34  N1  UNL     1      17.465  37.062  17.687  1.00  0.00    -0.274 NA
HETATM   35  O3  UNL     1      20.819  34.013  17.914  1.00  0.00    -0.271 OA
BRANCH  31  36
HETATM   36  C6  UNL     1      20.601  36.224  19.334  1.00  0.00     0.160 C
HETATM   37  N2  UNL     1      21.045  35.521  20.271  1.00  0.00    -0.249 N
ATOM     38  H2  UNL     1      22.031  35.660  20.489  1.00  0.00     0.196 HD
BRANCH  36  39
HETATM   39  O1  UNL     1      21.521  37.115  18.710  1.00  0.00    -0.347 OA
ATOM     40  H1  UNL     1      21.853  36.858  17.857  1.00  0.00     0.219 HD
ENDBRANCH  36  39
BRANCH  37  41
HETATM   41  O2  UNL     1      20.414  34.612  21.029  1.00  0.00    -0.288 OA
ATOM     42  H2  UNL     1      20.693  34.203  21.839  1.00  0.00     0.244 HD
ENDBRANCH  37  41
ENDBRANCH  31  36
BRANCH  34  43
HETATM   43  C3  UNL     1      16.568  37.114  18.772  1.00  0.00     0.060 C
BRANCH  43  44
HETATM   44  C2  UNL     1      15.423  36.177  18.737  1.00  0.00     0.001 C
HETATM   45  C1  UNL     1      14.230  36.631  19.079  1.00  0.00     0.012 C
ENDBRANCH  43  44
ENDBRANCH  34  43
ENDBRANCH   1  29
TORSDOF 12
ENDMDL