MODEL 3
REMARK VINA RESULT: -8.817780879      1.190      1.558
REMARK  14 active torsions:
REMARK  status: ('A' for Active; 'I' for Inactive)
REMARK    1  A    between atoms: C4_5  and  C5_6
REMARK    2  A    between atoms: C4_5  and  C17_23
REMARK    3  A    between atoms: C5_6  and  C6_7
REMARK    4  A    between atoms: C7_8  and  C8_9
REMARK    5  A    between atoms: C9_10  and  C10_11
REMARK    6  A    between atoms: C10_11  and  C11_12
REMARK    7  A    between atoms: C11_12  and  C12_13
REMARK    8  A    between atoms: C12_13  and  N2_14
REMARK    9  A    between atoms: N2_14  and  C15_17
REMARK   10  A    between atoms: C15_17  and  C16_18
REMARK   11  A    between atoms: C16_18  and  N3_19
REMARK   12  A    between atoms: C17_23  and  C18_24
REMARK   13  A    between atoms: C25_32  and  N4_33
REMARK   14  A    between atoms: C28_38  and  N6_39
ROOT
HETATM    1  C18 UNL     1      19.209  34.144  17.121  1.00  0.00     0.265 C
HETATM    2  O1  UNL     1      17.975  34.016  17.749  1.00  0.00    -0.355 OA
HETATM    3  C19 UNL     1      16.964  34.486  16.929  1.00  0.00     0.133 C
HETATM    4  C20 UNL     1      15.664  34.715  17.664  1.00  0.00     0.032 C
HETATM    5  C21 UNL     1      14.525  34.293  16.739  1.00  0.00     0.002 C
HETATM    6  C22 UNL     1      14.585  32.789  16.548  1.00  0.00     0.001 C
HETATM    7  C23 UNL     1      16.016  32.320  16.347  1.00  0.00     0.011 C
HETATM    8  C24 UNL     1      16.787  33.501  15.797  1.00  0.00     0.064 C
HETATM    9  C25 UNL     1      18.167  33.134  15.300  1.00  0.00     0.240 C
HETATM   10  O2  UNL     1      19.177  33.934  15.782  1.00  0.00    -0.336 OA
ENDROOT
BRANCH   1  11
HETATM   11  C17 UNL     1      19.711  35.539  17.425  1.00  0.00     0.103 C
BRANCH  11  12
HETATM   12  C4  UNL     1      21.103  35.561  17.975  1.00  0.00     0.168 C
HETATM   13  N1  UNL     1      21.653  36.867  18.288  1.00  0.00     0.094 N
HETATM   14  C1  UNL     1      20.645  37.889  18.506  1.00  0.00     0.310 C
HETATM   15  C2  UNL     1      22.222  36.414  19.542  1.00  0.00     0.275 C
HETATM   16  C3  UNL     1      21.284  35.208  19.425  1.00  0.00     0.072 C
BRANCH  12  17
HETATM   17  C5  UNL     1      22.127  34.854  17.067  1.00  0.00     0.069 C
BRANCH  17  18
HETATM   18  C6  UNL     1      22.393  33.496  17.630  1.00  0.00    -0.024 C
HETATM   19  C7  UNL     1      22.465  32.393  16.914  1.00  0.00    -0.004 C
BRANCH  19  20
HETATM   20  C8  UNL     1      22.309  32.308  15.489  1.00  0.00    -0.004 C
HETATM   21  C9  UNL     1      22.199  31.111  14.877  1.00  0.00    -0.023 C
BRANCH  21  22
HETATM   22  C10 UNL     1      22.052  30.975  13.488  1.00  0.00     0.055 C
BRANCH  22  23
HETATM   23  C11 UNL     1      21.791  29.380  13.481  1.00  0.00     0.002 C
BRANCH  23  24
HETATM   24  C12 UNL     1      22.778  28.514  13.074  1.00  0.00     0.198 C
BRANCH  24  25
HETATM   25  N2  UNL     1      22.751  27.526  12.052  1.00  0.00    -0.053 N
HETATM   26  C13 UNL     1      23.964  26.764  11.908  1.00  0.00     0.277 C
HETATM   27  C14 UNL     1      22.688  28.319  10.772  1.00  0.00     0.277 C
BRANCH  25  28
HETATM   28  C15 UNL     1      21.606  26.665  12.027  1.00  0.00     0.269 C
BRANCH  28  29
HETATM   29  C16 UNL     1      21.836  25.348  11.302  1.00  0.00     0.257 C
BRANCH  29  30
HETATM   30  N3  UNL     1      20.945  24.297  11.745  1.00  0.00    -0.078 N
ATOM     31  H33 UNL     1      20.399  24.598  12.552  1.00  0.00     0.274 HD
ATOM     32  H32 UNL     1      20.188  24.154  11.077  1.00  0.00     0.274 HD
ATOM     33  H31 UNL     1      21.429  23.421  11.940  1.00  0.00     0.274 HD
ENDBRANCH  29  30
ENDBRANCH  28  29
ENDBRANCH  25  28
ENDBRANCH  24  25
ENDBRANCH  23  24
ENDBRANCH  22  23
ENDBRANCH  21  22
ENDBRANCH  19  20
ENDBRANCH  17  18
ENDBRANCH  12  17
ENDBRANCH  11  12
ENDBRANCH   1  11
BRANCH   9  34
HETATM   34  N4  UNL     1      18.410  31.713  15.383  1.00  0.00    -0.299 N
HETATM   35  C26 UNL     1      18.920  30.972  16.380  1.00  0.00     0.188 A
HETATM   36  N5  UNL     1      18.957  29.673  16.009  1.00  0.00    -0.346 N
HETATM   37  C27 UNL     1      18.472  29.563  14.778  1.00  0.00     0.122 A
ATOM     38  H5  UNL     1      19.301  28.902  16.581  1.00  0.00     0.167 HD
HETATM   39  C28 UNL     1      18.304  28.434  13.973  1.00  0.00     0.131 A
HETATM   40  C30 UNL     1      18.132  30.826  14.384  1.00  0.00     0.142 A
HETATM   41  N7  UNL     1      17.777  28.652  12.760  1.00  0.00    -0.337 N
HETATM   42  C29 UNL     1      17.440  29.887  12.365  1.00  0.00     0.183 A
ATOM     43  H7  UNL     1      17.629  27.865  12.128  1.00  0.00     0.168 HD
HETATM   44  N8  UNL     1      17.604  30.981  13.147  1.00  0.00    -0.336 N
ATOM     45  H8  UNL     1      17.333  31.905  12.810  1.00  0.00     0.168 HD
BRANCH  39  46
HETATM   46  N6  UNL     1      18.619  27.244  14.318  1.00  0.00    -0.383 N
ATOM     47  H62 UNL     1      19.191  27.097  15.149  1.00  0.00     0.157 HD
ATOM     48  H61 UNL     1      18.333  26.402  13.818  1.00  0.00     0.157 HD
ENDBRANCH  39  46
ENDBRANCH   9  34
TORSDOF 14
ENDMDL