MODEL 5
REMARK VINA RESULT: -8.019243445      2.581      9.556
REMARK  15 active torsions:
REMARK  status: ('A' for Active; 'I' for Inactive)
REMARK    1  A    between atoms: O1_2  and  C2_3
REMARK    2  A    between atoms: C4_5  and  C5_6
REMARK    3  A    between atoms: C5_6  and  O2_7
REMARK    4  A    between atoms: C5_6  and  N1_9
REMARK    5  A    between atoms: N1_9  and  C6_11
REMARK    6  A    between atoms: C6_11  and  C7_12
REMARK    7  A    between atoms: C7_12  and  C8_13
REMARK    8  A    between atoms: C8_13  and  N2_14
REMARK    9  A    between atoms: C16_22  and  N3_23
REMARK   10  A    between atoms: N3_23  and  C17_25
REMARK   11  A    between atoms: C21_37  and  N8_38
REMARK   12  A    between atoms: N8_38  and  C22_39
REMARK   13  A    between atoms: C22_39  and  C23_40
REMARK   14  A    between atoms: C23_40  and  C24_41
REMARK   15  A    between atoms: C24_41  and  N9_42
ROOT
HETATM    1  N3  UNL     1      21.101  27.474  11.020  1.00  0.00    -0.339 N
ATOM      2  H3  UNL     1      20.474  27.581  10.223  1.00  0.00     0.167 HD
ENDROOT
BRANCH   1   3
HETATM    3  C16 UNL     1      20.770  27.893  12.352  1.00  0.00     0.067 A
HETATM    4  C2  UNL     1      19.562  28.676  12.390  1.00  0.00     0.095 A
HETATM    5  C3  UNL     1      19.167  29.297  13.523  1.00  0.00     0.054 A
HETATM    6  C4  UNL     1      19.937  29.194  14.711  1.00  0.00     0.017 A
HETATM    7  C14 UNL     1      21.066  28.439  14.649  1.00  0.00     0.018 A
HETATM    8  C15 UNL     1      21.481  27.787  13.474  1.00  0.00     0.033 A
BRANCH   4   9
HETATM    9  O1  UNL     1      18.853  28.752  11.209  1.00  0.00    -0.354 OA
HETATM   10  C1  UNL     1      17.445  28.724  11.179  1.00  0.00     0.210 C
ENDBRANCH   4   9
BRANCH   6  11
HETATM   11  C5  UNL     1      19.579  30.068  15.792  1.00  0.00     0.146 C
BRANCH  11  12
HETATM   12  O2  UNL     1      18.269  30.175  16.027  1.00  0.00    -0.346 OA
ATOM     13  H2  UNL     1      18.033  30.338  16.933  1.00  0.00     0.219 HD
ENDBRANCH  11  12
BRANCH  11  14
HETATM   14  N1  UNL     1      20.371  30.819  16.643  1.00  0.00    -0.370 N
ATOM     15  H1  UNL     1      20.334  30.700  17.656  1.00  0.00     0.161 HD
BRANCH  14  16
HETATM   16  C6  UNL     1      21.297  31.827  15.993  1.00  0.00     0.123 C
BRANCH  16  17
HETATM   17  C7  UNL     1      20.443  32.835  15.307  1.00  0.00     0.050 C
BRANCH  17  18
HETATM   18  C8  UNL     1      19.814  33.813  16.247  1.00  0.00     0.274 C
BRANCH  18  19
HETATM   19  N2  UNL     1      18.441  33.934  16.137  1.00  0.00     0.088 N
HETATM   20  C9  UNL     1      17.638  33.405  17.175  1.00  0.00     0.272 C
HETATM   21  C10 UNL     1      16.231  33.999  16.972  1.00  0.00     0.030 C
HETATM   22  C11 UNL     1      16.270  35.059  15.847  1.00  0.00     0.003 C
HETATM   23  C12 UNL     1      16.766  34.453  14.556  1.00  0.00     0.030 C
HETATM   24  C13 UNL     1      17.918  33.504  14.857  1.00  0.00     0.272 C
ENDBRANCH  18  19
ENDBRANCH  17  18
ENDBRANCH  16  17
ENDBRANCH  14  16
ENDBRANCH  11  14
ENDBRANCH   6  11
ENDBRANCH   1   3
BRANCH   1  25
HETATM   25  C17 UNL     1      22.317  26.930  10.937  1.00  0.00     0.125 A
HETATM   26  N4  UNL     1      23.410  27.613  11.327  1.00  0.00    -0.338 N
HETATM   27  C18 UNL     1      24.679  27.231  11.004  1.00  0.00     0.183 A
ATOM     28  H4  UNL     1      23.283  28.454  11.890  1.00  0.00     0.168 HD
HETATM   29  N5  UNL     1      24.836  26.140  10.280  1.00  0.00    -0.338 N
HETATM   30  C19 UNL     1      23.791  25.403   9.855  1.00  0.00     0.126 A
ATOM     31  H5  UNL     1      25.780  25.843  10.034  1.00  0.00     0.168 HD
HETATM   32  N6  UNL     1      24.058  24.348   9.053  1.00  0.00    -0.338 N
HETATM   33  C29 UNL     1      22.511  25.804  10.191  1.00  0.00     0.110 A
HETATM   34  C20 UNL     1      23.029  23.662   8.560  1.00  0.00     0.184 A
ATOM     35  H6  UNL     1      25.019  24.084   8.834  1.00  0.00     0.168 HD
HETATM   36  N7  UNL     1      21.774  23.994   8.850  1.00  0.00    -0.326 N
HETATM   37  C21 UNL     1      21.441  25.082   9.687  1.00  0.00     0.196 A
ATOM     38  H7  UNL     1      21.019  23.437   8.450  1.00  0.00     0.169 HD
BRANCH  37  39
HETATM   39  N8  UNL     1      20.285  25.251   9.975  1.00  0.00    -0.403 NA
BRANCH  39  40
HETATM   40  C22 UNL     1      18.999  25.431  10.288  1.00  0.00     0.159 C
BRANCH  40  41
HETATM   41  C23 UNL     1      17.969  25.256   9.150  1.00  0.00     0.089 C
BRANCH  41  42
HETATM   42  C24 UNL     1      18.452  25.888   7.915  1.00  0.00     0.278 C
BRANCH  42  43
HETATM   43  N9  UNL     1      18.699  24.999   6.789  1.00  0.00     0.088 N
HETATM   44  C25 UNL     1      17.689  24.994   5.782  1.00  0.00     0.272 C
HETATM   45  C26 UNL     1      17.546  26.397   5.285  1.00  0.00     0.032 C
HETATM   46  C27 UNL     1      19.007  26.868   5.391  1.00  0.00     0.032 C
HETATM   47  C28 UNL     1      19.773  25.712   6.027  1.00  0.00     0.272 C
ENDBRANCH  42  43
ENDBRANCH  41  42
ENDBRANCH  40  41
ENDBRANCH  39  40
ENDBRANCH  37  39
ENDBRANCH   1  25
TORSDOF 15
ENDMDL