MODEL 3
REMARK VINA RESULT: -8.332168990      3.298      9.695
REMARK  13 active torsions:
REMARK  status: ('A' for Active; 'I' for Inactive)
REMARK    1  A    between atoms: C4_4  and  C5_5
REMARK    2  A    between atoms: C5_5  and  O2_7
REMARK    3  A    between atoms: O2_7  and  C6_8
REMARK    4  A    between atoms: C8_11  and  C9_12
REMARK    5  A    between atoms: C9_12  and  C10_13
REMARK    6  A    between atoms: C11_14  and  C12_15
REMARK    7  A    between atoms: C12_15  and  C13_16
REMARK    8  A    between atoms: C13_16  and  C14_17
REMARK    9  A    between atoms: C19_24  and  O6_25
REMARK   10  A    between atoms: N1_28  and  C21_29
REMARK   11  A    between atoms: C21_29  and  C22_30
REMARK   12  A    between atoms: C22_30  and  C23_31
REMARK   13  A    between atoms: C23_31  and  N2_32
ROOT
HETATM    1  C1  UNL     1      20.929  30.751  12.523  1.00  0.00     0.016 C
HETATM    2  C2  UNL     1      21.422  30.685  13.961  1.00  0.00    -0.028 C
HETATM    3  C3  UNL     1      22.601  29.665  13.902  1.00  0.00     0.054 C
HETATM    4  C4  UNL     1      22.142  28.466  13.151  1.00  0.00     0.014 C
HETATM    5  C16 UNL     1      20.919  28.088  13.396  1.00  0.00    -0.013 C
HETATM    6  C17 UNL     1      19.985  28.732  14.328  1.00  0.00     0.036 C
HETATM    7  C18 UNL     1      20.479  30.047  14.899  1.00  0.00     0.032 C
HETATM    8  C19 UNL     1      19.283  30.806  15.335  1.00  0.00     0.161 C
HETATM    9  C20 UNL     1      19.183  32.234  14.916  1.00  0.00     0.095 C
HETATM   10  N1  UNL     1      20.147  33.061  15.473  1.00  0.00    -0.366 N
HETATM   11  C28 UNL     1      21.483  33.009  15.005  1.00  0.00     0.093 A
HETATM   12  C29 UNL     1      22.414  32.120  15.802  1.00  0.00     0.033 A
HETATM   13  C30 UNL     1      22.062  31.933  14.323  1.00  0.00     0.019 A
ENDROOT
BRANCH   4  14
HETATM   14  C5  UNL     1      23.012  27.798  12.200  1.00  0.00     0.289 C
HETATM   15  O1  UNL     1      24.097  28.336  11.806  1.00  0.00    -0.260 OA
BRANCH  14  16
HETATM   16  O2  UNL     1      22.736  26.540  11.653  1.00  0.00    -0.310 OA
BRANCH  16  17
HETATM   17  C6  UNL     1      22.452  26.434  10.295  1.00  0.00     0.158 C
HETATM   18  C7  UNL     1      22.490  24.951   9.942  1.00  0.00     0.200 C
HETATM   19  O3  UNL     1      21.279  24.641   9.359  1.00  0.00    -0.383 OA
HETATM   20  C8  UNL     1      20.743  25.817   8.833  1.00  0.00     0.127 C
HETATM   21  C15 UNL     1      20.999  26.759  10.008  1.00  0.00     0.067 C
BRANCH  20  22
HETATM   22  C9  UNL     1      19.266  25.729   8.591  1.00  0.00     0.059 C
BRANCH  22  23
HETATM   23  C10 UNL     1      18.717  26.994   8.066  1.00  0.00    -0.028 C
HETATM   24  C11 UNL     1      17.932  27.803   8.734  1.00  0.00    -0.030 C
BRANCH  24  25
HETATM   25  C12 UNL     1      17.447  27.629  10.108  1.00  0.00     0.037 C
BRANCH  25  26
HETATM   26  C13 UNL     1      18.066  28.766  10.940  1.00  0.00     0.117 C
BRANCH  26  27
HETATM   27  C14 UNL     1      16.975  29.537  11.546  1.00  0.00     0.172 C
HETATM   28  O4  UNL     1      17.248  30.222  12.591  1.00  0.00    -0.648 OA
HETATM   29  O5  UNL     1      15.722  29.492  10.974  1.00  0.00    -0.648 OA
ENDBRANCH  26  27
ENDBRANCH  25  26
ENDBRANCH  24  25
ENDBRANCH  22  23
ENDBRANCH  20  22
ENDBRANCH  16  17
ENDBRANCH  14  16
ENDBRANCH   4  14
BRANCH   8  30
HETATM   30  O6  UNL     1      19.209  30.729  16.720  1.00  0.00    -0.390 OA
ATOM     31  H6  UNL     1      18.304  30.870  16.974  1.00  0.00     0.210 HD
ENDBRANCH   8  30
BRANCH  10  32
HETATM   32  C21 UNL     1      19.726  34.370  15.783  1.00  0.00     0.065 C
BRANCH  32  33
HETATM   33  C22 UNL     1      19.191  34.780  17.081  1.00  0.00     0.075 C
BRANCH  33  34
HETATM   34  C23 UNL     1      17.777  34.467  17.393  1.00  0.00     0.277 C
BRANCH  34  35
HETATM   35  N2  UNL     1      16.897  35.108  16.400  1.00  0.00     0.091 N
HETATM   36  C24 UNL     1      15.954  35.981  17.111  1.00  0.00     0.291 C
HETATM   37  C25 UNL     1      15.240  35.205  18.164  1.00  0.00     0.144 C
HETATM   38  N3  UNL     1      14.627  33.986  17.739  1.00  0.00    -0.418 N
HETATM   39  C26 UNL     1      15.365  33.230  16.755  1.00  0.00     0.144 C
ATOM     40  H3  UNL     1      13.728  33.672  18.105  1.00  0.00     0.153 HD
HETATM   41  C27 UNL     1      16.073  34.092  15.766  1.00  0.00     0.291 C
ENDBRANCH  34  35
ENDBRANCH  33  34
ENDBRANCH  32  33
ENDBRANCH  10  32
TORSDOF 13
ENDMDL