MODEL 5
REMARK VINA RESULT: -8.474462344      3.621      7.444
REMARK  15 active torsions:
REMARK  status: ('A' for Active; 'I' for Inactive)
REMARK    1  A    between atoms: C2_3  and  C3_5
REMARK    2  A    between atoms: C3_5  and  O2_6
REMARK    3  A    between atoms: O2_6  and  C4_7
REMARK    4  A    between atoms: C5_10  and  C6_11
REMARK    5  A    between atoms: C6_11  and  C7_12
REMARK    6  A    between atoms: C7_12  and  O3_13
REMARK    7  A    between atoms: C7_12  and  N3_15
REMARK    8  A    between atoms: N3_15  and  C8_17
REMARK    9  A    between atoms: C8_17  and  C9_18
REMARK   10  A    between atoms: C8_17  and  C16_26
REMARK   11  A    between atoms: C9_18  and  C10_19
REMARK   12  A    between atoms: C10_19  and  C11_20
REMARK   13  A    between atoms: C11_20  and  C12_22
REMARK   14  A    between atoms: C16_26  and  O6_28
REMARK   15  A    between atoms: C19_31  and  C20_32
ROOT
HETATM    1  C1  UNL     1      20.982  39.578  15.902  1.00  0.00     0.264 C
HETATM    2  N1  UNL     1      21.436  38.941  17.066  1.00  0.00    -0.419 NA
HETATM    3  C2  UNL     1      21.865  38.347  18.190  1.00  0.00     0.310 C
HETATM    4  O1  UNL     1      21.846  38.779  19.365  1.00  0.00    -0.255 OA
ENDROOT
BRANCH   3   5
HETATM    5  C3  UNL     1      22.474  36.923  17.942  1.00  0.00     0.297 C
BRANCH   5   6
HETATM    6  O2  UNL     1      21.613  36.004  18.389  1.00  0.00    -0.310 OA
BRANCH   6   7
HETATM    7  C4  UNL     1      20.385  35.556  18.135  1.00  0.00     0.240 A
HETATM    8  N2  UNL     1      19.617  35.562  16.977  1.00  0.00    -0.308 N
HETATM    9  C5  UNL     1      18.449  34.995  17.186  1.00  0.00     0.116 A
ATOM     10  H2  UNL     1      19.919  35.953  16.084  1.00  0.00     0.170 HD
HETATM   11  N4  UNL     1      18.488  34.611  18.537  1.00  0.00    -0.285 N
HETATM   12  N5  UNL     1      19.627  34.955  19.069  1.00  0.00    -0.264 N
ATOM     13  H4  UNL     1      17.734  34.132  19.030  1.00  0.00     0.188 HD
ATOM     14  H5  UNL     1      19.900  34.794  20.037  1.00  0.00     0.190 HD
BRANCH   9  15
HETATM   15  C6  UNL     1      17.165  34.738  16.495  1.00  0.00     0.092 A
HETATM   16  C18 UNL     1      16.012  34.243  17.302  1.00  0.00     0.037 A
HETATM   17  C19 UNL     1      16.080  35.687  16.733  1.00  0.00     0.045 A
BRANCH  15  18
HETATM   18  C7  UNL     1      17.237  34.133  15.160  1.00  0.00     0.129 C
BRANCH  18  19
HETATM   19  O3  UNL     1      17.324  35.119  14.214  1.00  0.00    -0.349 OA
ATOM     20  H3  UNL     1      17.876  34.826  13.498  1.00  0.00     0.219 HD
ENDBRANCH  18  19
BRANCH  18  21
HETATM   21  N3  UNL     1      17.233  32.847  14.657  1.00  0.00    -0.360 N
ATOM     22  H3  UNL     1      16.410  32.452  14.203  1.00  0.00     0.162 HD
BRANCH  21  23
HETATM   23  C8  UNL     1      18.450  32.088  14.805  1.00  0.00     0.183 C
BRANCH  23  24
HETATM   24  C9  UNL     1      18.681  31.428  16.097  1.00  0.00     0.043 C
BRANCH  24  25
HETATM   25  C10 UNL     1      20.054  30.988  16.386  1.00  0.00     0.081 C
BRANCH  25  26
HETATM   26  C11 UNL     1      21.125  31.971  16.127  1.00  0.00     0.134 C
HETATM   27  O4  UNL     1      21.255  32.885  16.980  1.00  0.00    -0.297 OA
BRANCH  26  28
HETATM   28  C12 UNL     1      22.059  32.024  14.985  1.00  0.00     0.009 C
HETATM   29  C13 UNL     1      22.094  30.602  14.366  1.00  0.00     0.022 C
HETATM   30  C14 UNL     1      21.638  32.956  13.886  1.00  0.00     0.022 C
HETATM   31  C15 UNL     1      23.446  32.346  15.425  1.00  0.00     0.022 C
ENDBRANCH  26  28
ENDBRANCH  25  26
ENDBRANCH  24  25
ENDBRANCH  23  24
BRANCH  23  32
HETATM   32  C16 UNL     1      18.355  31.072  13.651  1.00  0.00     0.281 C
HETATM   33  O5  UNL     1      18.823  31.423  12.566  1.00  0.00    -0.263 OA
BRANCH  32  34
HETATM   34  O6  UNL     1      17.799  29.878  13.896  1.00  0.00    -0.325 OA
HETATM   35  C17 UNL     1      18.337  28.605  13.636  1.00  0.00     0.213 C
ENDBRANCH  32  34
ENDBRANCH  23  32
ENDBRANCH  21  23
ENDBRANCH  18  21
ENDBRANCH  15  18
BRANCH  17  36
HETATM   36  C20 UNL     1      15.868  36.758  17.675  1.00  0.00    -0.040 A
HETATM   37  C21 UNL     1      14.632  36.530  18.448  1.00  0.00    -0.054 A
HETATM   38  C22 UNL     1      13.733  35.423  18.037  1.00  0.00     0.049 C
HETATM   39  C23 UNL     1      14.317  37.366  19.458  1.00  0.00     0.014 A
HETATM   40  C24 UNL     1      15.090  38.455  19.824  1.00  0.00    -0.061 A
HETATM   41  C25 UNL     1      14.666  39.321  20.964  1.00  0.00     0.048 C
HETATM   42  C26 UNL     1      16.241  38.655  19.094  1.00  0.00     0.014 A
HETATM   43  C27 UNL     1      16.620  37.809  18.037  1.00  0.00    -0.054 A
HETATM   44  C28 UNL     1      17.948  38.159  17.477  1.00  0.00     0.049 C
ENDBRANCH  17  36
ENDBRANCH   9  15
ENDBRANCH   6   7
ENDBRANCH   5   6
ENDBRANCH   3   5
TORSDOF 14
ENDMDL