MODEL 4
REMARK VINA RESULT: -8.579717942      2.200      3.075
REMARK  14 active torsions:
REMARK  status: ('A' for Active; 'I' for Inactive)
REMARK    1  A    between atoms: C2_2  and  C3_3
REMARK    2  A    between atoms: C3_3  and  C5_5
REMARK       I    between atoms: C5_5  and  N1_7
REMARK    3  A    between atoms: C9_12  and  C10_13
REMARK    4  A    between atoms: C10_13  and  C11_14
REMARK    5  A    between atoms: C11_14  and  C12_15
REMARK    6  A    between atoms: C12_15  and  C13_16
REMARK    7  A    between atoms: C13_16  and  C14_17
REMARK    8  A    between atoms: C15_20  and  C16_21
REMARK    9  A    between atoms: C16_21  and  C17_22
REMARK   10  A    between atoms: C17_22  and  O2_23
REMARK       I    between atoms: N4_28  and  C20_30
REMARK   11  A    between atoms: C20_30  and  C21_32
REMARK   12  A    between atoms: C21_32  and  N5_33
REMARK       I    between atoms: N5_33  and  C22_35
REMARK   13  A    between atoms: C22_35  and  O5_37
REMARK   14  A    between atoms: O5_37  and  C23_38
ROOT
HETATM    1  C14 UNL     1      21.822  31.374  14.894  1.00  0.00     0.055 A
HETATM    2  N2  UNL     1      22.269  30.621  13.878  1.00  0.00    -0.343 N
ATOM      3  H2  UNL     1      23.222  30.795  13.560  1.00  0.00     0.167 HD
HETATM    4  C15 UNL     1      21.591  29.674  13.248  1.00  0.00     0.085 A
HETATM    5  N3  UNL     1      20.335  29.282  13.498  1.00  0.00    -0.326 N
ATOM      6  H3  UNL     1      19.966  28.533  12.913  1.00  0.00     0.169 HD
HETATM    7  C19 UNL     1      19.519  29.767  14.426  1.00  0.00     0.154 A
HETATM    8  N4  UNL     1      18.312  29.363  14.633  1.00  0.00    -0.306 N
ATOM      9  H4  UNL     1      17.734  29.777  15.364  1.00  0.00     0.171 HD
HETATM   10  C20 UNL     1      17.818  28.325  13.812  1.00  0.00     0.241 C
HETATM   11  O3  UNL     1      17.666  27.189  14.288  1.00  0.00    -0.271 OA
HETATM   12  S1  UNL     1      20.225  31.028  15.366  1.00  0.00    -0.041 SA
ENDROOT
BRANCH   1  13
HETATM   13  C13 UNL     1      22.684  32.408  15.514  1.00  0.00     0.065 C
BRANCH  13  14
HETATM   14  C12 UNL     1      22.378  32.410  16.988  1.00  0.00     0.007 C
BRANCH  14  15
HETATM   15  C11 UNL     1      22.380  33.760  17.618  1.00  0.00     0.006 C
BRANCH  15  16
HETATM   16  C10 UNL     1      21.779  34.851  16.805  1.00  0.00     0.058 C
BRANCH  16  17
HETATM   17  C9  UNL     1      20.323  34.966  16.864  1.00  0.00     0.026 A
HETATM   18  C8  UNL     1      19.663  35.372  18.032  1.00  0.00     0.030 A
HETATM   19  C7  UNL     1      18.288  35.446  17.965  1.00  0.00     0.052 A
HETATM   20  C6  UNL     1      17.550  35.149  16.838  1.00  0.00     0.122 A
HETATM   21  N1  UNL     1      16.261  35.221  16.787  1.00  0.00    -0.312 N
HETATM   22  N7  UNL     1      18.275  34.764  15.755  1.00  0.00    -0.285 N
HETATM   23  C5  UNL     1      15.577  35.632  17.962  1.00  0.00     0.227 C
ATOM     24  H1  UNL     1      15.753  34.992  15.933  1.00  0.00     0.170 HD
HETATM   25  O1  UNL     1      15.510  34.814  18.929  1.00  0.00    -0.273 OA
HETATM   26  N6  UNL     1      19.582  34.684  15.786  1.00  0.00    -0.303 N
ATOM     27  H7  UNL     1      17.786  34.531  14.890  1.00  0.00     0.188 HD
ATOM     28  H6  UNL     1      20.064  34.389  14.938  1.00  0.00     0.186 HD
BRANCH  23  29
HETATM   29  C3  UNL     1      14.945  36.972  18.086  1.00  0.00     0.074 C
HETATM   30  C4  UNL     1      13.714  36.952  18.959  1.00  0.00     0.020 C
BRANCH  29  31
HETATM   31  C2  UNL     1      15.955  37.873  18.764  1.00  0.00     0.009 C
HETATM   32  C1  UNL     1      16.563  38.773  17.711  1.00  0.00     0.006 C
ENDBRANCH  29  31
ENDBRANCH  23  29
ENDBRANCH  16  17
ENDBRANCH  15  16
ENDBRANCH  14  15
ENDBRANCH  13  14
ENDBRANCH   1  13
BRANCH   4  33
HETATM   33  C16 UNL     1      22.333  28.963  12.126  1.00  0.00     0.102 C
BRANCH  33  34
HETATM   34  C17 UNL     1      22.124  27.500  12.394  1.00  0.00     0.174 C
BRANCH  34  35
HETATM   35  O2  UNL     1      21.119  26.948  11.646  1.00  0.00    -0.396 OA
HETATM   36  C18 UNL     1      21.406  25.659  11.276  1.00  0.00     0.201 C
ENDBRANCH  34  35
ENDBRANCH  33  34
ENDBRANCH   4  33
BRANCH  10  37
HETATM   37  C21 UNL     1      17.493  28.609  12.406  1.00  0.00     0.227 C
BRANCH  37  38
HETATM   38  N5  UNL     1      18.367  27.962  11.465  1.00  0.00    -0.328 N
HETATM   39  C22 UNL     1      18.253  28.239  10.088  1.00  0.00     0.361 C
HETATM   40  O4  UNL     1      17.408  29.044   9.677  1.00  0.00    -0.238 OA
ATOM     41  H5  UNL     1      19.070  27.300  11.794  1.00  0.00     0.165 HD
BRANCH  39  42
HETATM   42  O5  UNL     1      19.057  27.647   9.122  1.00  0.00    -0.294 OA
BRANCH  42  43
HETATM   43  C23 UNL     1      18.665  26.652   8.247  1.00  0.00     0.061 C
HETATM   44  C24 UNL     1      18.284  27.323   6.922  1.00  0.00     0.046 C
HETATM   45  C25 UNL     1      19.721  25.633   7.924  1.00  0.00     0.046 C
HETATM   46  C26 UNL     1      17.422  25.897   8.697  1.00  0.00     0.046 C
ENDBRANCH  42  43
ENDBRANCH  39  42
ENDBRANCH  37  38
ENDBRANCH  10  37
TORSDOF 14
ENDMDL