MODEL 5
REMARK VINA RESULT: -8.151319238      1.803      3.407
REMARK  14 active torsions:
REMARK  status: ('A' for Active; 'I' for Inactive)
REMARK    1  A    between atoms: C2_2  and  C3_3
REMARK    2  A    between atoms: C3_3  and  N1_4
REMARK    3  A    between atoms: C7_13  and  N3_14
REMARK    4  A    between atoms: N3_14  and  C8_16
REMARK    5  A    between atoms: C12_20  and  C13_21
REMARK       I    between atoms: C13_21  and  N4_23
REMARK    6  A    between atoms: N4_23  and  C14_25
REMARK    7  A    between atoms: C14_25  and  C15_26
REMARK    8  A    between atoms: C15_26  and  C16_27
REMARK    9  A    between atoms: C16_27  and  N5_28
REMARK   10  A    between atoms: N5_28  and  C18_30
REMARK   11  A    between atoms: C18_30  and  O4_31
REMARK   12  A    between atoms: C18_30  and  C19_33
REMARK   13  A    between atoms: C19_33  and  C20_34
REMARK   14  A    between atoms: C24_38  and  O5_39
ROOT
HETATM    1  C8  UNL     1      19.113  29.797  13.992  1.00  0.00     0.068 A
HETATM    2  C9  UNL     1      18.332  30.925  14.097  1.00  0.00     0.040 A
HETATM    3  C10 UNL     1      18.928  32.150  14.443  1.00  0.00    -0.044 A
HETATM    4  C11 UNL     1      18.011  33.316  14.475  1.00  0.00     0.049 C
HETATM    5  C12 UNL     1      20.250  32.228  14.674  1.00  0.00     0.041 A
HETATM    6  C23 UNL     1      21.025  31.063  14.560  1.00  0.00     0.056 A
HETATM    7  C24 UNL     1      20.467  29.862  14.224  1.00  0.00     0.096 A
ENDROOT
BRANCH   1   8
HETATM    8  N3  UNL     1      18.528  28.567  13.645  1.00  0.00    -0.334 N
ATOM      9  H3  UNL     1      17.976  28.036  14.318  1.00  0.00     0.168 HD
BRANCH   8  10
HETATM   10  C7  UNL     1      18.719  28.125  12.418  1.00  0.00     0.151 A
HETATM   11  S1  UNL     1      17.972  28.614  10.963  1.00  0.00    -0.044 SA
HETATM   12  C6  UNL     1      18.802  27.576   9.895  1.00  0.00     0.120 A
HETATM   13  C5  UNL     1      18.773  27.356   8.506  1.00  0.00     0.270 A
HETATM   14  C26 UNL     1      19.630  26.893  10.739  1.00  0.00     0.136 A
HETATM   15  N2  UNL     1      19.587  26.436   7.944  1.00  0.00    -0.274 N
HETATM   16  O2  UNL     1      17.980  28.030   7.805  1.00  0.00    -0.266 OA
HETATM   17  C4  UNL     1      20.386  25.787   8.813  1.00  0.00     0.331 A
ATOM     18  H2  UNL     1      19.596  26.247   6.941  1.00  0.00     0.173 HD
HETATM   19  N1  UNL     1      20.441  25.968  10.121  1.00  0.00    -0.284 N
HETATM   20  O1  UNL     1      21.150  24.923   8.268  1.00  0.00    -0.246 OA
HETATM   21  N6  UNL     1      19.573  27.187  12.020  1.00  0.00    -0.321 N
ATOM     22  H6  UNL     1      20.170  26.705  12.692  1.00  0.00     0.169 HD
BRANCH  19  23
HETATM   23  C3  UNL     1      21.383  25.164  10.871  1.00  0.00     0.135 C
BRANCH  23  24
HETATM   24  C2  UNL     1      22.665  25.897  11.176  1.00  0.00     0.016 C
HETATM   25  C1  UNL     1      23.802  25.161  10.463  1.00  0.00     0.006 C
ENDBRANCH  23  24
ENDBRANCH  19  23
ENDBRANCH   8  10
ENDBRANCH   1   8
BRANCH   7  26
HETATM   26  O5  UNL     1      21.238  28.724  14.114  1.00  0.00    -0.354 OA
HETATM   27  C25 UNL     1      22.482  28.683  13.482  1.00  0.00     0.210 C
ENDBRANCH   7  26
BRANCH   5  28
HETATM   28  C13 UNL     1      20.946  33.424  15.101  1.00  0.00     0.255 C
HETATM   29  O3  UNL     1      22.138  33.608  14.635  1.00  0.00    -0.267 OA
HETATM   30  N4  UNL     1      20.458  34.412  15.979  1.00  0.00    -0.337 N
ATOM     31  H4  UNL     1      19.514  34.238  16.325  1.00  0.00     0.168 HD
BRANCH  30  32
HETATM   32  C14 UNL     1      21.044  35.593  16.460  1.00  0.00     0.066 C
BRANCH  32  33
HETATM   33  C15 UNL     1      20.736  36.214  17.743  1.00  0.00     0.064 C
BRANCH  33  34
HETATM   34  C16 UNL     1      19.574  37.111  17.844  1.00  0.00     0.129 C
BRANCH  34  35
HETATM   35  N5  UNL     1      18.329  36.294  18.032  1.00  0.00    -0.369 N
HETATM   36  C17 UNL     1      18.360  35.382  19.117  1.00  0.00     0.151 C
BRANCH  35  37
HETATM   37  C18 UNL     1      17.295  36.525  17.139  1.00  0.00     0.113 C
BRANCH  37  38
HETATM   38  O4  UNL     1      17.267  37.772  16.667  1.00  0.00    -0.349 OA
ATOM     39  H4  UNL     1      16.743  37.868  15.881  1.00  0.00     0.219 HD
ENDBRANCH  37  38
BRANCH  37  40
HETATM   40  C19 UNL     1      16.223  35.725  16.591  1.00  0.00     0.087 C
BRANCH  40  41
HETATM   41  C20 UNL     1      15.394  34.855  17.437  1.00  0.00    -0.015 C
HETATM   42  C21 UNL     1      14.098  35.657  17.810  1.00  0.00     0.010 C
HETATM   43  C22 UNL     1      14.924  33.600  16.709  1.00  0.00     0.010 C
ENDBRANCH  40  41
ENDBRANCH  37  40
ENDBRANCH  35  37
ENDBRANCH  34  35
ENDBRANCH  33  34
ENDBRANCH  32  33
ENDBRANCH  30  32
ENDBRANCH   5  28
TORSDOF 14
ENDMDL