MODEL 4
REMARK VINA RESULT: -8.311962807      2.265      3.034
REMARK  14 active torsions:
REMARK  status: ('A' for Active; 'I' for Inactive)
REMARK    1  A    between atoms: C2_2  and  N1_3
REMARK    2  A    between atoms: N1_3  and  C3_6
REMARK    3  A    between atoms: C3_6  and  C4_7
REMARK    4  A    between atoms: C4_7  and  C7_10
REMARK    5  A    between atoms: C7_10  and  C8_11
REMARK       I    between atoms: C8_11  and  N2_13
REMARK    6  A    between atoms: N2_13  and  C9_15
REMARK    7  A    between atoms: C11_17  and  O2_18
REMARK    8  A    between atoms: O2_18  and  C12_19
REMARK    9  A    between atoms: C12_19  and  C13_20
REMARK   10  A    between atoms: C13_20  and  O3_21
REMARK   11  A    between atoms: C13_20  and  N3_23
REMARK   12  A    between atoms: C22_34  and  C23_35
REMARK   13  A    between atoms: C23_35  and  O6_37
REMARK   14  A    between atoms: O6_37  and  C24_38
ROOT
HETATM    1  C9  UNL     1      18.351  31.713  15.074  1.00  0.00     0.065 A
HETATM    2  C10 UNL     1      17.016  31.815  15.391  1.00  0.00     0.068 A
HETATM    3  C11 UNL     1      16.575  32.717  16.334  1.00  0.00     0.072 A
HETATM    4  C19 UNL     1      17.428  33.551  17.002  1.00  0.00     0.054 A
HETATM    5  C20 UNL     1      18.784  33.461  16.693  1.00  0.00     0.047 A
HETATM    6  C21 UNL     1      19.629  34.320  17.377  1.00  0.00     0.202 A
HETATM    7  O4  UNL     1      19.174  35.130  18.235  1.00  0.00    -0.286 OA
HETATM    8  C22 UNL     1      21.000  34.285  17.109  1.00  0.00     0.112 A
HETATM    9  C27 UNL     1      21.399  33.384  16.172  1.00  0.00     0.026 A
HETATM   10  C28 UNL     1      22.857  33.294  15.835  1.00  0.00     0.069 C
HETATM   11  N5  UNL     1      20.557  32.563  15.524  1.00  0.00    -0.356 N
ATOM     12  H5  UNL     1      20.936  31.915  14.835  1.00  0.00     0.166 HD
HETATM   13  C29 UNL     1      19.253  32.564  15.748  1.00  0.00     0.074 A
ENDROOT
BRANCH   1  14
HETATM   14  N2  UNL     1      18.858  30.785  14.152  1.00  0.00    -0.325 N
HETATM   15  C8  UNL     1      19.588  29.621  14.458  1.00  0.00     0.223 C
HETATM   16  O1  UNL     1      19.875  29.250  15.585  1.00  0.00    -0.273 OA
ATOM     17  H2  UNL     1      18.682  30.973  13.165  1.00  0.00     0.169 HD
BRANCH  15  18
HETATM   18  C7  UNL     1      20.057  28.754  13.314  1.00  0.00     0.113 C
BRANCH  18  19
HETATM   19  C4  UNL     1      21.332  29.303  12.707  1.00  0.00    -0.016 C
HETATM   20  C5  UNL     1      21.128  30.690  12.144  1.00  0.00     0.017 C
HETATM   21  C6  UNL     1      22.455  29.334  13.697  1.00  0.00     0.017 C
BRANCH  19  22
HETATM   22  C3  UNL     1      21.695  28.379  11.541  1.00  0.00     0.241 C
BRANCH  22  23
HETATM   23  N1  UNL     1      22.348  27.193  12.082  1.00  0.00    -0.075 N
ATOM     24  H12 UNL     1      21.671  26.464  12.307  1.00  0.00     0.277 HD
ATOM     25  H11 UNL     1      22.714  27.364  13.019  1.00  0.00     0.277 HD
BRANCH  23  26
HETATM   26  C2  UNL     1      23.367  26.706  11.205  1.00  0.00     0.228 C
HETATM   27  C1  UNL     1      24.733  26.992  11.803  1.00  0.00     0.034 C
ENDBRANCH  23  26
ENDBRANCH  22  23
ENDBRANCH  19  22
ENDBRANCH  18  19
ENDBRANCH  15  18
ENDBRANCH   1  14
BRANCH   3  28
HETATM   28  O2  UNL     1      15.227  32.780  16.617  1.00  0.00    -0.343 OA
BRANCH  28  29
HETATM   29  C12 UNL     1      14.539  33.987  16.553  1.00  0.00     0.259 C
BRANCH  29  30
HETATM   30  C13 UNL     1      14.832  34.909  17.645  1.00  0.00     0.138 C
BRANCH  30  31
HETATM   31  O3  UNL     1      14.746  34.389  18.837  1.00  0.00    -0.348 OA
ATOM     32  H3  UNL     1      14.849  35.009  19.550  1.00  0.00     0.219 HD
ENDBRANCH  30  31
BRANCH  30  33
HETATM   33  N3  UNL     1      15.185  36.253  17.569  1.00  0.00    -0.360 N
HETATM   34  C14 UNL     1      16.267  36.638  16.625  1.00  0.00     0.155 C
HETATM   35  C15 UNL     1      16.935  37.827  17.228  1.00  0.00     0.291 C
HETATM   36  N4  UNL     1      17.020  37.807  18.678  1.00  0.00     0.087 N
HETATM   37  C16 UNL     1      17.596  39.112  19.044  1.00  0.00     0.310 C
HETATM   38  C17 UNL     1      15.708  37.770  19.308  1.00  0.00     0.291 C
HETATM   39  C18 UNL     1      14.648  37.372  18.284  1.00  0.00     0.155 C
ENDBRANCH  30  33
ENDBRANCH  29  30
ENDBRANCH  28  29
ENDBRANCH   3  28
BRANCH   8  40
HETATM   40  C23 UNL     1      21.881  35.189  17.839  1.00  0.00     0.299 C
HETATM   41  O5  UNL     1      22.306  34.882  18.978  1.00  0.00    -0.259 OA
BRANCH  40  42
HETATM   42  O6  UNL     1      22.276  36.393  17.320  1.00  0.00    -0.313 OA
BRANCH  42  43
HETATM   43  C24 UNL     1      22.022  37.601  17.988  1.00  0.00     0.124 C
HETATM   44  C25 UNL     1      23.315  38.245  18.466  1.00  0.00     0.040 C
HETATM   45  C26 UNL     1      21.267  38.590  17.128  1.00  0.00     0.040 C
ENDBRANCH  42  43
ENDBRANCH  40  42
ENDBRANCH   8  40
TORSDOF 14
ENDMDL