MODEL 5
REMARK VINA RESULT: -9.088184645      3.172     11.203
REMARK  13 active torsions:
REMARK  status: ('A' for Active; 'I' for Inactive)
REMARK    1  A    between atoms: C2_2  and  C3_3
REMARK    2  A    between atoms: C3_3  and  N1_4
REMARK    3  A    between atoms: N1_4  and  C4_6
REMARK    4  A    between atoms: C6_13  and  N4_14
REMARK    5  A    between atoms: N4_14  and  C7_16
REMARK    6  A    between atoms: C10_19  and  O2_20
REMARK    7  A    between atoms: O2_20  and  C11_21
REMARK    8  A    between atoms: C11_21  and  C12_22
REMARK    9  A    between atoms: C12_22  and  C13_23
REMARK   10  A    between atoms: C13_23  and  N5_24
REMARK   11  A    between atoms: N6_27  and  C16_28
REMARK   12  A    between atoms: C21_33  and  N7_34
REMARK   13  A    between atoms: C28_41  and  O3_42
ROOT
HETATM    1  C7  UNL     1      21.140  28.738  11.974  1.00  0.00     0.082 A
HETATM    2  C8  UNL     1      22.143  28.908  12.904  1.00  0.00     0.036 A
HETATM    3  C9  UNL     1      22.079  29.883  13.879  1.00  0.00     0.039 A
HETATM    4  C10 UNL     1      21.013  30.743  13.985  1.00  0.00     0.071 A
HETATM    5  C27 UNL     1      19.992  30.572  13.040  1.00  0.00     0.075 A
HETATM    6  C28 UNL     1      20.071  29.596  12.074  1.00  0.00     0.098 A
ENDROOT
BRANCH   4   7
HETATM    7  O2  UNL     1      20.852  31.733  14.913  1.00  0.00    -0.351 OA
BRANCH   7   8
HETATM    8  C11 UNL     1      20.545  31.554  16.269  1.00  0.00     0.177 C
BRANCH   8   9
HETATM    9  C12 UNL     1      19.204  30.957  16.425  1.00  0.00     0.057 C
BRANCH   9  10
HETATM   10  C13 UNL     1      18.013  31.840  16.508  1.00  0.00     0.274 C
BRANCH  10  11
HETATM   11  N5  UNL     1      17.158  31.937  15.384  1.00  0.00     0.091 N
HETATM   12  C14 UNL     1      17.583  33.091  14.539  1.00  0.00     0.292 C
HETATM   13  C15 UNL     1      17.377  34.408  15.172  1.00  0.00     0.153 C
HETATM   14  N6  UNL     1      16.389  34.497  16.194  1.00  0.00    -0.377 N
HETATM   15  C25 UNL     1      15.585  33.348  16.628  1.00  0.00     0.153 C
HETATM   16  C26 UNL     1      15.755  32.200  15.666  1.00  0.00     0.292 C
BRANCH  14  17
HETATM   17  C16 UNL     1      16.140  35.735  16.845  1.00  0.00     0.032 A
HETATM   18  C17 UNL     1      15.018  35.961  17.618  1.00  0.00     0.036 A
HETATM   19  C18 UNL     1      14.760  37.144  18.252  1.00  0.00    -0.058 A
HETATM   20  C19 UNL     1      13.541  37.351  19.077  1.00  0.00     0.048 C
HETATM   21  C20 UNL     1      15.680  38.169  18.105  1.00  0.00     0.036 A
HETATM   22  C21 UNL     1      16.827  38.011  17.344  1.00  0.00     0.032 A
HETATM   23  C24 UNL     1      17.041  36.799  16.727  1.00  0.00     0.058 A
BRANCH  22  24
HETATM   24  N7  UNL     1      17.719  39.102  17.240  1.00  0.00    -0.389 N
HETATM   25  C22 UNL     1      17.196  40.423  16.899  1.00  0.00     0.149 C
HETATM   26  C23 UNL     1      19.138  38.946  17.457  1.00  0.00     0.149 C
ENDBRANCH  22  24
ENDBRANCH  14  17
ENDBRANCH  10  11
ENDBRANCH   9  10
ENDBRANCH   8   9
ENDBRANCH   7   8
ENDBRANCH   4   7
BRANCH   6  27
HETATM   27  O3  UNL     1      19.040  29.450  11.148  1.00  0.00    -0.354 OA
HETATM   28  C29 UNL     1      17.695  29.452  11.563  1.00  0.00     0.210 C
ENDBRANCH   6  27
BRANCH   1  29
HETATM   29  N4  UNL     1      21.194  27.740  10.975  1.00  0.00    -0.188 N
ATOM     30  H4  UNL     1      22.085  27.543  10.521  1.00  0.00     0.184 HD
BRANCH  29  31
HETATM   31  C6  UNL     1      20.157  27.074  10.623  1.00  0.00     0.701 A
HETATM   32  N3  UNL     1      19.410  26.325  11.454  1.00  0.00    -0.140 N
HETATM   33  C5  UNL     1      18.320  25.658  11.038  1.00  0.00     0.352 A
ATOM     34  H3  UNL     1      19.681  26.261  12.435  1.00  0.00     0.189 HD
HETATM   35  N2  UNL     1      17.962  25.741   9.744  1.00  0.00    -0.140 N
HETATM   36  O1  UNL     1      17.614  24.957  11.795  1.00  0.00    -0.246 OA
HETATM   37  C4  UNL     1      18.678  26.479   8.876  1.00  0.00     0.696 A
ATOM     38  H2  UNL     1      17.137  25.239   9.416  1.00  0.00     0.189 HD
HETATM   39  N8  UNL     1      19.770  27.134   9.339  1.00  0.00    -0.022 N
ATOM     40  H8  UNL     1      20.319  27.694   8.687  1.00  0.00     0.203 HD
BRANCH  37  41
HETATM   41  N1  UNL     1      18.374  26.602   7.636  1.00  0.00    -0.225 N
ATOM     42  H1  UNL     1      18.071  25.771   7.129  1.00  0.00     0.177 HD
BRANCH  41  43
HETATM   43  C3  UNL     1      18.438  27.849   6.920  1.00  0.00     0.137 C
BRANCH  43  44
HETATM   44  C2  UNL     1      18.716  27.535   5.455  1.00  0.00     0.016 C
HETATM   45  C1  UNL     1      18.128  28.659   4.638  1.00  0.00     0.006 C
ENDBRANCH  43  44
ENDBRANCH  41  43
ENDBRANCH  37  41
ENDBRANCH  29  31
ENDBRANCH   1  29
TORSDOF 13
ENDMDL