MODEL 5
REMARK VINA RESULT: -8.150358920      2.762     11.271
REMARK  15 active torsions:
REMARK  status: ('A' for Active; 'I' for Inactive)
REMARK    1  A    between atoms: C2_2  and  C3_3
REMARK    2  A    between atoms: C3_3  and  C4_4
REMARK    3  A    between atoms: C4_4  and  N1_5
REMARK    4  A    between atoms: N1_5  and  C5_7
REMARK    5  A    between atoms: C8_12  and  O1_13
REMARK    6  A    between atoms: C10_15  and  N3_16
REMARK    7  A    between atoms: N3_16  and  C11_18
REMARK    8  A    between atoms: C12_21  and  C13_22
REMARK    9  A    between atoms: C13_22  and  N5_23
REMARK   10  A    between atoms: C23_35  and  C24_36
REMARK   11  A    between atoms: C24_36  and  O2_37
REMARK   12  A    between atoms: C24_36  and  N7_39
REMARK   13  A    between atoms: N7_39  and  C25_41
REMARK   14  A    between atoms: C25_41  and  C26_42
REMARK   15  A    between atoms: C26_42  and  N8_43
ROOT
HETATM    1  C5  UNL     1      20.737  27.110  11.812  1.00  0.00     0.116 A
HETATM    2  N2  UNL     1      21.464  28.201  12.241  1.00  0.00    -0.341 N
ATOM      3  H2  UNL     1      22.476  28.110  12.331  1.00  0.00     0.167 HD
HETATM    4  C6  UNL     1      20.896  29.374  12.544  1.00  0.00     0.046 A
HETATM    5  C7  UNL     1      21.630  30.464  12.972  1.00  0.00     0.069 A
HETATM    6  C8  UNL     1      21.021  31.676  13.279  1.00  0.00     0.097 A
HETATM    7  C10 UNL     1      19.654  31.817  13.161  1.00  0.00     0.068 A
HETATM    8  C20 UNL     1      18.923  30.706  12.728  1.00  0.00     0.046 A
HETATM    9  C21 UNL     1      19.528  29.496  12.421  1.00  0.00    -0.006 A
HETATM   10  C22 UNL     1      18.804  28.413  11.993  1.00  0.00     0.033 A
HETATM   11  C23 UNL     1      19.387  27.172  11.671  1.00  0.00     0.059 A
ENDROOT
BRANCH   7  12
HETATM   12  N3  UNL     1      18.967  33.009  13.450  1.00  0.00    -0.334 N
ATOM     13  H3  UNL     1      18.871  33.700  12.705  1.00  0.00     0.168 HD
BRANCH  12  14
HETATM   14  C11 UNL     1      18.448  33.283  14.602  1.00  0.00     0.149 A
HETATM   15  N4  UNL     1      17.433  34.104  14.867  1.00  0.00    -0.338 N
HETATM   16  C12 UNL     1      17.051  34.253  16.098  1.00  0.00     0.046 A
ATOM     17  H4  UNL     1      16.963  34.608  14.114  1.00  0.00     0.168 HD
HETATM   18  C19 UNL     1      17.723  33.546  17.068  1.00  0.00     0.080 A
HETATM   19  S1  UNL     1      18.882  32.697  16.141  1.00  0.00    -0.064 SA
BRANCH  16  20
HETATM   20  C13 UNL     1      15.913  35.156  16.540  1.00  0.00     0.330 C
BRANCH  20  21
HETATM   21  N5  UNL     1      16.348  35.837  17.736  1.00  0.00     0.097 N
HETATM   22  C14 UNL     1      16.692  37.214  17.353  1.00  0.00     0.303 C
HETATM   23  C15 UNL     1      16.971  38.000  18.604  1.00  0.00     0.302 C
HETATM   24  N6  UNL     1      15.781  38.195  19.386  1.00  0.00     0.087 N
HETATM   25  C16 UNL     1      15.356  39.569  19.432  1.00  0.00     0.310 C
HETATM   26  C17 UNL     1      14.747  37.305  18.924  1.00  0.00     0.302 C
HETATM   27  C18 UNL     1      15.253  35.915  18.659  1.00  0.00     0.303 C
ENDBRANCH  20  21
ENDBRANCH  16  20
ENDBRANCH  12  14
ENDBRANCH   7  12
BRANCH   6  28
HETATM   28  O1  UNL     1      21.772  32.759  13.706  1.00  0.00    -0.354 OA
HETATM   29  C9  UNL     1      22.714  32.589  14.774  1.00  0.00     0.210 C
ENDBRANCH   6  28
BRANCH  11  30
HETATM   30  C24 UNL     1      18.532  26.094  11.202  1.00  0.00     0.150 C
BRANCH  30  31
HETATM   31  O2  UNL     1      18.411  25.059  11.987  1.00  0.00    -0.346 OA
ATOM     32  H2  UNL     1      17.532  24.842  12.274  1.00  0.00     0.219 HD
ENDBRANCH  30  31
BRANCH  30  33
HETATM   33  N7  UNL     1      17.807  26.006  10.017  1.00  0.00    -0.369 N
ATOM     34  H7  UNL     1      16.790  26.077  10.050  1.00  0.00     0.161 HD
BRANCH  33  35
HETATM   35  C25 UNL     1      18.464  25.816   8.734  1.00  0.00     0.152 C
BRANCH  35  36
HETATM   36  C26 UNL     1      18.495  27.083   7.949  1.00  0.00     0.290 C
BRANCH  36  37
HETATM   37  N8  UNL     1      18.431  26.798   6.510  1.00  0.00     0.081 N
HETATM   38  C27 UNL     1      18.367  28.082   5.840  1.00  0.00     0.309 C
HETATM   39  C28 UNL     1      19.613  26.083   6.079  1.00  0.00     0.309 C
ENDBRANCH  36  37
ENDBRANCH  35  36
ENDBRANCH  33  35
ENDBRANCH  30  33
ENDBRANCH  11  30
BRANCH   1  40
HETATM   40  N1  UNL     1      21.367  26.030  11.566  1.00  0.00    -0.376 N
ATOM     41  H1  UNL     1      21.471  25.384  12.348  1.00  0.00     0.161 HD
BRANCH  40  42
HETATM   42  C4  UNL     1      21.945  25.616  10.330  1.00  0.00     0.121 C
BRANCH  42  43
HETATM   43  C3  UNL     1      23.293  26.258  10.067  1.00  0.00     0.019 C
BRANCH  43  44
HETATM   44  C2  UNL     1      24.259  25.982  11.184  1.00  0.00    -0.003 C
HETATM   45  C1  UNL     1      24.967  27.230  11.610  1.00  0.00     0.005 C
ENDBRANCH  43  44
ENDBRANCH  42  43
ENDBRANCH  40  42
ENDBRANCH   1  40
TORSDOF 15
ENDMDL