MODEL 2
REMARK VINA RESULT: -8.697586923      1.055      2.358
REMARK  14 active torsions:
REMARK  status: ('A' for Active; 'I' for Inactive)
REMARK    1  A    between atoms: C2_2  and  C3_3
REMARK    2  A    between atoms: C3_3  and  N1_4
REMARK    3  A    between atoms: C4_5  and  C5_6
REMARK    4  A    between atoms: C6_7  and  C7_8
REMARK    5  A    between atoms: C7_8  and  N2_9
REMARK       I    between atoms: N2_9  and  C8_11
REMARK    6  A    between atoms: C8_11  and  C9_13
REMARK    7  A    between atoms: C9_13  and  C12_16
REMARK       I    between atoms: C12_16  and  N3_18
REMARK    8  A    between atoms: N3_18  and  C13_20
REMARK    9  A    between atoms: C13_20  and  C14_21
REMARK   10  A    between atoms: C14_21  and  C15_22
REMARK   11  A    between atoms: C15_22  and  O3_23
REMARK   12  A    between atoms: O3_23  and  C16_24
REMARK   13  A    between atoms: C20_30  and  C21_31
REMARK   14  A    between atoms: C24_37  and  N6_38
REMARK       I    between atoms: N6_38  and  C25_40
ROOT
HETATM    1  N1  UNL     1      20.006  30.832  14.700  1.00  0.00    -0.338 N
HETATM    2  C4  UNL     1      18.685  30.559  14.501  1.00  0.00     0.091 A
HETATM    3  C18 UNL     1      18.554  29.450  13.691  1.00  0.00     0.071 A
HETATM    4  C19 UNL     1      19.840  29.046  13.396  1.00  0.00     0.062 A
HETATM    5  N4  UNL     1      20.242  28.006  12.639  1.00  0.00    -0.353 N
ATOM      6  H4  UNL     1      19.543  27.407  12.201  1.00  0.00     0.166 HD
HETATM    7  C20 UNL     1      21.549  27.745  12.450  1.00  0.00     0.049 A
HETATM    8  C27 UNL     1      22.453  28.603  13.078  1.00  0.00     0.033 A
HETATM    9  C28 UNL     1      22.053  29.669  13.855  1.00  0.00     0.034 A
HETATM   10  C29 UNL     1      20.696  29.901  14.021  1.00  0.00     0.062 A
ENDROOT
BRANCH   2  11
HETATM   11  C5  UNL     1      17.564  31.279  15.025  1.00  0.00    -0.047 C
HETATM   12  C6  UNL     1      16.621  31.884  15.445  1.00  0.00    -0.080 C
BRANCH  12  13
HETATM   13  C7  UNL     1      15.447  32.641  15.942  1.00  0.00     0.217 C
BRANCH  13  14
HETATM   14  N2  UNL     1      15.887  33.606  16.911  1.00  0.00    -0.350 N
HETATM   15  C8  UNL     1      16.415  34.842  16.487  1.00  0.00     0.235 C
HETATM   16  O1  UNL     1      16.530  35.170  15.277  1.00  0.00    -0.272 OA
ATOM     17  H2  UNL     1      15.818  33.396  17.907  1.00  0.00     0.163 HD
BRANCH  15  18
HETATM   18  C9  UNL     1      16.874  35.847  17.503  1.00  0.00     0.114 C
HETATM   19  C10 UNL     1      15.838  35.777  18.624  1.00  0.00     0.035 C
HETATM   20  C11 UNL     1      16.835  37.239  16.958  1.00  0.00     0.035 C
BRANCH  18  21
HETATM   21  C12 UNL     1      18.178  35.411  18.009  1.00  0.00     0.234 C
HETATM   22  O2  UNL     1      18.303  35.004  19.206  1.00  0.00    -0.272 OA
HETATM   23  N3  UNL     1      19.360  35.426  17.195  1.00  0.00    -0.360 N
ATOM     24  H3  UNL     1      19.282  35.747  16.230  1.00  0.00     0.162 HD
BRANCH  23  25
HETATM   25  C13 UNL     1      20.630  35.016  17.671  1.00  0.00     0.125 C
BRANCH  25  26
HETATM   26  C14 UNL     1      21.765  35.952  17.658  1.00  0.00     0.046 C
BRANCH  26  27
HETATM   27  C15 UNL     1      21.490  37.392  17.856  1.00  0.00     0.169 C
BRANCH  27  28
HETATM   28  O3  UNL     1      20.626  37.822  18.797  1.00  0.00    -0.391 OA
BRANCH  28  29
HETATM   29  C16 UNL     1      19.825  38.895  18.413  1.00  0.00     0.163 C
HETATM   30  C17 UNL     1      20.216  39.476  17.088  1.00  0.00     0.033 C
ENDBRANCH  28  29
ENDBRANCH  27  28
ENDBRANCH  26  27
ENDBRANCH  25  26
ENDBRANCH  23  25
ENDBRANCH  18  21
ENDBRANCH  15  18
ENDBRANCH  13  14
ENDBRANCH  12  13
ENDBRANCH   2  11
BRANCH   1  31
HETATM   31  C3  UNL     1      20.506  31.913  15.494  1.00  0.00     0.130 C
BRANCH  31  32
HETATM   32  C2  UNL     1      21.014  33.084  14.729  1.00  0.00     0.016 C
HETATM   33  C1  UNL     1      22.494  33.211  14.631  1.00  0.00     0.006 C
ENDBRANCH  31  32
ENDBRANCH   1  31
BRANCH   7  34
HETATM   34  C21 UNL     1      21.990  26.628  11.636  1.00  0.00     0.068 A
HETATM   35  C22 UNL     1      23.287  26.262  11.394  1.00  0.00     0.088 A
HETATM   36  C23 UNL     1      24.531  26.929  11.911  1.00  0.00     0.080 C
HETATM   37  O4  UNL     1      23.250  25.208  10.617  1.00  0.00    -0.240 OA
HETATM   38  N5  UNL     1      22.029  24.869  10.342  1.00  0.00    -0.244 N
HETATM   39  C24 UNL     1      21.192  25.737  10.964  1.00  0.00     0.143 A
ATOM     40  H5  UNL     1      21.746  24.083   9.758  1.00  0.00     0.196 HD
BRANCH  39  41
HETATM   41  N6  UNL     1      19.910  25.689  10.902  1.00  0.00    -0.311 N
HETATM   42  C25 UNL     1      19.188  26.335   9.871  1.00  0.00     0.219 C
HETATM   43  C26 UNL     1      18.316  25.582   8.944  1.00  0.00     0.117 C
HETATM   44  O5  UNL     1      19.308  27.582   9.764  1.00  0.00    -0.274 OA
ATOM     45  H6  UNL     1      19.398  25.170  11.615  1.00  0.00     0.170 HD
ENDBRANCH  39  41
ENDBRANCH   7  34
TORSDOF 14
ENDMDL