MODEL 2
REMARK VINA RESULT: -7.786303679      1.382      1.592
REMARK  13 active torsions:
REMARK  status: ('A' for Active; 'I' for Inactive)
REMARK    1  A    between atoms: O1_2  and  C2_3
REMARK    2  A    between atoms: C2_3  and  C3_4
REMARK       I    between atoms: C3_4  and  N1_6
REMARK    3  A    between atoms: N1_6  and  C4_8
REMARK    4  A    between atoms: C12_16  and  C13_17
REMARK       I    between atoms: C13_17  and  N2_19
REMARK    5  A    between atoms: C14_21  and  C15_22
REMARK    6  A    between atoms: C14_21  and  C23_38
REMARK       I    between atoms: C15_22  and  N3_24
REMARK    7  A    between atoms: N3_24  and  C16_26
REMARK    8  A    between atoms: C16_26  and  C17_27
REMARK    9  A    between atoms: C16_26  and  C19_31
REMARK   10  A    between atoms: C17_27  and  C18_28
REMARK   11  A    between atoms: C19_31  and  C20_33
REMARK   12  A    between atoms: C20_33  and  S1_34
REMARK   13  A    between atoms: S1_34  and  C21_35
ROOT
HETATM    1  C13 UNL     1      18.770  32.524  16.491  1.00  0.00     0.228 C
HETATM    2  O3  UNL     1      18.124  31.455  16.264  1.00  0.00    -0.273 OA
HETATM    3  N2  UNL     1      20.101  32.667  16.248  1.00  0.00    -0.325 N
ATOM      4  H2  UNL     1      20.528  33.185  17.016  1.00  0.00     0.169 HD
HETATM    5  C14 UNL     1      20.981  32.381  15.404  1.00  0.00     0.087 C
ENDROOT
BRANCH   5   6
HETATM    6  C15 UNL     1      20.679  31.641  14.195  1.00  0.00     0.265 C
HETATM    7  O4  UNL     1      20.667  32.219  13.051  1.00  0.00    -0.266 OA
HETATM    8  N3  UNL     1      20.372  30.255  14.126  1.00  0.00    -0.344 N
ATOM      9  H3  UNL     1      20.368  29.708  14.986  1.00  0.00     0.163 HD
BRANCH   8  10
HETATM   10  C16 UNL     1      20.061  29.585  12.855  1.00  0.00     0.165 C
BRANCH  10  11
HETATM   11  C17 UNL     1      18.716  28.967  12.857  1.00  0.00     0.146 C
BRANCH  11  12
HETATM   12  C18 UNL     1      17.588  29.875  12.578  1.00  0.00     0.174 C
HETATM   13  O5  UNL     1      17.352  30.913  13.211  1.00  0.00    -0.648 OA
HETATM   14  O6  UNL     1      16.697  29.561  11.519  1.00  0.00    -0.648 OA
ENDBRANCH  11  12
ENDBRANCH  10  11
BRANCH  10  15
HETATM   15  C19 UNL     1      21.082  28.540  12.567  1.00  0.00     0.159 C
HETATM   16  O7  UNL     1      21.873  28.246  13.437  1.00  0.00    -0.295 OA
BRANCH  15  17
HETATM   17  C20 UNL     1      21.130  27.881  11.262  1.00  0.00     0.162 C
BRANCH  17  18
HETATM   18  S1  UNL     1      21.929  26.269  11.257  1.00  0.00    -0.086 SA
BRANCH  18  19
HETATM   19  C21 UNL     1      23.717  26.477  11.226  1.00  0.00     0.182 C
HETATM   20  C22 UNL     1      24.277  27.795  10.757  1.00  0.00     0.104 C
HETATM   21  O8  UNL     1      24.481  25.603  11.565  1.00  0.00    -0.286 OA
ENDBRANCH  18  19
ENDBRANCH  17  18
ENDBRANCH  15  17
ENDBRANCH  10  15
ENDBRANCH   8  10
ENDBRANCH   5   6
BRANCH   5  22
HETATM   22  C23 UNL     1      22.373  32.821  15.746  1.00  0.00    -0.003 C
HETATM   23  C24 UNL     1      22.510  32.765  17.248  1.00  0.00     0.021 C
HETATM   24  C25 UNL     1      23.444  32.008  15.115  1.00  0.00     0.021 C
HETATM   25  C26 UNL     1      22.533  34.252  15.248  1.00  0.00     0.021 C
ENDBRANCH   5  22
BRANCH   1  26
HETATM   26  C12 UNL     1      17.916  33.651  17.073  1.00  0.00     0.101 C
HETATM   27  C4  UNL     1      18.795  34.551  17.836  1.00  0.00     0.097 C
HETATM   28  C5  UNL     1      18.211  35.152  19.095  1.00  0.00     0.026 C
HETATM   29  C6  UNL     1      16.723  35.428  19.021  1.00  0.00     0.002 C
HETATM   30  C7  UNL     1      16.420  36.699  18.317  1.00  0.00     0.000 C
HETATM   31  C8  UNL     1      15.733  36.597  16.999  1.00  0.00     0.000 C
HETATM   32  C9  UNL     1      14.932  35.367  16.787  1.00  0.00     0.000 C
HETATM   33  C10 UNL     1      15.597  34.188  16.204  1.00  0.00     0.001 C
HETATM   34  C11 UNL     1      17.075  34.257  15.989  1.00  0.00     0.016 C
BRANCH  27  35
HETATM   35  N1  UNL     1      19.470  35.603  17.138  1.00  0.00    -0.354 N
HETATM   36  C3  UNL     1      20.622  36.302  17.528  1.00  0.00     0.241 C
HETATM   37  O2  UNL     1      21.176  36.035  18.609  1.00  0.00    -0.271 OA
ATOM     38  H1  UNL     1      19.061  35.879  16.246  1.00  0.00     0.162 HD
BRANCH  36  39
HETATM   39  C2  UNL     1      21.196  37.353  16.674  1.00  0.00     0.269 C
BRANCH  39  40
HETATM   40  O1  UNL     1      21.268  38.586  17.318  1.00  0.00    -0.387 OA
HETATM   41  C1  UNL     1      20.049  39.256  17.268  1.00  0.00     0.202 C
ENDBRANCH  39  40
ENDBRANCH  36  39
ENDBRANCH  27  35
ENDBRANCH   1  26
TORSDOF 13
ENDMDL