MODEL 5
REMARK VINA RESULT: -8.586466115      4.658     11.262
REMARK  11 active torsions:
REMARK  status: ('A' for Active; 'I' for Inactive)
REMARK    1  A    between atoms: C3_3  and  N1_4
REMARK       I    between atoms: N1_4  and  C4_5
REMARK    2  A    between atoms: N1_4  and  C20_29
REMARK    3  A    between atoms: C4_5  and  C5_7
REMARK    4  A    between atoms: C5_7  and  N2_8
REMARK    5  A    between atoms: N2_8  and  C7_10
REMARK    6  A    between atoms: C7_10  and  C8_11
REMARK       I    between atoms: C8_11  and  N3_13
REMARK    7  A    between atoms: N3_13  and  C9_15
REMARK    8  A    between atoms: C12_19  and  C13_20
REMARK    9  A    between atoms: C13_20  and  O4_22
REMARK   10  A    between atoms: O4_22  and  C14_23
REMARK   11  A    between atoms: C21_30  and  C22_31
ROOT
HETATM    1  C1  UNL     1      16.869  31.290  15.123  1.00  0.00     0.014 C
HETATM    2  C2  UNL     1      17.947  30.737  15.001  1.00  0.00    -0.097 C
HETATM    3  C3  UNL     1      19.264  30.063  14.883  1.00  0.00     0.225 C
ENDROOT
BRANCH   3   4
HETATM    4  N1  UNL     1      19.705  30.275  13.507  1.00  0.00    -0.300 N
HETATM    5  C4  UNL     1      20.244  31.577  13.260  1.00  0.00     0.238 C
HETATM    6  O1  UNL     1      20.632  31.831  12.100  1.00  0.00    -0.272 OA
BRANCH   5   7
HETATM    7  C5  UNL     1      20.368  32.643  14.280  1.00  0.00     0.197 C
BRANCH   7   8
HETATM    8  N2  UNL     1      21.400  32.273  15.205  1.00  0.00    -0.283 NA
HETATM    9  C6  UNL     1      22.686  32.482  14.619  1.00  0.00     0.116 C
BRANCH   8  10
HETATM   10  C7  UNL     1      21.318  32.737  16.522  1.00  0.00     0.134 C
BRANCH  10  11
HETATM   11  C8  UNL     1      20.541  34.037  16.661  1.00  0.00     0.256 C
HETATM   12  O2  UNL     1      21.158  35.013  16.230  1.00  0.00    -0.267 OA
HETATM   13  N3  UNL     1      19.281  34.028  17.223  1.00  0.00    -0.316 N
ATOM     14  H3  UNL     1      19.031  33.089  17.531  1.00  0.00     0.169 HD
BRANCH  13  15
HETATM   15  C9  UNL     1      18.247  34.930  17.495  1.00  0.00     0.094 A
HETATM   16  S1  UNL     1      16.576  34.428  17.188  1.00  0.00    -0.075 SA
HETATM   17  C10 UNL     1      15.770  35.818  17.656  1.00  0.00    -0.008 A
HETATM   18  C11 UNL     1      16.782  36.655  18.038  1.00  0.00    -0.026 A
HETATM   19  C19 UNL     1      14.351  36.331  17.748  1.00  0.00     0.047 C
HETATM   20  C12 UNL     1      18.058  36.197  17.948  1.00  0.00     0.080 A
HETATM   21  C16 UNL     1      16.221  37.973  18.526  1.00  0.00     0.041 C
HETATM   22  C17 UNL     1      15.155  37.721  19.573  1.00  0.00     0.005 C
HETATM   23  C18 UNL     1      14.133  36.714  19.188  1.00  0.00     0.005 C
BRANCH  20  24
HETATM   24  C13 UNL     1      19.203  37.138  18.109  1.00  0.00     0.296 C
HETATM   25  O3  UNL     1      19.936  37.089  19.083  1.00  0.00    -0.259 OA
BRANCH  24  26
HETATM   26  O4  UNL     1      19.514  38.123  17.182  1.00  0.00    -0.318 OA
BRANCH  26  27
HETATM   27  C14 UNL     1      19.486  39.511  17.543  1.00  0.00     0.174 C
HETATM   28  C15 UNL     1      19.206  40.398  16.364  1.00  0.00     0.034 C
ENDBRANCH  26  27
ENDBRANCH  24  26
ENDBRANCH  20  24
ENDBRANCH  13  15
ENDBRANCH  10  11
ENDBRANCH   8  10
ENDBRANCH   7   8
ENDBRANCH   5   7
BRANCH   4  29
HETATM   29  C20 UNL     1      19.591  29.282  12.550  1.00  0.00     0.113 A
HETATM   30  C21 UNL     1      20.492  28.274  12.417  1.00  0.00    -0.017 A
HETATM   31  C24 UNL     1      20.314  27.283  11.431  1.00  0.00    -0.012 A
HETATM   32  C25 UNL     1      21.336  26.200  11.333  1.00  0.00     0.052 C
HETATM   33  C26 UNL     1      19.229  27.355  10.619  1.00  0.00     0.125 A
HETATM   34  N4  UNL     1      19.093  26.318   9.627  1.00  0.00    -0.082 NA
HETATM   35  N5  UNL     1      18.322  28.342  10.727  1.00  0.00    -0.309 N
HETATM   36  C27 UNL     1      18.510  29.284  11.680  1.00  0.00     0.274 A
ATOM     37  H5  UNL     1      17.513  28.379  10.107  1.00  0.00     0.170 HD
HETATM   38  O5  UNL     1      17.657  30.176  11.748  1.00  0.00    -0.266 OA
BRANCH  30  39
HETATM   39  C22 UNL     1      21.689  28.198  13.263  1.00  0.00     0.037 C
HETATM   40  C23 UNL     1      22.829  28.937  12.588  1.00  0.00     0.010 C
ENDBRANCH  30  39
ENDBRANCH   4  29
ENDBRANCH   3   4
TORSDOF 11
ENDMDL