MODEL 5
REMARK VINA RESULT: -8.487909804      3.521      8.690
REMARK  13 active torsions:
REMARK  status: ('A' for Active; 'I' for Inactive)
REMARK    1  A    between atoms: C1_2  and  C2_3
REMARK       I    between atoms: C1_2  and  N1_13
REMARK    2  A    between atoms: C2_3  and  C3_4
REMARK    3  A    between atoms: N1_13  and  C10_15
REMARK    4  A    between atoms: C11_20  and  C12_21
REMARK    5  A    between atoms: C12_21  and  C13_22
REMARK    6  A    between atoms: C13_22  and  C14_23
REMARK    7  A    between atoms: C14_23  and  C15_24
REMARK    8  A    between atoms: C15_24  and  C16_25
REMARK    9  A    between atoms: C18_29  and  N5_30
REMARK   10  A    between atoms: N5_30  and  C19_32
REMARK   11  A    between atoms: C19_32  and  C20_33
REMARK   12  A    between atoms: C20_33  and  C21_34
REMARK   13  A    between atoms: C21_34  and  N6_35
ROOT
HETATM    1  C12 UNL     1      18.354  34.760  17.626  1.00  0.00     0.066 C
ENDROOT
BRANCH   1   2
HETATM    2  C11 UNL     1      18.461  33.698  16.571  1.00  0.00     0.069 A
HETATM    3  N3  UNL     1      18.589  32.384  16.783  1.00  0.00    -0.296 N
HETATM    4  N2  UNL     1      18.667  31.576  15.833  1.00  0.00    -0.279 N
ATOM      5  H3  UNL     1      18.624  32.034  17.741  1.00  0.00     0.187 HD
HETATM    6  C10 UNL     1      18.618  32.061  14.560  1.00  0.00     0.167 A
ATOM      7  H2  UNL     1      18.765  30.575  16.006  1.00  0.00     0.189 HD
HETATM    8  S2  UNL     1      18.454  33.738  14.867  1.00  0.00    -0.038 SA
BRANCH   6   9
HETATM    9  N1  UNL     1      18.688  31.343  13.496  1.00  0.00    -0.306 N
HETATM   10  C1  UNL     1      18.198  30.041  13.423  1.00  0.00     0.227 C
HETATM   11  O1  UNL     1      18.672  29.137  14.145  1.00  0.00    -0.273 OA
ATOM     12  H1  UNL     1      19.124  31.746  12.667  1.00  0.00     0.171 HD
BRANCH  10  13
HETATM   13  C2  UNL     1      17.084  29.745  12.449  1.00  0.00     0.141 C
BRANCH  13  14
HETATM   14  C3  UNL     1      17.418  28.453  11.774  1.00  0.00    -0.047 A
HETATM   15  C4  UNL     1      17.080  27.227  12.281  1.00  0.00     0.010 A
HETATM   16  C5  UNL     1      17.437  26.064  11.583  1.00  0.00     0.040 A
HETATM   17  C6  UNL     1      18.125  26.097  10.389  1.00  0.00     0.105 A
HETATM   18  C7  UNL     1      18.469  27.350   9.872  1.00  0.00     0.105 A
HETATM   19  O3  UNL     1      18.602  25.123   9.496  1.00  0.00    -0.323 OA
HETATM   20  C8  UNL     1      18.117  28.482  10.561  1.00  0.00     0.047 A
HETATM   21  O2  UNL     1      19.143  27.074   8.684  1.00  0.00    -0.323 OA
HETATM   22  C9  UNL     1      19.696  25.752   8.806  1.00  0.00     0.352 C
ENDBRANCH  13  14
ENDBRANCH  10  13
ENDBRANCH   6   9
ENDBRANCH   1   2
BRANCH   1  23
HETATM   23  C13 UNL     1      19.525  35.696  17.503  1.00  0.00     0.007 C
BRANCH  23  24
HETATM   24  C14 UNL     1      20.770  35.004  17.989  1.00  0.00     0.006 C
BRANCH  24  25
HETATM   25  C15 UNL     1      21.967  35.169  17.105  1.00  0.00     0.048 C
BRANCH  25  26
HETATM   26  C16 UNL     1      22.093  33.981  16.212  1.00  0.00     0.001 A
HETATM   27  C17 UNL     1      22.121  33.883  14.850  1.00  0.00     0.104 A
HETATM   28  N4  UNL     1      22.220  32.706  14.311  1.00  0.00    -0.346 N
HETATM   29  C18 UNL     1      22.289  31.636  15.107  1.00  0.00     0.144 A
ATOM     30  H4  UNL     1      22.244  32.600  13.297  1.00  0.00     0.167 HD
HETATM   31  S1  UNL     1      22.216  32.313  16.664  1.00  0.00    -0.058 SA
BRANCH  29  32
HETATM   32  N5  UNL     1      22.357  30.372  14.746  1.00  0.00    -0.370 N
ATOM     33  H5  UNL     1      22.654  29.689  15.444  1.00  0.00     0.161 HD
BRANCH  32  34
HETATM   34  C19 UNL     1      22.043  29.900  13.450  1.00  0.00     0.123 C
BRANCH  34  35
HETATM   35  C20 UNL     1      21.975  28.419  13.341  1.00  0.00     0.039 C
BRANCH  35  36
HETATM   36  C21 UNL     1      21.530  27.949  11.986  1.00  0.00     0.129 C
BRANCH  36  37
HETATM   37  N6  UNL     1      22.658  27.253  11.396  1.00  0.00    -0.333 N
HETATM   38  C22 UNL     1      23.809  27.832  10.769  1.00  0.00     0.147 C
HETATM   39  C23 UNL     1      24.937  26.813  10.945  1.00  0.00     0.144 C
HETATM   40  N7  UNL     1      24.200  25.565  11.080  1.00  0.00    -0.341 N
HETATM   41  C24 UNL     1      22.834  25.822  11.345  1.00  0.00     0.318 C
ATOM     42  H7  UNL     1      24.611  24.636  10.996  1.00  0.00     0.164 HD
HETATM   43  O4  UNL     1      21.890  25.022  11.515  1.00  0.00    -0.247 OA
ENDBRANCH  36  37
ENDBRANCH  35  36
ENDBRANCH  34  35
ENDBRANCH  32  34
ENDBRANCH  29  32
ENDBRANCH  25  26
ENDBRANCH  24  25
ENDBRANCH  23  24
ENDBRANCH   1  23
TORSDOF 13
ENDMDL