MODEL 2
REMARK VINA RESULT: -8.846201281      2.499      9.909
REMARK  12 active torsions:
REMARK  status: ('A' for Active; 'I' for Inactive)
REMARK    1  A    between atoms: C4_8  and  O1_9
REMARK    2  A    between atoms: O1_9  and  C5_10
REMARK    3  A    between atoms: C5_10  and  C6_11
REMARK    4  A    between atoms: C6_11  and  S1_12
REMARK    5  A    between atoms: S1_12  and  C7_13
REMARK    6  A    between atoms: C7_13  and  C8_14
REMARK       I    between atoms: C8_14  and  N3_16
REMARK    7  A    between atoms: N3_16  and  C9_18
REMARK    8  A    between atoms: C9_18  and  C10_19
REMARK    9  A    between atoms: C10_19  and  C11_20
REMARK   10  A    between atoms: C11_20  and  N4_21
REMARK   11  A    between atoms: C19_29  and  N5_30
REMARK   12  A    between atoms: N5_30  and  C20_31
ROOT
HETATM    1  C1  UNL     1      23.110  37.083  18.098  1.00  0.00     0.070 C
HETATM    2  C2  UNL     1      22.094  36.151  17.474  1.00  0.00     0.029 A
HETATM    3  N1  UNL     1      22.469  34.976  16.958  1.00  0.00    -0.343 N
ATOM      4  H1  UNL     1      23.445  34.682  16.978  1.00  0.00     0.167 HD
HETATM    5  C3  UNL     1      21.508  34.179  16.403  1.00  0.00     0.138 A
HETATM    6  N2  UNL     1      21.858  33.009  15.865  1.00  0.00    -0.320 N
ATOM      7  H2  UNL     1      22.838  32.730  15.897  1.00  0.00     0.169 HD
HETATM    8  C4  UNL     1      20.952  32.164  15.272  1.00  0.00     0.162 A
HETATM    9  C18 UNL     1      19.605  32.537  15.222  1.00  0.00     0.104 A
HETATM   10  C19 UNL     1      19.177  33.754  15.772  1.00  0.00     0.135 A
HETATM   11  C25 UNL     1      20.186  34.525  16.349  1.00  0.00     0.118 A
HETATM   12  N7  UNL     1      19.835  35.705  16.870  1.00  0.00    -0.353 N
ATOM     13  H7  UNL     1      18.858  35.998  16.848  1.00  0.00     0.166 HD
HETATM   14  C26 UNL     1      20.770  36.514  17.427  1.00  0.00     0.028 A
HETATM   15  C27 UNL     1      20.339  37.821  18.003  1.00  0.00     0.070 C
ENDROOT
BRANCH   8  16
HETATM   16  O1  UNL     1      21.393  31.044  14.772  1.00  0.00    -0.255 OA
BRANCH  16  17
HETATM   17  C5  UNL     1      21.828  29.963  14.322  1.00  0.00    -0.008 C
BRANCH  17  18
HETATM   18  C6  UNL     1      22.318  28.722  13.809  1.00  0.00     0.186 C
BRANCH  18  19
HETATM   19  S1  UNL     1      22.866  28.682  12.068  1.00  0.00    -0.146 SA
BRANCH  19  20
HETATM   20  C7  UNL     1      23.878  27.186  11.799  1.00  0.00     0.177 C
BRANCH  20  21
HETATM   21  C8  UNL     1      23.007  26.041  11.425  1.00  0.00     0.226 C
HETATM   22  O2  UNL     1      23.575  25.034  10.889  1.00  0.00    -0.273 OA
HETATM   23  N3  UNL     1      21.616  26.030  11.639  1.00  0.00    -0.360 N
ATOM     24  H3  UNL     1      21.196  26.854  12.071  1.00  0.00     0.162 HD
BRANCH  23  25
HETATM   25  C9  UNL     1      20.753  24.952  11.299  1.00  0.00     0.124 C
BRANCH  25  26
HETATM   26  C10 UNL     1      19.278  25.222  11.260  1.00  0.00     0.050 C
BRANCH  26  27
HETATM   27  C11 UNL     1      18.969  26.641  10.888  1.00  0.00     0.274 C
BRANCH  27  28
HETATM   28  N4  UNL     1      18.889  27.481  12.094  1.00  0.00     0.088 N
HETATM   29  C12 UNL     1      17.509  27.422  12.600  1.00  0.00     0.272 C
HETATM   30  C13 UNL     1      16.483  27.715  11.567  1.00  0.00     0.030 C
HETATM   31  C14 UNL     1      16.407  29.195  11.233  1.00  0.00     0.002 C
HETATM   32  C15 UNL     1      16.995  30.028  12.360  1.00  0.00     0.002 C
HETATM   33  C16 UNL     1      18.464  29.821  12.558  1.00  0.00     0.030 C
HETATM   34  C17 UNL     1      19.124  28.878  11.637  1.00  0.00     0.272 C
ENDBRANCH  27  28
ENDBRANCH  26  27
ENDBRANCH  25  26
ENDBRANCH  23  25
ENDBRANCH  20  21
ENDBRANCH  19  20
ENDBRANCH  18  19
ENDBRANCH  17  18
ENDBRANCH  16  17
ENDBRANCH   8  16
BRANCH  10  35
HETATM   35  N5  UNL     1      18.009  34.061  15.711  1.00  0.00    -0.440 NA
BRANCH  35  36
HETATM   36  C20 UNL     1      16.698  34.180  15.977  1.00  0.00     0.173 C
HETATM   37  C21 UNL     1      15.852  33.046  15.428  1.00  0.00     0.059 C
HETATM   38  C22 UNL     1      14.707  32.657  16.329  1.00  0.00     0.125 C
HETATM   39  N6  UNL     1      14.149  33.751  17.063  1.00  0.00    -0.361 N
HETATM   40  C23 UNL     1      15.051  34.605  17.748  1.00  0.00     0.220 C
ATOM     41  H6  UNL     1      13.142  33.910  17.093  1.00  0.00     0.162 HD
HETATM   42  O3  UNL     1      14.676  35.528  18.523  1.00  0.00    -0.274 OA
HETATM   43  C24 UNL     1      16.502  34.343  17.492  1.00  0.00     0.142 C
ENDBRANCH  35  36
ENDBRANCH  10  35
TORSDOF 12
ENDMDL