MODEL 1
REMARK VINA RESULT: -8.374312308      0.000      0.000
REMARK  15 active torsions:
REMARK  status: ('A' for Active; 'I' for Inactive)
REMARK    1  A    between atoms: C2_2  and  O1_3
REMARK    2  A    between atoms: O1_3  and  C3_4
REMARK    3  A    between atoms: C9_12  and  N2_13
REMARK    4  A    between atoms: N2_13  and  C10_15
REMARK    5  A    between atoms: N4_19  and  C12_21
REMARK    6  A    between atoms: C12_21  and  C13_22
REMARK    7  A    between atoms: C13_22  and  C14_23
REMARK    8  A    between atoms: C14_23  and  O2_24
REMARK    9  A    between atoms: C14_23  and  C15_26
REMARK   10  A    between atoms: C15_26  and  N5_27
REMARK   11  A    between atoms: N6_30  and  C18_31
REMARK   12  A    between atoms: C18_31  and  C19_32
REMARK   13  A    between atoms: C19_32  and  O3_33
REMARK   14  A    between atoms: C25_41  and  C26_42
REMARK   15  A    between atoms: C27_43  and  C28_44
ROOT
HETATM    1  C10 UNL     1      20.590  33.944  16.573  1.00  0.00     0.141 A
HETATM    2  N3  UNL     1      20.497  32.832  15.778  1.00  0.00    -0.175 N
ATOM      3  H3  UNL     1      19.665  32.713  15.200  1.00  0.00     0.186 HD
HETATM    4  C11 UNL     1      21.445  31.903  15.728  1.00  0.00     0.679 A
HETATM    5  N4  UNL     1      21.393  30.856  15.010  1.00  0.00    -0.226 N
ATOM      6  H4  UNL     1      22.203  30.240  15.082  1.00  0.00     0.177 HD
HETATM    7  N7  UNL     1      22.580  32.021  16.485  1.00  0.00    -0.200 N
ATOM      8  H7  UNL     1      23.304  31.304  16.440  1.00  0.00     0.183 HD
HETATM    9  C24 UNL     1      22.731  33.074  17.275  1.00  0.00     0.130 A
HETATM   10  C25 UNL     1      21.727  34.045  17.321  1.00  0.00     0.078 A
ENDROOT
BRANCH   5  11
HETATM   11  C12 UNL     1      20.376  30.414  14.122  1.00  0.00     0.140 C
BRANCH  11  12
HETATM   12  C13 UNL     1      19.504  29.423  14.907  1.00  0.00     0.053 C
BRANCH  12  13
HETATM   13  C14 UNL     1      18.856  28.478  13.876  1.00  0.00     0.148 C
BRANCH  13  14
HETATM   14  O2  UNL     1      18.142  27.558  14.620  1.00  0.00    -0.394 OA
ATOM     15  H2  UNL     1      17.546  27.145  14.006  1.00  0.00     0.210 HD
ENDBRANCH  13  14
BRANCH  13  16
HETATM   16  C15 UNL     1      19.932  27.939  13.005  1.00  0.00     0.304 C
BRANCH  16  17
HETATM   17  N5  UNL     1      19.641  27.852  11.617  1.00  0.00     0.098 N
HETATM   18  C16 UNL     1      20.815  28.366  10.908  1.00  0.00     0.303 C
HETATM   19  C17 UNL     1      21.953  27.426  10.822  1.00  0.00     0.302 C
HETATM   20  N6  UNL     1      21.759  26.096  11.258  1.00  0.00     0.094 N
HETATM   21  C21 UNL     1      20.444  25.581  11.339  1.00  0.00     0.307 C
HETATM   22  C22 UNL     1      19.325  26.541  11.106  1.00  0.00     0.247 C
HETATM   23  C23 UNL     1      19.141  26.691   9.599  1.00  0.00     0.045 C
BRANCH  20  24
HETATM   24  C18 UNL     1      22.585  25.192  10.488  1.00  0.00     0.298 C
BRANCH  24  25
HETATM   25  C19 UNL     1      24.041  25.503  10.506  1.00  0.00     0.197 C
BRANCH  25  26
HETATM   26  O3  UNL     1      24.616  25.597  11.750  1.00  0.00    -0.394 OA
HETATM   27  C20 UNL     1      25.336  26.786  11.829  1.00  0.00     0.201 C
ENDBRANCH  25  26
ENDBRANCH  24  25
ENDBRANCH  20  24
ENDBRANCH  16  17
ENDBRANCH  13  16
ENDBRANCH  12  13
ENDBRANCH  11  12
ENDBRANCH   5  11
BRANCH   1  28
HETATM   28  N2  UNL     1      19.680  34.743  16.555  1.00  0.00    -0.337 N
ATOM     29  H2  UNL     1      19.957  35.511  15.944  1.00  0.00     0.167 HD
BRANCH  28  30
HETATM   30  C9  UNL     1      18.428  35.023  17.030  1.00  0.00     0.091 A
HETATM   31  C3  UNL     1      17.446  34.040  17.073  1.00  0.00     0.170 A
HETATM   32  N1  UNL     1      16.233  34.304  17.536  1.00  0.00    -0.339 N
HETATM   33  C4  UNL     1      15.901  35.530  17.984  1.00  0.00     0.008 A
ATOM     34  H1  UNL     1      15.534  33.561  17.554  1.00  0.00     0.168 HD
HETATM   35  C5  UNL     1      14.547  35.869  18.505  1.00  0.00     0.068 C
HETATM   36  C6  UNL     1      16.847  36.541  17.962  1.00  0.00     0.033 A
HETATM   37  C7  UNL     1      18.106  36.295  17.489  1.00  0.00    -0.029 A
HETATM   38  C8  UNL     1      19.155  37.384  17.461  1.00  0.00     0.050 C
BRANCH  31  39
HETATM   39  O1  UNL     1      17.775  32.777  16.619  1.00  0.00    -0.334 OA
BRANCH  39  40
HETATM   40  C2  UNL     1      16.944  31.976  15.846  1.00  0.00     0.173 C
HETATM   41  C1  UNL     1      17.154  32.121  14.374  1.00  0.00     0.034 C
ENDBRANCH  39  40
ENDBRANCH  31  39
ENDBRANCH  28  30
ENDBRANCH   1  28
BRANCH  10  42
HETATM   42  C26 UNL     1      21.956  35.148  18.209  1.00  0.00    -0.061 C
HETATM   43  C27 UNL     1      22.170  36.088  18.930  1.00  0.00    -0.097 C
BRANCH  43  44
HETATM   44  C28 UNL     1      22.467  37.236  19.809  1.00  0.00     0.057 C
HETATM   45  C29 UNL     1      21.204  37.622  20.587  1.00  0.00     0.023 C
HETATM   46  C30 UNL     1      22.871  38.381  18.943  1.00  0.00     0.023 C
ENDBRANCH  43  44
ENDBRANCH  10  42
TORSDOF 15
ENDMDL