MODEL 1
REMARK VINA RESULT: -8.512623047      0.000      0.000
REMARK  11 active torsions:
REMARK  status: ('A' for Active; 'I' for Inactive)
REMARK    1  A    between atoms: O1_2  and  C2_3
REMARK    2  A    between atoms: C2_3  and  C3_4
REMARK    3  A    between atoms: C3_4  and  O2_5
REMARK    4  A    between atoms: O2_5  and  C4_6
REMARK    5  A    between atoms: C6_8  and  N1_9
REMARK    6  A    between atoms: N1_9  and  C7_11
REMARK    7  A    between atoms: C8_14  and  C9_15
REMARK    8  A    between atoms: C19_31  and  C20_32
REMARK    9  A    between atoms: C20_32  and  C21_33
REMARK   10  A    between atoms: C21_33  and  N6_34
REMARK       I    between atoms: N6_34  and  C23_36
REMARK   11  A    between atoms: C25_39  and  C26_40
ROOT
HETATM    1  C4  UNL     1      16.639  33.493  15.940  1.00  0.00     0.071 A
HETATM    2  C5  UNL     1      17.501  34.532  16.161  1.00  0.00     0.066 A
HETATM    3  C6  UNL     1      18.857  34.359  16.220  1.00  0.00     0.043 A
HETATM    4  C19 UNL     1      19.392  33.070  16.049  1.00  0.00    -0.018 A
HETATM    5  C25 UNL     1      18.576  31.998  15.829  1.00  0.00    -0.012 A
HETATM    6  C29 UNL     1      17.191  32.250  15.779  1.00  0.00     0.049 A
ENDROOT
BRANCH   3   7
HETATM    7  N1  UNL     1      19.681  35.467  16.444  1.00  0.00    -0.341 N
ATOM      8  H1  UNL     1      20.487  35.544  15.823  1.00  0.00     0.167 HD
BRANCH   7   9
HETATM    9  C7  UNL     1      19.571  36.386  17.303  1.00  0.00     0.115 A
HETATM   10  N2  UNL     1      18.794  37.482  17.218  1.00  0.00    -0.327 N
HETATM   11  C8  UNL     1      18.741  38.407  18.191  1.00  0.00     0.124 A
ATOM     12  H2  UNL     1      18.222  37.614  16.383  1.00  0.00     0.169 HD
HETATM   13  N5  UNL     1      19.496  38.232  19.294  1.00  0.00    -0.344 N
HETATM   14  C13 UNL     1      20.297  37.178  19.468  1.00  0.00     0.021 A
ATOM     15  H5  UNL     1      19.454  38.938  20.030  1.00  0.00     0.167 HD
HETATM   16  C14 UNL     1      20.342  36.237  18.463  1.00  0.00     0.009 A
HETATM   17  C18 UNL     1      21.139  36.954  20.668  1.00  0.00     0.058 C
HETATM   18  C15 UNL     1      21.235  35.073  18.671  1.00  0.00     0.044 C
HETATM   19  C16 UNL     1      22.571  35.540  19.150  1.00  0.00     0.005 C
HETATM   20  C17 UNL     1      22.534  36.613  20.190  1.00  0.00     0.006 C
BRANCH  11  21
HETATM   21  C9  UNL     1      17.882  39.587  18.060  1.00  0.00     0.094 A
HETATM   22  C10 UNL     1      17.104  40.153  19.047  1.00  0.00     0.130 A
HETATM   23  N3  UNL     1      16.452  41.237  18.535  1.00  0.00    -0.304 N
HETATM   24  C11 UNL     1      15.551  42.054  19.325  1.00  0.00     0.177 C
HETATM   25  N4  UNL     1      16.812  41.336  17.279  1.00  0.00    -0.264 N
HETATM   26  C12 UNL     1      17.683  40.356  16.935  1.00  0.00     0.275 A
ATOM     27  H4  UNL     1      16.480  42.059  16.641  1.00  0.00     0.190 HD
HETATM   28  O3  UNL     1      18.226  40.154  15.821  1.00  0.00    -0.266 OA
ENDBRANCH  11  21
ENDBRANCH   7   9
ENDBRANCH   3   7
BRANCH   4  29
HETATM   29  C20 UNL     1      20.852  32.981  16.102  1.00  0.00     0.061 C
BRANCH  29  30
HETATM   30  C21 UNL     1      21.495  33.270  14.754  1.00  0.00     0.130 C
BRANCH  30  31
HETATM   31  N6  UNL     1      21.952  32.025  14.155  1.00  0.00    -0.356 N
HETATM   32  C22 UNL     1      23.101  31.363  14.752  1.00  0.00     0.152 C
HETATM   33  C23 UNL     1      21.321  31.450  13.024  1.00  0.00     0.215 C
HETATM   34  C24 UNL     1      20.149  32.055  12.353  1.00  0.00     0.117 C
HETATM   35  O4  UNL     1      21.783  30.373  12.572  1.00  0.00    -0.274 OA
ENDBRANCH  30  31
ENDBRANCH  29  30
ENDBRANCH   4  29
BRANCH   1  36
HETATM   36  O2  UNL     1      15.246  33.700  15.883  1.00  0.00    -0.349 OA
BRANCH  36  37
HETATM   37  C3  UNL     1      14.564  33.698  17.121  1.00  0.00     0.201 C
BRANCH  37  38
HETATM   38  C2  UNL     1      14.275  35.083  17.625  1.00  0.00     0.193 C
BRANCH  38  39
HETATM   39  O1  UNL     1      14.969  35.393  18.776  1.00  0.00    -0.394 OA
HETATM   40  C1  UNL     1      15.499  36.678  18.677  1.00  0.00     0.201 C
ENDBRANCH  38  39
ENDBRANCH  37  38
ENDBRANCH  36  37
ENDBRANCH   1  36
BRANCH   5  41
HETATM   41  C26 UNL     1      19.039  30.638  15.666  1.00  0.00     0.009 A
HETATM   42  C27 UNL     1      19.982  29.961  16.379  1.00  0.00     0.120 A
HETATM   43  N7  UNL     1      20.092  28.701  15.869  1.00  0.00    -0.311 N
HETATM   44  N8  UNL     1      19.228  28.601  14.854  1.00  0.00    -0.311 N
ATOM     45  H7  UNL     1      20.720  27.969  16.202  1.00  0.00     0.186 HD
HETATM   46  C28 UNL     1      18.570  29.770  14.707  1.00  0.00     0.120 A
ATOM     47  H8  UNL     1      19.087  27.770  14.279  1.00  0.00     0.186 HD
ENDBRANCH   5  41
TORSDOF 11
ENDMDL