MODEL 2
REMARK VINA RESULT: -9.570464526      1.914      3.260
REMARK  12 active torsions:
REMARK  status: ('A' for Active; 'I' for Inactive)
REMARK    1  A    between atoms: C3_3  and  N1_4
REMARK    2  A    between atoms: N1_4  and  C4_5
REMARK    3  A    between atoms: N1_4  and  C18_29
REMARK    4  A    between atoms: C4_5  and  C5_6
REMARK    5  A    between atoms: C8_11  and  N3_12
REMARK    6  A    between atoms: C14_20  and  N5_21
REMARK    7  A    between atoms: N5_21  and  C15_23
REMARK    8  A    between atoms: C15_23  and  C16_24
REMARK    9  A    between atoms: C23_34  and  C24_35
REMARK       I    between atoms: C24_35  and  N8_37
REMARK   10  A    between atoms: N8_37  and  C25_39
REMARK   11  A    between atoms: C25_39  and  C26_40
REMARK   12  A    between atoms: C26_40  and  C27_41
ROOT
HETATM    1  C1  UNL     1      15.574  28.151  11.345  1.00  0.00     0.014 C
HETATM    2  C2  UNL     1      16.649  28.680  11.200  1.00  0.00    -0.098 C
HETATM    3  C3  UNL     1      17.966  29.349  11.046  1.00  0.00     0.216 C
ENDROOT
BRANCH   3   4
HETATM    4  N1  UNL     1      18.858  28.949  12.084  1.00  0.00    -0.363 N
BRANCH   4   5
HETATM    5  C4  UNL     1      18.492  28.766  13.436  1.00  0.00     0.182 C
BRANCH   5   6
HETATM    6  C5  UNL     1      18.409  29.938  14.307  1.00  0.00     0.048 A
HETATM    7  C6  UNL     1      17.446  30.826  14.653  1.00  0.00     0.080 A
HETATM    8  C7  UNL     1      17.941  31.757  15.546  1.00  0.00     0.162 A
HETATM    9  N2  UNL     1      17.383  32.806  16.151  1.00  0.00    -0.174 N
HETATM   10  N6  UNL     1      19.244  31.389  15.723  1.00  0.00    -0.069 N
HETATM   11  C8  UNL     1      18.119  33.562  16.985  1.00  0.00     0.696 A
ATOM     12  H2  UNL     1      16.403  33.033  15.982  1.00  0.00     0.186 HD
HETATM   13  N4  UNL     1      19.388  33.227  17.175  1.00  0.00    -0.021 N
HETATM   14  C14 UNL     1      19.982  32.145  16.558  1.00  0.00     0.716 A
ATOM     15  H4  UNL     1      19.952  33.796  17.807  1.00  0.00     0.203 HD
HETATM   16  N7  UNL     1      19.509  30.340  15.006  1.00  0.00    -0.280 N
ATOM     17  H7  UNL     1      20.417  29.877  14.971  1.00  0.00     0.188 HD
BRANCH  11  18
HETATM   18  N3  UNL     1      17.462  34.659  17.603  1.00  0.00    -0.217 N
HETATM   19  C9  UNL     1      18.147  35.684  18.377  1.00  0.00     0.141 C
HETATM   20  C10 UNL     1      18.008  37.009  17.641  1.00  0.00     0.020 C
HETATM   21  C11 UNL     1      16.757  37.080  16.810  1.00  0.00     0.003 C
HETATM   22  C12 UNL     1      15.674  36.291  17.520  1.00  0.00     0.020 C
HETATM   23  C13 UNL     1      15.998  34.814  17.510  1.00  0.00     0.141 C
ENDBRANCH  11  18
BRANCH  14  24
HETATM   24  N5  UNL     1      21.200  31.931  16.837  1.00  0.00    -0.220 N
ATOM     25  H5  UNL     1      21.469  30.968  17.040  1.00  0.00     0.178 HD
BRANCH  24  26
HETATM   26  C15 UNL     1      22.221  32.909  16.890  1.00  0.00     0.164 C
BRANCH  26  27
HETATM   27  C16 UNL     1      22.705  33.253  15.506  1.00  0.00    -0.017 C
HETATM   28  C17 UNL     1      23.330  32.365  14.735  1.00  0.00     0.008 C
ENDBRANCH  26  27
ENDBRANCH  24  26
ENDBRANCH  14  24
ENDBRANCH   5   6
ENDBRANCH   4   5
BRANCH   4  29
HETATM   29  C18 UNL     1      20.228  28.677  11.721  1.00  0.00     0.057 A
HETATM   30  C19 UNL     1      21.234  29.598  11.751  1.00  0.00    -0.034 A
HETATM   31  C20 UNL     1      20.987  30.994  12.173  1.00  0.00     0.050 C
HETATM   32  C21 UNL     1      22.538  29.272  11.387  1.00  0.00     0.010 A
HETATM   33  C22 UNL     1      22.843  28.011  10.988  1.00  0.00     0.019 A
HETATM   34  C23 UNL     1      21.833  27.038  10.944  1.00  0.00     0.052 A
HETATM   35  C28 UNL     1      20.554  27.386  11.309  1.00  0.00     0.059 A
HETATM   36  C29 UNL     1      19.523  26.366  11.260  1.00  0.00    -0.074 C
HETATM   37  C30 UNL     1      18.658  25.528  11.236  1.00  0.00     0.018 C
BRANCH  34  38
HETATM   38  C24 UNL     1      22.200  25.690  10.500  1.00  0.00     0.253 C
HETATM   39  O1  UNL     1      22.431  24.777  11.293  1.00  0.00    -0.268 OA
HETATM   40  N8  UNL     1      22.282  25.463   9.101  1.00  0.00    -0.356 N
ATOM     41  H8  UNL     1      22.081  26.249   8.483  1.00  0.00     0.162 HD
BRANCH  40  42
HETATM   42  C25 UNL     1      22.628  24.205   8.488  1.00  0.00     0.133 C
BRANCH  42  43
HETATM   43  C26 UNL     1      21.969  24.137   7.106  1.00  0.00     0.133 C
BRANCH  43  44
HETATM   44  C27 UNL     1      22.583  25.141   6.211  1.00  0.00     0.174 C
HETATM   45  O2  UNL     1      23.742  25.551   6.453  1.00  0.00    -0.648 OA
HETATM   46  O3  UNL     1      21.912  25.639   5.113  1.00  0.00    -0.648 OA
ENDBRANCH  43  44
ENDBRANCH  42  43
ENDBRANCH  40  42
ENDBRANCH  34  38
ENDBRANCH   4  29
ENDBRANCH   3   4
TORSDOF 12
ENDMDL