MODEL 4
REMARK VINA RESULT: -9.429392863      1.660      2.334
REMARK  12 active torsions:
REMARK  status: ('A' for Active; 'I' for Inactive)
REMARK    1  A    between atoms: C2_2  and  C3_3
REMARK    2  A    between atoms: C3_3  and  C4_4
REMARK    3  A    between atoms: C4_4  and  C5_5
REMARK    4  A    between atoms: C5_5  and  C6_6
REMARK    5  A    between atoms: C6_6  and  O1_7
REMARK    6  A    between atoms: C6_6  and  C7_9
REMARK    7  A    between atoms: C7_9  and  N1_10
REMARK    8  A    between atoms: C9_15  and  C10_16
REMARK    9  A    between atoms: C10_16  and  C11_18
REMARK   10  A    between atoms: C11_18  and  C12_19
REMARK   11  A    between atoms: N3_21  and  C14_22
REMARK   12  A    between atoms: C14_22  and  C15_23
REMARK       I    between atoms: C15_23  and  N4_25
ROOT
HETATM    1  C12 UNL     1      21.786  30.082  14.339  1.00  0.00    -0.021 A
HETATM    2  C13 UNL     1      20.487  29.846  14.727  1.00  0.00     0.101 A
HETATM    3  N3  UNL     1      20.038  28.707  14.121  1.00  0.00    -0.333 N
HETATM    4  C20 UNL     1      21.047  28.245  13.366  1.00  0.00     0.121 A
HETATM    5  N5  UNL     1      21.175  27.173  12.560  1.00  0.00    -0.308 N
ATOM      6  H5  UNL     1      20.374  26.548  12.464  1.00  0.00     0.170 HD
HETATM    7  C21 UNL     1      22.294  26.874  11.872  1.00  0.00     0.252 A
HETATM    8  O5  UNL     1      22.354  25.844  11.124  1.00  0.00    -0.268 OA
HETATM    9  C22 UNL     1      23.414  27.673  11.955  1.00  0.00     0.007 A
HETATM   10  C23 UNL     1      24.656  27.348  11.197  1.00  0.00     0.054 C
HETATM   11  C24 UNL     1      23.318  28.780  12.772  1.00  0.00     0.028 A
HETATM   12  C25 UNL     1      22.158  29.061  13.465  1.00  0.00     0.017 A
ENDROOT
BRANCH   1  13
HETATM   13  C11 UNL     1      22.692  31.189  14.730  1.00  0.00     0.125 C
BRANCH  13  14
HETATM   14  C10 UNL     1      22.194  32.487  14.221  1.00  0.00     0.171 C
HETATM   15  O3  UNL     1      23.018  33.331  13.794  1.00  0.00    -0.292 OA
BRANCH  14  16
HETATM   16  C9  UNL     1      20.774  32.786  14.213  1.00  0.00     0.103 A
HETATM   17  C8  UNL     1      19.923  32.579  13.126  1.00  0.00     0.275 A
HETATM   18  N2  UNL     1      18.694  32.977  13.504  1.00  0.00    -0.263 N
HETATM   19  O2  UNL     1      20.200  32.113  11.992  1.00  0.00    -0.266 OA
HETATM   20  N1  UNL     1      18.705  33.419  14.748  1.00  0.00    -0.290 N
ATOM     21  H2  UNL     1      17.866  32.942  12.909  1.00  0.00     0.190 HD
HETATM   22  C26 UNL     1      19.990  33.308  15.206  1.00  0.00     0.044 A
HETATM   23  C27 UNL     1      20.454  33.699  16.576  1.00  0.00     0.071 C
BRANCH  20  24
HETATM   24  C7  UNL     1      17.606  33.953  15.521  1.00  0.00     0.180 C
BRANCH  24  25
HETATM   25  C6  UNL     1      16.672  32.844  15.986  1.00  0.00     0.138 C
BRANCH  25  26
HETATM   26  C5  UNL     1      15.320  33.388  16.332  1.00  0.00     0.033 C
BRANCH  26  27
HETATM   27  C4  UNL     1      15.190  34.079  17.634  1.00  0.00     0.002 C
BRANCH  27  28
HETATM   28  C3  UNL     1      14.405  35.339  17.626  1.00  0.00    -0.000 C
BRANCH  28  29
HETATM   29  C2  UNL     1      15.033  36.436  18.456  1.00  0.00    -0.005 C
HETATM   30  C1  UNL     1      14.012  37.479  18.861  1.00  0.00     0.005 C
ENDBRANCH  28  29
ENDBRANCH  27  28
ENDBRANCH  26  27
ENDBRANCH  25  26
BRANCH  25  31
HETATM   31  O1  UNL     1      16.677  31.739  15.179  1.00  0.00    -0.394 OA
ATOM     32  H1  UNL     1      17.472  31.220  15.198  1.00  0.00     0.210 HD
ENDBRANCH  25  31
ENDBRANCH  24  25
ENDBRANCH  20  24
ENDBRANCH  14  16
ENDBRANCH  13  14
ENDBRANCH   1  13
BRANCH   3  33
HETATM   33  C14 UNL     1      18.698  28.146  14.308  1.00  0.00     0.232 C
BRANCH  33  34
HETATM   34  C15 UNL     1      17.890  28.579  13.127  1.00  0.00     0.238 C
HETATM   35  O4  UNL     1      17.722  29.846  13.004  1.00  0.00    -0.272 OA
HETATM   36  N4  UNL     1      17.320  27.725  12.175  1.00  0.00    -0.349 N
HETATM   37  C16 UNL     1      16.531  28.327  11.094  1.00  0.00     0.136 C
HETATM   38  C19 UNL     1      17.436  26.290  12.131  1.00  0.00     0.136 C
HETATM   39  C17 UNL     1      17.469  28.534   9.928  1.00  0.00     0.093 C
HETATM   40  S1  UNL     1      18.729  27.227   9.861  1.00  0.00    -0.166 SA
HETATM   41  C18 UNL     1      18.369  25.891  11.002  1.00  0.00     0.093 C
ENDBRANCH  33  34
ENDBRANCH   3  33
TORSDOF 12
ENDMDL