MODEL 4
REMARK VINA RESULT: -8.592708135      3.352      6.301
REMARK  11 active torsions:
REMARK  status: ('A' for Active; 'I' for Inactive)
REMARK    1  A    between atoms: C3_3  and  N1_4
REMARK    2  A    between atoms: N1_4  and  C4_5
REMARK    3  A    between atoms: N1_4  and  C23_33
REMARK    4  A    between atoms: C4_5  and  C5_6
REMARK    5  A    between atoms: C6_9  and  C7_10
REMARK    6  A    between atoms: C7_10  and  C8_11
REMARK    7  A    between atoms: C8_11  and  N3_12
REMARK    8  A    between atoms: N3_12  and  C11_15
REMARK    9  A    between atoms: C13_17  and  N4_18
REMARK   10  A    between atoms: N4_18  and  C14_20
REMARK   11  A    between atoms: C17_23  and  O1_24
ROOT
HETATM    1  C1  UNL     1      13.742  37.147  18.734  1.00  0.00     0.018 C
HETATM    2  C2  UNL     1      14.781  36.569  18.631  1.00  0.00    -0.072 C
HETATM    3  C3  UNL     1      16.008  35.850  18.532  1.00  0.00     0.173 C
ENDROOT
BRANCH   3   4
HETATM    4  N1  UNL     1      16.892  36.281  17.460  1.00  0.00    -0.180 N
BRANCH   4   5
HETATM    5  C4  UNL     1      16.516  35.882  16.096  1.00  0.00     0.210 C
BRANCH   5   6
HETATM    6  C5  UNL     1      17.052  34.543  15.719  1.00  0.00     0.097 A
HETATM    7  N2  UNL     1      18.256  34.190  15.307  1.00  0.00    -0.354 N
HETATM    8  C6  UNL     1      18.644  32.855  15.136  1.00  0.00     0.056 A
ATOM      9  H2  UNL     1      18.935  34.923  15.104  1.00  0.00     0.166 HD
HETATM   10  C13 UNL     1      17.744  31.872  15.392  1.00  0.00     0.131 A
HETATM   11  N5  UNL     1      16.486  32.270  15.819  1.00  0.00    -0.306 N
HETATM   12  C22 UNL     1      16.126  33.528  15.988  1.00  0.00     0.271 A
ATOM     13  H5  UNL     1      15.796  31.545  16.015  1.00  0.00     0.170 HD
HETATM   14  O2  UNL     1      14.965  33.818  16.384  1.00  0.00    -0.266 OA
BRANCH   8  15
HETATM   15  C7  UNL     1      20.071  32.624  14.753  1.00  0.00     0.089 C
BRANCH  15  16
HETATM   16  C8  UNL     1      21.015  32.477  15.897  1.00  0.00     0.242 C
BRANCH  16  17
HETATM   17  N3  UNL     1      22.016  33.491  16.055  1.00  0.00    -0.075 N
HETATM   18  C9  UNL     1      21.619  34.838  15.890  1.00  0.00     0.272 C
HETATM   19  C10 UNL     1      22.435  33.374  17.510  1.00  0.00     0.272 C
BRANCH  17  20
HETATM   20  C11 UNL     1      23.217  33.180  15.322  1.00  0.00     0.232 C
HETATM   21  C12 UNL     1      23.283  31.752  14.827  1.00  0.00     0.034 C
ENDBRANCH  17  20
ENDBRANCH  16  17
ENDBRANCH  15  16
ENDBRANCH   8  15
BRANCH  10  22
HETATM   22  N4  UNL     1      18.011  30.471  15.424  1.00  0.00    -0.340 N
ATOM     23  H4  UNL     1      18.029  29.933  16.291  1.00  0.00     0.167 HD
BRANCH  22  24
HETATM   24  C14 UNL     1      18.255  29.876  14.136  1.00  0.00     0.039 A
HETATM   25  C15 UNL     1      17.411  30.065  13.081  1.00  0.00     0.033 A
HETATM   26  C16 UNL     1      17.744  29.557  11.858  1.00  0.00     0.039 A
HETATM   27  C17 UNL     1      18.945  28.842  11.671  1.00  0.00     0.068 A
HETATM   28  C19 UNL     1      19.789  28.674  12.756  1.00  0.00     0.045 A
HETATM   29  C20 UNL     1      19.428  29.192  13.981  1.00  0.00    -0.033 A
HETATM   30  C21 UNL     1      20.279  28.820  15.153  1.00  0.00     0.050 C
BRANCH  27  31
HETATM   31  O1  UNL     1      19.216  28.335  10.412  1.00  0.00    -0.356 OA
HETATM   32  C18 UNL     1      18.315  27.689   9.568  1.00  0.00     0.210 C
ENDBRANCH  27  31
ENDBRANCH  22  24
ENDBRANCH  10  22
ENDBRANCH   5   6
ENDBRANCH   4   5
BRANCH   4  33
HETATM   33  C23 UNL     1      18.157  36.804  17.776  1.00  0.00     0.688 A
HETATM   34  N6  UNL     1      18.779  37.737  17.070  1.00  0.00    -0.154 N
HETATM   35  C24 UNL     1      20.067  37.965  17.399  1.00  0.00     0.279 A
ATOM     36  H6  UNL     1      18.311  38.253  16.325  1.00  0.00     0.187 HD
HETATM   37  O3  UNL     1      20.805  38.823  16.827  1.00  0.00    -0.266 OA
HETATM   38  C25 UNL     1      20.719  37.254  18.430  1.00  0.00     0.100 A
HETATM   39  S1  UNL     1      22.286  37.163  19.081  1.00  0.00    -0.094 SA
HETATM   40  C28 UNL     1      20.051  36.311  19.138  1.00  0.00     0.072 A
HETATM   41  C26 UNL     1      22.061  35.943  20.228  1.00  0.00     0.053 A
HETATM   42  C27 UNL     1      20.730  35.622  20.076  1.00  0.00     0.039 A
HETATM   43  N7  UNL     1      18.741  36.105  18.781  1.00  0.00    -0.190 N
ATOM     44  H7  UNL     1      18.193  35.408  19.286  1.00  0.00     0.184 HD
ENDBRANCH   4  33
ENDBRANCH   3   4
TORSDOF 11
ENDMDL