MODEL 3
REMARK VINA RESULT: -8.650894972      2.870      9.818
REMARK  17 active torsions:
REMARK  status: ('A' for Active; 'I' for Inactive)
REMARK    1  A    between atoms: N2_10  and  C9_11
REMARK    2  A    between atoms: C9_11  and  O1_12
REMARK    3  A    between atoms: C9_11  and  C10_14
REMARK    4  A    between atoms: C12_17  and  C13_18
REMARK    5  A    between atoms: C13_18  and  C14_19
REMARK    6  A    between atoms: C14_19  and  C15_20
REMARK    7  A    between atoms: C15_20  and  C16_21
REMARK    8  A    between atoms: C16_21  and  C17_22
REMARK    9  A    between atoms: N5_28  and  C19_30
REMARK   10  A    between atoms: C19_30  and  O2_31
REMARK   11  A    between atoms: C19_30  and  C20_33
REMARK   12  A    between atoms: C20_33  and  N6_34
REMARK   13  A    between atoms: C20_33  and  C21_38
REMARK   14  A    between atoms: C21_38  and  C22_39
REMARK   15  A    between atoms: C22_39  and  C23_40
REMARK   16  A    between atoms: C23_40  and  C24_41
REMARK   17  A    between atoms: C24_41  and  N7_42
ROOT
HETATM    1  C17 UNL     1      18.678  31.259  16.083  1.00  0.00     0.069 A
HETATM    2  N3  UNL     1      19.188  30.412  16.952  1.00  0.00    -0.296 N
ATOM      3  H3  UNL     1      18.920  30.479  17.934  1.00  0.00     0.187 HD
HETATM    4  N4  UNL     1      20.008  29.513  16.590  1.00  0.00    -0.279 N
ATOM      5  H4  UNL     1      20.399  28.863  17.271  1.00  0.00     0.189 HD
HETATM    6  C18 UNL     1      20.349  29.432  15.304  1.00  0.00     0.166 A
HETATM    7  N5  UNL     1      21.184  28.592  14.714  1.00  0.00    -0.318 N
ATOM      8  H5  UNL     1      21.689  27.870  15.227  1.00  0.00     0.169 HD
HETATM    9  S2  UNL     1      19.443  30.708  14.620  1.00  0.00    -0.038 SA
ENDROOT
BRANCH   1  10
HETATM   10  C16 UNL     1      17.720  32.405  16.220  1.00  0.00     0.066 C
BRANCH  10  11
HETATM   11  C15 UNL     1      16.325  31.945  15.843  1.00  0.00     0.007 C
BRANCH  11  12
HETATM   12  C14 UNL     1      15.449  33.125  15.519  1.00  0.00     0.005 C
BRANCH  12  13
HETATM   13  C13 UNL     1      14.579  33.629  16.596  1.00  0.00     0.046 C
BRANCH  13  14
HETATM   14  C12 UNL     1      15.035  34.970  17.127  1.00  0.00    -0.017 A
HETATM   15  S1  UNL     1      14.293  36.074  18.160  1.00  0.00    -0.105 SA
HETATM   16  C11 UNL     1      15.503  37.260  18.241  1.00  0.00     0.066 A
HETATM   17  C10 UNL     1      16.531  36.747  17.413  1.00  0.00     0.022 A
HETATM   18  C25 UNL     1      16.247  35.570  16.859  1.00  0.00     0.030 A
BRANCH  17  19
HETATM   19  C9  UNL     1      17.714  37.591  17.210  1.00  0.00     0.149 C
BRANCH  19  20
HETATM   20  N2  UNL     1      18.998  37.438  17.740  1.00  0.00    -0.359 N
HETATM   21  C8  UNL     1      19.858  38.576  17.866  1.00  0.00     0.160 C
HETATM   22  C7  UNL     1      21.334  38.143  17.777  1.00  0.00     0.240 C
HETATM   23  N1  UNL     1      21.947  38.205  19.057  1.00  0.00     0.090 N
HETATM   24  C6  UNL     1      21.569  36.987  16.920  1.00  0.00     0.038 C
HETATM   25  C1  UNL     1      22.320  39.572  19.436  1.00  0.00     0.310 C
HETATM   26  C2  UNL     1      23.065  37.352  19.281  1.00  0.00     0.273 C
HETATM   27  C3  UNL     1      22.527  36.095  19.942  1.00  0.00     0.035 C
HETATM   28  C4  UNL     1      21.495  35.533  18.991  1.00  0.00    -0.011 C
HETATM   29  C5  UNL     1      21.848  35.680  17.541  1.00  0.00     0.007 C
HETATM   30  C27 UNL     1      20.087  35.944  19.314  1.00  0.00     0.024 C
HETATM   31  C26 UNL     1      19.200  36.021  18.126  1.00  0.00     0.125 C
ENDBRANCH  19  20
BRANCH  19  32
HETATM   32  O1  UNL     1      17.579  38.639  16.432  1.00  0.00    -0.346 OA
ATOM     33  H1  UNL     1      18.199  38.669  15.713  1.00  0.00     0.219 HD
ENDBRANCH  19  32
ENDBRANCH  17  19
ENDBRANCH  13  14
ENDBRANCH  12  13
ENDBRANCH  11  12
ENDBRANCH  10  11
ENDBRANCH   1  10
BRANCH   7  34
HETATM   34  C19 UNL     1      21.321  28.767  13.355  1.00  0.00     0.148 C
BRANCH  34  35
HETATM   35  O2  UNL     1      20.169  27.641  13.107  1.00  0.00    -0.348 OA
ATOM     36  H2  UNL     1      19.549  28.180  13.584  1.00  0.00     0.219 HD
ENDBRANCH  34  35
BRANCH  34  37
HETATM   37  C20 UNL     1      21.460  28.944  11.980  1.00  0.00     0.257 C
BRANCH  37  38
HETATM   38  N6  UNL     1      21.526  30.382  11.621  1.00  0.00    -0.068 N
ATOM     39  H63 UNL     1      20.627  30.723  11.282  1.00  0.00     0.275 HD
ATOM     40  H62 UNL     1      21.616  30.969  12.450  1.00  0.00     0.275 HD
ATOM     41  H61 UNL     1      22.273  30.565  10.951  1.00  0.00     0.275 HD
ENDBRANCH  37  38
BRANCH  37  42
HETATM   42  C21 UNL     1      22.648  28.226  11.358  1.00  0.00     0.041 C
BRANCH  42  43
HETATM   43  C22 UNL     1      23.736  27.842  12.263  1.00  0.00     0.004 C
BRANCH  43  44
HETATM   44  C23 UNL     1      24.831  26.966  11.810  1.00  0.00     0.027 C
BRANCH  44  45
HETATM   45  C24 UNL     1      24.451  25.789  10.973  1.00  0.00     0.229 C
BRANCH  45  46
HETATM   46  N7  UNL     1      24.880  25.965   9.583  1.00  0.00    -0.079 N
ATOM     47  H73 UNL     1      25.567  26.713   9.494  1.00  0.00     0.274 HD
ATOM     48  H72 UNL     1      25.457  25.184   9.267  1.00  0.00     0.274 HD
ATOM     49  H71 UNL     1      24.082  26.114   8.965  1.00  0.00     0.274 HD
ENDBRANCH  45  46
ENDBRANCH  44  45
ENDBRANCH  43  44
ENDBRANCH  42  43
ENDBRANCH  37  42
ENDBRANCH  34  37
ENDBRANCH   7  34
TORSDOF 17
ENDMDL