MODEL 4
REMARK VINA RESULT: -8.953418059      3.249     11.909
REMARK  11 active torsions:
REMARK  status: ('A' for Active; 'I' for Inactive)
REMARK    1  A    between atoms: C1_2  and  C2_4
REMARK    2  A    between atoms: C2_4  and  C3_5
REMARK    3  A    between atoms: C3_5  and  N1_6
REMARK       I    between atoms: N1_6  and  C4_8
REMARK    4  A    between atoms: C4_8  and  C5_10
REMARK    5  A    between atoms: C7_12  and  O4_13
REMARK    6  A    between atoms: O4_13  and  C8_14
REMARK    7  A    between atoms: C8_14  and  C9_15
REMARK    8  A    between atoms: N2_22  and  C16_23
REMARK    9  A    between atoms: C16_23  and  C17_24
REMARK       I    between atoms: C17_24  and  N3_26
REMARK   10  A    between atoms: N3_26  and  C18_28
REMARK   11  A    between atoms: N4_32  and  C22_33
ROOT
HETATM    1  C9  UNL     1      17.836  29.434  13.461  1.00  0.00     0.014 C
HETATM    2  C10 UNL     1      17.415  30.048  12.186  1.00  0.00     0.042 C
HETATM    3  C11 UNL     1      17.222  29.066  11.043  1.00  0.00     0.224 C
HETATM    4  C12 UNL     1      16.076  28.157  11.454  1.00  0.00     0.038 C
HETATM    5  C13 UNL     1      16.724  27.076  12.292  1.00  0.00     0.038 C
HETATM    6  C14 UNL     1      18.184  27.353  12.152  1.00  0.00     0.224 C
HETATM    7  C15 UNL     1      18.676  28.179  13.324  1.00  0.00     0.042 C
HETATM    8  N2  UNL     1      18.331  28.145  10.936  1.00  0.00     0.106 N
ENDROOT
BRANCH   1   9
HETATM    9  C8  UNL     1      18.559  30.370  14.395  1.00  0.00     0.181 C
BRANCH   9  10
HETATM   10  O4  UNL     1      17.932  31.212  15.157  1.00  0.00    -0.342 OA
BRANCH  10  11
HETATM   11  C7  UNL     1      17.545  32.467  15.356  1.00  0.00     0.128 A
HETATM   12  C6  UNL     1      16.715  32.912  16.404  1.00  0.00     0.081 A
HETATM   13  C5  UNL     1      16.439  34.214  16.433  1.00  0.00     0.110 A
HETATM   14  N5  UNL     1      16.957  34.993  15.487  1.00  0.00    -0.320 N
HETATM   15  S1  UNL     1      17.841  33.943  14.531  1.00  0.00     0.011 SA
ATOM     16  H5  UNL     1      16.841  35.999  15.370  1.00  0.00     0.174 HD
BRANCH  13  17
HETATM   17  C4  UNL     1      15.580  34.814  17.504  1.00  0.00     0.268 C
HETATM   18  N1  UNL     1      15.205  36.184  17.463  1.00  0.00    -0.355 N
ATOM     19  H1  UNL     1      15.546  36.732  16.673  1.00  0.00     0.162 HD
HETATM   20  O3  UNL     1      15.180  34.116  18.450  1.00  0.00    -0.266 OA
BRANCH  18  21
HETATM   21  C3  UNL     1      14.397  36.866  18.422  1.00  0.00     0.133 C
BRANCH  21  22
HETATM   22  C2  UNL     1      15.080  38.052  19.059  1.00  0.00     0.133 C
BRANCH  22  23
HETATM   23  C1  UNL     1      16.297  38.419  18.280  1.00  0.00     0.174 C
HETATM   24  O1  UNL     1      16.164  39.238  17.334  1.00  0.00    -0.648 OA
HETATM   25  O2  UNL     1      17.526  37.895  18.562  1.00  0.00    -0.648 OA
ENDBRANCH  22  23
ENDBRANCH  21  22
ENDBRANCH  18  21
ENDBRANCH  13  17
ENDBRANCH  10  11
ENDBRANCH   9  10
ENDBRANCH   1   9
BRANCH   8  26
HETATM   26  C16 UNL     1      18.044  27.256   9.814  1.00  0.00     0.375 C
BRANCH  26  27
HETATM   27  C17 UNL     1      19.004  26.133   9.745  1.00  0.00     0.247 C
HETATM   28  O5  UNL     1      18.758  24.969  10.125  1.00  0.00    -0.272 OA
HETATM   29  N3  UNL     1      20.327  26.337   9.204  1.00  0.00    -0.330 N
ATOM     30  H3  UNL     1      20.600  27.267   8.887  1.00  0.00     0.164 HD
BRANCH  29  31
HETATM   31  C18 UNL     1      21.277  25.239   9.104  1.00  0.00     0.324 C
HETATM   32  C19 UNL     1      21.214  24.882   7.591  1.00  0.00     0.059 C
HETATM   33  C20 UNL     1      22.569  24.320   7.360  1.00  0.00     0.034 C
HETATM   34  C21 UNL     1      23.368  24.621   8.596  1.00  0.00     0.276 C
HETATM   35  N4  UNL     1      22.620  25.630   9.363  1.00  0.00     0.116 N
BRANCH  35  36
HETATM   36  C22 UNL     1      22.989  25.477  10.732  1.00  0.00     0.225 C
HETATM   37  C23 UNL     1      24.444  25.520  11.034  1.00  0.00     0.036 C
HETATM   38  C24 UNL     1      24.816  26.762  11.855  1.00  0.00     0.002 C
HETATM   39  C25 UNL     1      24.127  27.935  11.166  1.00  0.00     0.000 C
HETATM   40  C26 UNL     1      22.653  27.846  11.498  1.00  0.00     0.002 C
HETATM   41  C27 UNL     1      22.257  26.418  11.659  1.00  0.00     0.036 C
ENDBRANCH  35  36
ENDBRANCH  29  31
ENDBRANCH  26  27
ENDBRANCH   8  26
TORSDOF 11
ENDMDL