MODEL 3
REMARK VINA RESULT: -6.355253370      1.399      2.119
REMARK  6 active torsions:
REMARK  status: ('A' for Active; 'I' for Inactive)
REMARK    1  A    between atoms: C1_4  and  N2_5
REMARK    2  A    between atoms: N2_5  and  C2_7
REMARK    3  A    between atoms: C2_7  and  N3_8
REMARK    4  A    between atoms: C3_10  and  C4_11
REMARK    5  A    between atoms: C5_12  and  C6_13
REMARK    6  A    between atoms: C6_13  and  N4_14
ROOT
HETATM    1  N3  UNL     1     -42.924 -18.177  52.411  1.00  0.00    -0.383 N
ATOM      2  H3  UNL     1     -42.073 -18.736  52.464  1.00  0.00     0.160 HD
HETATM    3  C3  UNL     1     -43.765 -18.422  51.481  1.00  0.00     0.084 C
ENDROOT
BRANCH   3   4
HETATM    4  C4  UNL     1     -43.551 -19.472  50.493  1.00  0.00     0.014 C
HETATM    5  C5  UNL     1     -42.365 -19.739  50.033  1.00  0.00    -0.002 C
BRANCH   5   6
HETATM    6  C6  UNL     1     -42.136 -20.806  49.028  1.00  0.00     0.200 C
BRANCH   6   7
HETATM    7  N4  UNL     1     -41.276 -20.277  47.975  1.00  0.00    -0.199 N
HETATM    8  N5  UNL     1     -40.620 -19.146  47.798  1.00  0.00    -0.209 N
HETATM    9  N6  UNL     1     -40.173 -19.590  46.634  1.00  0.00    -0.211 N
ATOM     10  H5  UNL     1     -40.506 -18.286  48.334  1.00  0.00     0.211 HD
HETATM   11  N7  UNL     1     -40.822 -20.713  46.808  1.00  0.00    -0.209 N
ATOM     12  H6  UNL     1     -39.570 -19.213  45.903  1.00  0.00     0.211 HD
ATOM     13  H7  UNL     1     -40.934 -21.571  46.268  1.00  0.00     0.211 HD
ENDBRANCH   6   7
ENDBRANCH   5   6
ENDBRANCH   3   4
BRANCH   1  14
HETATM   14  C2  UNL     1     -43.139 -17.136  53.388  1.00  0.00     0.243 C
BRANCH  14  15
HETATM   15  N2  UNL     1     -42.338 -15.993  53.052  1.00  0.00    -0.370 N
ATOM     16  H2  UNL     1     -42.597 -15.068  53.394  1.00  0.00     0.161 HD
BRANCH  15  17
HETATM   17  C1  UNL     1     -41.191 -16.155  52.249  1.00  0.00     0.170 C
HETATM   18  N1  UNL     1     -40.001 -15.863  52.646  1.00  0.00    -0.396 N
ATOM     19  H12 UNL     1     -39.900 -15.498  53.594  1.00  0.00     0.156 HD
ATOM     20  H11 UNL     1     -39.172 -15.981  52.064  1.00  0.00     0.156 HD
ENDBRANCH  15  17
ENDBRANCH  14  15
ENDBRANCH   1  14
TORSDOF 6
ENDMDL