MODEL 3
REMARK VINA RESULT: -5.655470662      0.845      5.031
REMARK  6 active torsions:
REMARK  status: ('A' for Active; 'I' for Inactive)
REMARK    1  A    between atoms: N2_4  and  C1_6
REMARK    2  A    between atoms: C1_6  and  C2_7
REMARK    3  A    between atoms: N4_9  and  N5_10
REMARK    4  A    between atoms: N5_10  and  C3_11
REMARK    5  A    between atoms: C3_11  and  C4_12
REMARK    6  A    between atoms: C4_12  and  C5_13
ROOT
HETATM    1  C2  UNL     1     -42.917 -18.472  49.386  1.00  0.00     0.223 A
HETATM    2  N3  UNL     1     -42.036 -18.381  50.563  1.00  0.00    -0.122 NA
HETATM    3  N4  UNL     1     -42.527 -19.635  50.021  1.00  0.00    -0.124 NA
ENDROOT
BRANCH   3   4
HETATM    4  N5  UNL     1     -41.528 -20.482  49.590  1.00  0.00    -0.146 NA
BRANCH   4   5
HETATM    5  C3  UNL     1     -41.618 -20.680  48.164  1.00  0.00     0.135 C
BRANCH   5   6
HETATM    6  C4  UNL     1     -40.562 -19.913  47.407  1.00  0.00     0.061 C
BRANCH   6   7
HETATM    7  C5  UNL     1     -40.235 -20.673  46.171  1.00  0.00     0.054 C
HETATM    8  N6  UNL     1     -40.239 -21.946  46.230  1.00  0.00    -0.411 N
ATOM      9  H62 UNL     1     -40.463 -22.415  47.108  1.00  0.00     0.155 HD
ATOM     10  H61 UNL     1     -40.015 -22.468  45.383  1.00  0.00     0.155 HD
ENDBRANCH   6   7
ENDBRANCH   5   6
ENDBRANCH   4   5
ENDBRANCH   3   4
BRANCH   1  11
HETATM   11  C1  UNL     1     -44.297 -17.919  49.663  1.00  0.00     0.179 C
BRANCH  11  12
HETATM   12  N2  UNL     1     -44.355 -16.500  49.456  1.00  0.00    -0.340 N
HETATM   13  N1  UNL     1     -43.335 -15.909  49.053  1.00  0.00    -0.349 N
ATOM     14  H12 UNL     1     -42.481 -16.439  48.876  1.00  0.00     0.176 HD
ATOM     15  H11 UNL     1     -43.375 -14.900  48.906  1.00  0.00     0.176 HD
ATOM     16  H2  UNL     1     -45.215 -15.984  49.637  1.00  0.00     0.179 HD
ENDBRANCH  11  12
ENDBRANCH   1  11
TORSDOF 6
ENDMDL