MODEL 3
REMARK VINA RESULT: -6.472749429      0.679      1.142
REMARK  5 active torsions:
REMARK  status: ('A' for Active; 'I' for Inactive)
REMARK    1  A    between atoms: N2_4  and  C1_6
REMARK    2  A    between atoms: C1_6  and  C2_7
REMARK    3  A    between atoms: N3_8  and  C3_10
REMARK    4  A    between atoms: C3_10  and  C4_11
REMARK    5  A    between atoms: C4_11  and  N5_15
ROOT
HETATM    1  C3  UNL     1     -42.290 -18.975  50.724  1.00  0.00     0.194 C
ENDROOT
BRANCH   1   2
HETATM    2  N3  UNL     1     -41.918 -19.112  49.355  1.00  0.00    -0.394 N
HETATM    3  C2  UNL     1     -41.670 -20.259  48.838  1.00  0.00     0.077 C
ATOM      4  H3  UNL     1     -41.847 -18.277  48.774  1.00  0.00     0.159 HD
BRANCH   3   5
HETATM    5  C1  UNL     1     -41.279 -20.384  47.391  1.00  0.00     0.182 C
BRANCH   5   6
HETATM    6  N2  UNL     1     -40.222 -19.494  47.045  1.00  0.00    -0.338 N
HETATM    7  N1  UNL     1     -39.492 -19.742  46.078  1.00  0.00    -0.349 N
ATOM      8  H12 UNL     1     -39.661 -20.590  45.536  1.00  0.00     0.176 HD
ATOM      9  H11 UNL     1     -38.736 -19.105  45.830  1.00  0.00     0.176 HD
ATOM     10  H2  UNL     1     -40.067 -18.650  47.596  1.00  0.00     0.179 HD
ENDBRANCH   5   6
ENDBRANCH   3   5
ENDBRANCH   1   2
BRANCH   1  11
HETATM   11  C4  UNL     1     -42.881 -17.665  51.039  1.00  0.00     0.094 C
HETATM   12  N4  UNL     1     -43.814 -17.191  50.301  1.00  0.00    -0.387 N
ATOM     13  H42 UNL     1     -44.140 -17.729  49.499  1.00  0.00     0.157 HD
ATOM     14  H41 UNL     1     -44.224 -16.283  50.520  1.00  0.00     0.157 HD
BRANCH  11  15
HETATM   15  N5  UNL     1     -42.430 -16.921  52.148  1.00  0.00    -0.322 N
HETATM   16  C5  UNL     1     -42.923 -16.969  53.320  1.00  0.00     0.202 C
HETATM   17  N6  UNL     1     -44.023 -17.815  53.632  1.00  0.00    -0.066 NA
HETATM   18  N7  UNL     1     -42.376 -16.167  54.346  1.00  0.00    -0.066 NA
ATOM     19  H5  UNL     1     -41.642 -16.291  52.000  1.00  0.00     0.169 HD
ENDBRANCH  11  15
ENDBRANCH   1  11
TORSDOF 5
ENDMDL