MODEL 4
REMARK VINA RESULT: -5.959758876      2.498      3.067
REMARK  8 active torsions:
REMARK  status: ('A' for Active; 'I' for Inactive)
REMARK    1  A    between atoms: N1_1  and  C1_4
REMARK    2  A    between atoms: C1_4  and  N2_5
REMARK    3  A    between atoms: N2_5  and  N3_7
REMARK    4  A    between atoms: N3_7  and  O1_8
REMARK    5  A    between atoms: N3_7  and  N4_10
REMARK    6  A    between atoms: N4_10  and  C2_11
REMARK    7  A    between atoms: C2_11  and  C3_12
REMARK    8  A    between atoms: C3_12  and  N5_13
ROOT
HETATM    1  N3  UNL     1     -41.453 -19.748  48.288  1.00  0.00    -0.010 NA
ENDROOT
BRANCH   1   2
HETATM    2  N2  UNL     1     -40.478 -19.668  47.315  1.00  0.00    -0.277 N
ATOM      3  H2  UNL     1     -39.690 -19.020  47.336  1.00  0.00     0.185 HD
BRANCH   2   4
HETATM    4  C1  UNL     1     -40.717 -20.605  46.285  1.00  0.00     0.189 C
BRANCH   4   5
HETATM    5  N1  UNL     1     -40.182 -21.758  46.205  1.00  0.00    -0.394 N
ATOM      6  H12 UNL     1     -39.314 -21.818  45.673  1.00  0.00     0.156 HD
ATOM      7  H11 UNL     1     -40.555 -22.607  46.628  1.00  0.00     0.156 HD
ENDBRANCH   4   5
ENDBRANCH   2   4
ENDBRANCH   1   2
BRANCH   1   8
HETATM    8  O1  UNL     1     -41.783 -21.060  48.440  1.00  0.00    -0.279 OA
ATOM      9  H1  UNL     1     -42.475 -21.112  49.088  1.00  0.00     0.240 HD
ENDBRANCH   1   8
BRANCH   1  10
HETATM   10  N4  UNL     1     -41.045 -19.253  49.515  1.00  0.00    -0.117 NA
BRANCH  10  11
HETATM   11  C2  UNL     1     -42.135 -19.252  50.452  1.00  0.00     0.154 C
BRANCH  11  12
HETATM   12  C3  UNL     1     -42.592 -17.820  50.711  1.00  0.00     0.165 C
BRANCH  12  13
HETATM   13  N5  UNL     1     -43.482 -17.394  49.642  1.00  0.00    -0.269 N
HETATM   14  C4  UNL     1     -44.774 -17.646  49.368  1.00  0.00     0.213 A
HETATM   15  N6  UNL     1     -44.652 -16.862  48.279  1.00  0.00    -0.279 N
HETATM   16  N7  UNL     1     -43.376 -16.627  48.569  1.00  0.00    -0.018 NA
ATOM     17  H6  UNL     1     -45.282 -16.568  47.533  1.00  0.00     0.185 HD
ENDBRANCH  12  13
ENDBRANCH  11  12
ENDBRANCH  10  11
ENDBRANCH   1  10
TORSDOF 8
ENDMDL