MODEL 5
REMARK VINA RESULT: -6.400684052      2.098      2.759
REMARK  6 active torsions:
REMARK  status: ('A' for Active; 'I' for Inactive)
REMARK    1  A    between atoms: C1_4  and  N2_5
REMARK    2  A    between atoms: N2_5  and  C2_7
REMARK    3  A    between atoms: C2_7  and  C3_8
REMARK    4  A    between atoms: C3_8  and  N3_9
REMARK    5  A    between atoms: C4_11  and  N4_12
REMARK    6  A    between atoms: N4_12  and  N5_14
ROOT
HETATM    1  N3  UNL     1     -42.839 -17.938  48.669  1.00  0.00    -0.383 N
ATOM      2  H3  UNL     1     -42.697 -17.275  47.906  1.00  0.00     0.160 HD
HETATM    3  C4  UNL     1     -41.984 -18.830  48.894  1.00  0.00     0.196 C
ENDROOT
BRANCH   1   4
HETATM    4  C3  UNL     1     -44.006 -17.850  49.477  1.00  0.00     0.140 C
BRANCH   4   5
HETATM    5  C2  UNL     1     -43.764 -18.229  50.915  1.00  0.00     0.140 C
BRANCH   5   6
HETATM    6  N2  UNL     1     -43.398 -17.135  51.747  1.00  0.00    -0.385 N
ATOM      7  H2  UNL     1     -44.073 -16.395  51.942  1.00  0.00     0.160 HD
BRANCH   6   8
HETATM    8  C1  UNL     1     -42.104 -17.073  52.301  1.00  0.00     0.168 C
HETATM    9  N1  UNL     1     -41.666 -15.984  52.797  1.00  0.00    -0.396 N
ATOM     10  H12 UNL     1     -42.269 -15.161  52.786  1.00  0.00     0.156 HD
ATOM     11  H11 UNL     1     -40.730 -15.940  53.198  1.00  0.00     0.156 HD
ENDBRANCH   6   8
ENDBRANCH   5   6
ENDBRANCH   4   5
ENDBRANCH   1   4
BRANCH   3  12
HETATM   12  N4  UNL     1     -40.818 -18.929  48.097  1.00  0.00    -0.260 N
ATOM     13  H4  UNL     1     -40.041 -18.270  48.137  1.00  0.00     0.191 HD
BRANCH  12  14
HETATM   14  N5  UNL     1     -40.858 -20.044  47.243  1.00  0.00    -0.085 N
HETATM   15  N6  UNL     1     -40.523 -20.353  46.008  1.00  0.00    -0.149 N
HETATM   16  O1  UNL     1     -40.952 -21.565  46.192  1.00  0.00    -0.121 OA
ATOM     17  H6  UNL     1     -40.100 -19.849  45.228  1.00  0.00     0.221 HD
HETATM   18  N7  UNL     1     -41.291 -21.296  47.404  1.00  0.00     0.090 NA
ENDBRANCH  12  14
ENDBRANCH   3  12
TORSDOF 6
ENDMDL