MODEL 2
REMARK VINA RESULT: -5.661972803      0.825      3.247
REMARK  7 active torsions:
REMARK  status: ('A' for Active; 'I' for Inactive)
REMARK    1  A    between atoms: O1_2  and  C2_3
REMARK    2  A    between atoms: C2_3  and  C3_4
REMARK    3  A    between atoms: C3_4  and  N1_5
REMARK    4  A    between atoms: N1_5  and  N2_6
REMARK    5  A    between atoms: N1_5  and  N4_12
REMARK    6  A    between atoms: N2_6  and  C4_8
REMARK    7  A    between atoms: C4_8  and  N3_9
ROOT
HETATM    1  N1  UNL     1     -42.093 -18.463  49.557  1.00  0.00    -0.114 NA
ENDROOT
BRANCH   1   2
HETATM    2  C3  UNL     1     -41.981 -19.196  50.815  1.00  0.00     0.167 C
BRANCH   2   3
HETATM    3  C2  UNL     1     -40.892 -18.559  51.678  1.00  0.00     0.185 C
BRANCH   3   4
HETATM    4  O1  UNL     1     -40.252 -19.491  52.478  1.00  0.00    -0.395 OA
HETATM    5  C1  UNL     1     -41.037 -20.581  52.796  1.00  0.00     0.201 C
ENDBRANCH   3   4
ENDBRANCH   2   3
ENDBRANCH   1   2
BRANCH   1   6
HETATM    6  N2  UNL     1     -43.449 -18.274  49.337  1.00  0.00    -0.296 N
ATOM      7  H2  UNL     1     -44.145 -18.971  49.601  1.00  0.00     0.183 HD
BRANCH   6   8
HETATM    8  C4  UNL     1     -43.796 -17.071  48.733  1.00  0.00     0.187 C
BRANCH   8   9
HETATM    9  N3  UNL     1     -43.242 -15.936  48.976  1.00  0.00    -0.395 N
ATOM     10  H32 UNL     1     -42.827 -15.822  49.900  1.00  0.00     0.156 HD
ATOM     11  H31 UNL     1     -43.192 -15.156  48.320  1.00  0.00     0.156 HD
ENDBRANCH   8   9
ENDBRANCH   6   8
ENDBRANCH   1   6
BRANCH   1  12
HETATM   12  N4  UNL     1     -41.508 -19.283  48.572  1.00  0.00    -0.178 N
HETATM   13  C5  UNL     1     -41.632 -20.599  48.236  1.00  0.00     0.242 A
HETATM   14  N5  UNL     1     -40.738 -20.450  47.242  1.00  0.00    -0.277 N
HETATM   15  N6  UNL     1     -40.637 -19.178  47.587  1.00  0.00    -0.222 N
ATOM     16  H5  UNL     1     -40.322 -21.053  46.533  1.00  0.00     0.189 HD
ATOM     17  H6  UNL     1     -40.086 -18.400  47.224  1.00  0.00     0.210 HD
ENDBRANCH   1  12
TORSDOF 7
ENDMDL