MODEL 2
REMARK VINA RESULT: -6.596636218      3.040      6.078
REMARK  6 active torsions:
REMARK  status: ('A' for Active; 'I' for Inactive)
REMARK    1  A    between atoms: C1_4  and  N2_5
REMARK    2  A    between atoms: N2_5  and  C2_7
REMARK    3  A    between atoms: C2_7  and  N3_8
REMARK    4  A    between atoms: C3_10  and  C4_11
REMARK    5  A    between atoms: C4_11  and  C5_12
REMARK    6  A    between atoms: C5_12  and  N4_13
ROOT
HETATM    1  N3  UNL     1     -43.634 -18.390  49.349  1.00  0.00    -0.386 N
ATOM      2  H3  UNL     1     -43.800 -19.197  49.950  1.00  0.00     0.160 HD
HETATM    3  C3  UNL     1     -42.502 -18.283  48.794  1.00  0.00     0.059 C
ENDROOT
BRANCH   3   4
HETATM    4  C4  UNL     1     -41.452 -19.299  49.014  1.00  0.00     0.067 C
BRANCH   4   5
HETATM    5  C5  UNL     1     -41.706 -20.561  48.229  1.00  0.00     0.178 C
BRANCH   5   6
HETATM    6  N4  UNL     1     -40.786 -20.655  47.112  1.00  0.00    -0.203 N
HETATM    7  N5  UNL     1     -40.346 -21.593  46.277  1.00  0.00    -0.209 N
HETATM    8  N6  UNL     1     -39.584 -20.711  45.677  1.00  0.00    -0.211 N
ATOM      9  H5  UNL     1     -40.527 -22.590  46.155  1.00  0.00     0.211 HD
HETATM   10  N7  UNL     1     -40.019 -19.778  46.506  1.00  0.00    -0.209 N
ATOM     11  H6  UNL     1     -38.927 -20.735  44.896  1.00  0.00     0.211 HD
ATOM     12  H7  UNL     1     -39.835 -18.782  46.625  1.00  0.00     0.211 HD
ENDBRANCH   5   6
ENDBRANCH   4   5
ENDBRANCH   3   4
BRANCH   1  13
HETATM   13  C2  UNL     1     -44.698 -17.445  49.183  1.00  0.00     0.243 C
BRANCH  13  14
HETATM   14  N2  UNL     1     -45.936 -17.917  49.740  1.00  0.00    -0.370 N
ATOM     15  H2  UNL     1     -46.815 -17.429  49.567  1.00  0.00     0.161 HD
BRANCH  14  16
HETATM   16  C1  UNL     1     -45.888 -19.093  50.545  1.00  0.00     0.170 C
HETATM   17  N1  UNL     1     -46.943 -19.681  50.972  1.00  0.00    -0.396 N
ATOM     18  H12 UNL     1     -47.846 -19.278  50.717  1.00  0.00     0.156 HD
ATOM     19  H11 UNL     1     -46.909 -20.522  51.547  1.00  0.00     0.156 HD
ENDBRANCH  14  16
ENDBRANCH  13  14
ENDBRANCH   1  13
TORSDOF 6
ENDMDL