MODEL 2
REMARK VINA RESULT: -6.926467114      1.412      1.556
REMARK  4 active torsions:
REMARK  status: ('A' for Active; 'I' for Inactive)
REMARK    1  A    between atoms: N2_4  and  N3_6
REMARK    2  A    between atoms: N3_6  and  C1_8
REMARK    3  A    between atoms: C1_8  and  C2_9
REMARK       I    between atoms: C2_9  and  N4_11
REMARK       I    between atoms: N4_11  and  C3_13
REMARK       I    between atoms: C3_13  and  N5_14
REMARK       I    between atoms: C3_13  and  N6_17
REMARK    4  A    between atoms: N6_17  and  C4_18
ROOT
HETATM    1  C2  UNL     1     -41.975 -19.445  50.084  1.00  0.00     0.244 C
HETATM    2  O1  UNL     1     -40.945 -18.834  50.325  1.00  0.00    -0.271 OA
HETATM    3  N4  UNL     1     -43.215 -19.294  50.699  1.00  0.00    -0.286 N
ATOM      4  H4  UNL     1     -43.932 -19.913  50.322  1.00  0.00     0.172 HD
HETATM    5  C3  UNL     1     -43.680 -18.470  51.725  1.00  0.00     0.258 C
HETATM    6  N5  UNL     1     -45.024 -18.665  51.955  1.00  0.00    -0.359 N
ATOM      7  H51 UNL     1     -45.363 -18.064  52.705  1.00  0.00     0.160 HD
ATOM      8  H52 UNL     1     -45.469 -19.366  51.363  1.00  0.00     0.160 HD
HETATM    9  N6  UNL     1     -43.092 -17.547  52.506  1.00  0.00    -0.344 NA
ENDROOT
BRANCH   1  10
HETATM   10  C1  UNL     1     -41.879 -20.486  48.980  1.00  0.00     0.243 C
BRANCH  10  11
HETATM   11  N3  UNL     1     -41.639 -19.896  47.698  1.00  0.00    -0.314 N
ATOM     12  H3  UNL     1     -42.393 -19.847  47.014  1.00  0.00     0.182 HD
BRANCH  11  13
HETATM   13  N2  UNL     1     -40.384 -19.391  47.383  1.00  0.00    -0.253 N
HETATM   14  N1  UNL     1     -39.775 -19.684  46.318  1.00  0.00    -0.331 N
ATOM     15  H12 UNL     1     -40.238 -20.322  45.671  1.00  0.00     0.178 HD
ATOM     16  H11 UNL     1     -38.853 -19.312  46.086  1.00  0.00     0.178 HD
ATOM     17  H2  UNL     1     -39.935 -18.754  48.041  1.00  0.00     0.207 HD
ENDBRANCH  11  13
ENDBRANCH  10  11
ENDBRANCH   1  10
BRANCH   9  18
HETATM   18  C4  UNL     1     -42.501 -16.618  53.291  1.00  0.00     0.445 C
HETATM   19  O2  UNL     1     -42.495 -16.381  54.519  1.00  0.00    -0.268 OA
ENDBRANCH   9  18
TORSDOF 4
ENDMDL