MODEL 4
REMARK VINA RESULT: -6.074061474      1.361      1.917
REMARK  7 active torsions:
REMARK  status: ('A' for Active; 'I' for Inactive)
REMARK    1  A    between atoms: N1_1  and  C1_4
REMARK    2  A    between atoms: C1_4  and  C2_5
REMARK    3  A    between atoms: C1_4  and  N5_12
REMARK    4  A    between atoms: C2_5  and  N2_6
REMARK    5  A    between atoms: N5_12  and  C4_14
REMARK    6  A    between atoms: C4_14  and  N6_15
REMARK    7  A    between atoms: N6_15  and  O1_16
ROOT
HETATM    1  C1  UNL     1     -42.292 -18.585  48.734  1.00  0.00     0.091 C
ENDROOT
BRANCH   1   2
HETATM    2  N1  UNL     1     -42.851 -17.509  48.321  1.00  0.00    -0.388 N
ATOM      3  H12 UNL     1     -43.797 -17.295  48.638  1.00  0.00     0.157 HD
ATOM      4  H11 UNL     1     -42.359 -16.878  47.688  1.00  0.00     0.157 HD
ENDBRANCH   1   2
BRANCH   1   5
HETATM    5  C2  UNL     1     -42.614 -19.132  50.044  1.00  0.00     0.226 C
BRANCH   5   6
HETATM    6  N2  UNL     1     -42.787 -18.095  51.045  1.00  0.00    -0.265 N
HETATM    7  C3  UNL     1     -41.922 -17.424  51.809  1.00  0.00     0.220 A
HETATM    8  N3  UNL     1     -42.946 -16.753  52.348  1.00  0.00    -0.280 N
HETATM    9  N4  UNL     1     -43.782 -17.426  51.588  1.00  0.00    -0.238 N
ATOM     10  H3  UNL     1     -43.039 -16.024  53.055  1.00  0.00     0.189 HD
ATOM     11  H4  UNL     1     -44.795 -17.428  51.467  1.00  0.00     0.208 HD
ENDBRANCH   5   6
ENDBRANCH   1   5
BRANCH   1  12
HETATM   12  N5  UNL     1     -41.356 -19.231  47.894  1.00  0.00    -0.363 N
ATOM     13  H5  UNL     1     -40.673 -18.706  47.350  1.00  0.00     0.162 HD
BRANCH  12  14
HETATM   14  C4  UNL     1     -41.418 -20.692  47.845  1.00  0.00     0.264 C
BRANCH  14  15
HETATM   15  N6  UNL     1     -41.010 -21.171  46.540  1.00  0.00    -0.084 NA
BRANCH  15  16
HETATM   16  O1  UNL     1     -41.354 -20.190  45.651  1.00  0.00    -0.295 OA
ATOM     17  H1  UNL     1     -41.275 -20.578  44.788  1.00  0.00     0.238 HD
ENDBRANCH  15  16
ENDBRANCH  14  15
ENDBRANCH  12  14
ENDBRANCH   1  12
TORSDOF 7
ENDMDL