MODEL 3
REMARK VINA RESULT: -5.816899659      1.826      2.422
REMARK  5 active torsions:
REMARK  status: ('A' for Active; 'I' for Inactive)
REMARK    1  A    between atoms: C1_2  and  C2_3
REMARK    2  A    between atoms: C2_3  and  O2_4
REMARK    3  A    between atoms: C2_3  and  O3_6
REMARK    4  A    between atoms: O3_6  and  C3_7
REMARK    5  A    between atoms: C7_12  and  O5_13
ROOT
HETATM    1  C3  UNL     1     -42.611  18.406  39.920  1.00  0.00     0.105 A
HETATM    2  C4  UNL     1     -42.064  18.652  38.754  1.00  0.00     0.039 A
HETATM    3  C5  UNL     1     -42.161  17.764  37.571  1.00  0.00     0.205 A
HETATM    4  O4  UNL     1     -42.908  16.635  37.854  1.00  0.00    -0.356 OA
HETATM    5  C6  UNL     1     -43.484  16.369  39.068  1.00  0.00     0.174 A
HETATM    6  C7  UNL     1     -43.375  17.187  40.103  1.00  0.00     0.121 A
ENDROOT
BRANCH   1   7
HETATM    7  O3  UNL     1     -42.484  19.256  40.958  1.00  0.00    -0.311 OA
BRANCH   7   8
HETATM    8  C2  UNL     1     -41.531  20.308  41.065  1.00  0.00     0.326 C
BRANCH   8   9
HETATM    9  C1  UNL     1     -40.951  20.478  42.370  1.00  0.00     0.291 C
HETATM   10  O1  UNL     1     -41.325  21.546  42.441  1.00  0.00    -0.302 OA
ENDBRANCH   8   9
BRANCH   8  11
HETATM   11  O2  UNL     1     -42.210  21.495  40.681  1.00  0.00    -0.365 OA
ATOM     12  H2  UNL     1     -41.804  22.247  41.096  1.00  0.00     0.213 HD
ENDBRANCH   8  11
ENDBRANCH   7   8
ENDBRANCH   1   7
BRANCH   6  13
HETATM   13  O5  UNL     1     -43.976  16.883  41.333  1.00  0.00    -0.356 OA
ATOM     14  H5  UNL     1     -44.093  15.983  41.615  1.00  0.00     0.218 HD
ENDBRANCH   6  13
TORSDOF 5
ENDMDL