MODEL 5
REMARK VINA RESULT: -5.759304208      2.135      4.337
REMARK  6 active torsions:
REMARK  status: ('A' for Active; 'I' for Inactive)
REMARK    1  A    between atoms: C2_2  and  C3_3
REMARK    2  A    between atoms: C3_3  and  O1_4
REMARK    3  A    between atoms: C5_8  and  C6_9
REMARK    4  A    between atoms: C6_9  and  O3_10
REMARK    5  A    between atoms: C6_9  and  C7_12
REMARK    6  A    between atoms: C7_12  and  O4_13
ROOT
HETATM    1  C1  UNL     1     -43.006  20.222  36.915  1.00  0.00     0.051 C
HETATM    2  C2  UNL     1     -42.476  19.172  37.880  1.00  0.00     0.103 C
HETATM    3  C4  UNL     1     -42.295  19.826  39.208  1.00  0.00     0.211 C
HETATM    4  O2  UNL     1     -43.335  19.229  39.961  1.00  0.00    -0.355 OA
HETATM    5  C5  UNL     1     -43.300  17.942  39.466  1.00  0.00     0.291 C
HETATM    6  O5  UNL     1     -43.384  18.151  38.094  1.00  0.00    -0.344 OA
ENDROOT
BRANCH   5   7
HETATM    7  C6  UNL     1     -44.388  17.058  39.998  1.00  0.00     0.196 C
BRANCH   7   8
HETATM    8  O3  UNL     1     -44.033  16.595  41.240  1.00  0.00    -0.389 OA
ATOM      9  H3  UNL     1     -43.898  15.655  41.199  1.00  0.00     0.210 HD
ENDBRANCH   7   8
BRANCH   7  10
HETATM   10  C7  UNL     1     -45.728  17.734  40.050  1.00  0.00     0.200 C
BRANCH  10  11
HETATM   11  O4  UNL     1     -46.039  18.432  38.910  1.00  0.00    -0.398 OA
ATOM     12  H4  UNL     1     -46.880  18.874  38.950  1.00  0.00     0.209 HD
ENDBRANCH  10  11
ENDBRANCH   7  10
ENDBRANCH   5   7
BRANCH   2  13
HETATM   13  C3  UNL     1     -41.203  18.637  37.285  1.00  0.00     0.204 C
BRANCH  13  14
HETATM   14  O1  UNL     1     -40.452  19.577  36.627  1.00  0.00    -0.398 OA
ATOM     15  H1  UNL     1     -40.814  19.851  35.793  1.00  0.00     0.209 HD
ENDBRANCH  13  14
ENDBRANCH   2  13
TORSDOF 6
ENDMDL