MODEL 1
REMARK VINA RESULT: -5.117309291      0.000      0.000
REMARK  4 active torsions:
REMARK  status: ('A' for Active; 'I' for Inactive)
REMARK    1  A    between atoms: O1_2  and  C2_3
REMARK    2  A    between atoms: C6_8  and  O3_9
REMARK    3  A    between atoms: C7_11  and  O4_12
REMARK    4  A    between atoms: C7_11  and  O5_14
ROOT
HETATM    1  C2  UNL     1     -42.945  18.219  38.169  1.00  0.00     0.136 C
HETATM    2  C3  UNL     1     -43.745  19.245  38.985  1.00  0.00     0.054 C
HETATM    3  C4  UNL     1     -41.516  18.572  38.281  1.00  0.00     0.211 C
HETATM    4  O2  UNL     1     -40.932  18.913  37.041  1.00  0.00    -0.385 OA
HETATM    5  C5  UNL     1     -41.550  20.083  36.544  1.00  0.00     0.205 C
HETATM    6  C6  UNL     1     -42.931  19.676  36.119  1.00  0.00     0.207 C
HETATM    7  C7  UNL     1     -43.393  18.410  36.731  1.00  0.00     0.222 C
ENDROOT
BRANCH   7   8
HETATM    8  O4  UNL     1     -42.888  17.320  36.003  1.00  0.00    -0.361 OA
ATOM      9  H4  UNL     1     -42.892  17.577  35.089  1.00  0.00     0.213 HD
ENDBRANCH   7   8
BRANCH   7  10
HETATM   10  O5  UNL     1     -44.785  18.296  36.691  1.00  0.00    -0.361 OA
ATOM     11  H5  UNL     1     -45.093  18.728  35.904  1.00  0.00     0.213 HD
ENDBRANCH   7  10
BRANCH   1  12
HETATM   12  O1  UNL     1     -43.368  17.011  38.553  1.00  0.00    -0.378 OA
HETATM   13  C1  UNL     1     -43.648  16.693  39.813  1.00  0.00     0.202 C
ENDBRANCH   1  12
BRANCH   6  14
HETATM   14  O3  UNL     1     -43.804  20.748  36.284  1.00  0.00    -0.388 OA
ATOM     15  H3  UNL     1     -44.586  20.454  36.737  1.00  0.00     0.210 HD
ENDBRANCH   6  14
TORSDOF 4
ENDMDL