MODEL 3
REMARK VINA RESULT: -5.809206818      1.672      2.522
REMARK  6 active torsions:
REMARK  status: ('A' for Active; 'I' for Inactive)
REMARK    1  A    between atoms: C2_2  and  O1_3
REMARK    2  A    between atoms: C2_2  and  C3_5
REMARK    3  A    between atoms: C3_5  and  O2_6
REMARK    4  A    between atoms: C3_5  and  O3_8
REMARK    5  A    between atoms: O3_8  and  C4_9
REMARK    6  A    between atoms: C7_13  and  O5_14
ROOT
HETATM    1  O3  UNL     1     -41.563  20.808  40.409  1.00  0.00    -0.327 OA
ENDROOT
BRANCH   1   2
HETATM    2  C3  UNL     1     -41.446  19.941  41.471  1.00  0.00     0.288 C
BRANCH   2   3
HETATM    3  C2  UNL     1     -40.792  20.557  42.679  1.00  0.00     0.169 C
HETATM    4  C1  UNL     1     -40.461  21.995  42.509  1.00  0.00     0.044 C
BRANCH   3   5
HETATM    5  O1  UNL     1     -39.663  19.815  43.006  1.00  0.00    -0.391 OA
ATOM      6  H1  UNL     1     -39.900  18.989  43.411  1.00  0.00     0.210 HD
ENDBRANCH   3   5
ENDBRANCH   2   3
BRANCH   2   7
HETATM    7  O2  UNL     1     -40.623  18.881  41.023  1.00  0.00    -0.369 OA
ATOM      8  H2  UNL     1     -40.880  18.667  40.133  1.00  0.00     0.212 HD
ENDBRANCH   2   7
ENDBRANCH   1   2
BRANCH   1   9
HETATM    9  C4  UNL     1     -42.754  20.552  39.751  1.00  0.00     0.291 C
HETATM   10  O4  UNL     1     -43.297  21.766  39.373  1.00  0.00    -0.358 OA
HETATM   11  C5  UNL     1     -43.933  21.614  38.176  1.00  0.00     0.173 C
HETATM   12  C6  UNL     1     -43.546  20.320  37.552  1.00  0.00     0.063 C
HETATM   13  C7  UNL     1     -42.586  19.718  38.519  1.00  0.00     0.175 C
BRANCH  13  14
HETATM   14  O5  UNL     1     -41.286  19.722  38.032  1.00  0.00    -0.391 OA
ATOM     15  H5  UNL     1     -41.029  18.891  37.649  1.00  0.00     0.210 HD
ENDBRANCH  13  14
ENDBRANCH   1   9
TORSDOF 6
ENDMDL