MODEL 3
REMARK VINA RESULT: -5.493108006      1.681      4.015
REMARK  5 active torsions:
REMARK  status: ('A' for Active; 'I' for Inactive)
REMARK    1  A    between atoms: C2_2  and  C3_3
REMARK    2  A    between atoms: C3_3  and  O1_4
REMARK    3  A    between atoms: C6_10  and  O4_11
REMARK    4  A    between atoms: C6_10  and  C7_13
REMARK    5  A    between atoms: C7_13  and  O5_14
ROOT
HETATM    1  C1  UNL     1     -43.682  20.386  37.245  1.00  0.00     0.052 C
HETATM    2  C2  UNL     1     -42.228  20.109  37.475  1.00  0.00     0.116 C
HETATM    3  O2  UNL     1     -41.780  20.989  38.462  1.00  0.00    -0.351 OA
HETATM    4  C4  UNL     1     -42.516  20.849  39.635  1.00  0.00     0.339 C
HETATM    5  O3  UNL     1     -42.785  19.525  39.950  1.00  0.00    -0.364 OA
HETATM    6  C5  UNL     1     -41.867  18.641  39.386  1.00  0.00     0.213 C
HETATM    7  C6  UNL     1     -41.935  18.701  37.876  1.00  0.00     0.133 C
ENDROOT
BRANCH   7   8
HETATM    8  O4  UNL     1     -40.677  18.320  37.401  1.00  0.00    -0.382 OA
ATOM      9  H4  UNL     1     -40.624  18.468  36.464  1.00  0.00     0.210 HD
ENDBRANCH   7   8
BRANCH   7  10
HETATM   10  C7  UNL     1     -42.970  17.736  37.331  1.00  0.00     0.207 C
BRANCH  10  11
HETATM   11  O5  UNL     1     -43.518  16.985  38.358  1.00  0.00    -0.398 OA
ATOM     12  H5  UNL     1     -43.014  16.191  38.493  1.00  0.00     0.209 HD
ENDBRANCH  10  11
ENDBRANCH   7  10
BRANCH   2  13
HETATM   13  C3  UNL     1     -41.479  20.437  36.201  1.00  0.00     0.205 C
BRANCH  13  14
HETATM   14  O1  UNL     1     -40.267  21.071  36.466  1.00  0.00    -0.398 OA
ATOM     15  H1  UNL     1     -39.549  20.452  36.504  1.00  0.00     0.209 HD
ENDBRANCH  13  14
ENDBRANCH   2  13
TORSDOF 5
ENDMDL