MODEL 4
REMARK VINA RESULT: -5.238070224      2.024      3.402
REMARK  5 active torsions:
REMARK  status: ('A' for Active; 'I' for Inactive)
REMARK    1  A    between atoms: C2_2  and  O1_3
REMARK    2  A    between atoms: C2_2  and  C3_5
REMARK    3  A    between atoms: C2_2  and  C4_8
REMARK    4  A    between atoms: C3_5  and  O2_6
REMARK    5  A    between atoms: C4_8  and  O3_9
ROOT
HETATM    1  C4  UNL     1     -43.134  18.080  38.481  1.00  0.00     0.217 C
HETATM    2  C5  UNL     1     -44.556  18.575  38.436  1.00  0.00     0.239 C
HETATM    3  O4  UNL     1     -45.353  18.115  39.435  1.00  0.00    -0.384 OA
HETATM    4  C6  UNL     1     -44.729  17.431  40.449  1.00  0.00     0.194 C
HETATM    5  C7  UNL     1     -43.631  16.527  40.020  1.00  0.00     0.197 C
HETATM    6  O5  UNL     1     -43.184  16.710  38.737  1.00  0.00    -0.349 OA
ENDROOT
BRANCH   1   7
HETATM    7  C2  UNL     1     -42.420  18.278  37.186  1.00  0.00     0.133 C
HETATM    8  C1  UNL     1     -43.406  18.158  36.029  1.00  0.00     0.054 C
BRANCH   7   9
HETATM    9  O1  UNL     1     -41.460  17.312  37.006  1.00  0.00    -0.382 OA
ATOM     10  H1  UNL     1     -41.714  16.798  36.248  1.00  0.00     0.210 HD
ENDBRANCH   7   9
BRANCH   7  11
HETATM   11  C3  UNL     1     -41.759  19.632  37.073  1.00  0.00     0.207 C
BRANCH  11  12
HETATM   12  O2  UNL     1     -40.461  19.550  36.609  1.00  0.00    -0.398 OA
ATOM     13  H2  UNL     1     -39.828  19.862  37.245  1.00  0.00     0.209 HD
ENDBRANCH  11  12
ENDBRANCH   7  11
ENDBRANCH   1   7
BRANCH   1  14
HETATM   14  O3  UNL     1     -42.407  18.659  39.515  1.00  0.00    -0.361 OA
ATOM     15  H3  UNL     1     -41.958  17.986  40.011  1.00  0.00     0.213 HD
ENDBRANCH   1  14
TORSDOF 5
ENDMDL