MODEL 5
REMARK VINA RESULT: -6.162091814      2.483      3.184
REMARK  14 active torsions:
REMARK  status: ('A' for Active; 'I' for Inactive)
REMARK    1  A    between atoms: C3_4  and  O2_5
REMARK    2  A    between atoms: O2_5  and  C4_6
REMARK    3  A    between atoms: C5_8  and  C6_9
REMARK    4  A    between atoms: C5_8  and  O5_12
REMARK    5  A    between atoms: C6_9  and  O4_10
REMARK    6  A    between atoms: O5_12  and  C7_13
REMARK    7  A    between atoms: C8_15  and  C9_16
REMARK    8  A    between atoms: C9_16  and  O7_17
REMARK    9  A    between atoms: C10_19  and  N1_20
REMARK   10  A    between atoms: C12_25  and  N2_26
REMARK   11  A    between atoms: C13_30  and  N3_31
REMARK   12  A    between atoms: C15_36  and  N4_37
REMARK   13  A    between atoms: C16_42  and  O9_43
REMARK   14  A    between atoms: C17_45  and  O10_46
ROOT
HETATM    1  C4  UNL     1      23.734   1.796   1.897  1.00  0.00     0.299 C
HETATM    2  O3  UNL     1      23.550   0.803   0.946  1.00  0.00    -0.318 OA
HETATM    3  C5  UNL     1      22.521  -0.072   1.296  1.00  0.00     0.219 C
HETATM    4  C13 UNL     1      21.489   0.629   2.177  1.00  0.00     0.250 C
HETATM    5  C14 UNL     1      21.317   2.076   1.808  1.00  0.00     0.076 C
HETATM    6  C15 UNL     1      22.632   2.815   1.704  1.00  0.00     0.240 C
ENDROOT
BRANCH   3   7
HETATM    7  C6  UNL     1      21.906  -0.556   0.018  1.00  0.00     0.235 C
BRANCH   7   8
HETATM    8  O4  UNL     1      22.544   0.024  -1.108  1.00  0.00    -0.395 OA
ATOM      9  H4  UNL     1      22.040  -0.123  -1.900  1.00  0.00     0.209 HD
ENDBRANCH   7   8
ENDBRANCH   3   7
BRANCH   3  10
HETATM   10  O5  UNL     1      23.095  -1.052   2.082  1.00  0.00    -0.319 OA
BRANCH  10  11
HETATM   11  C7  UNL     1      22.895  -2.346   1.712  1.00  0.00     0.294 C
HETATM   12  O6  UNL     1      23.981  -2.839   0.940  1.00  0.00    -0.350 OA
HETATM   13  C8  UNL     1      23.515  -4.019   0.364  1.00  0.00     0.178 C
HETATM   14  C10 UNL     1      23.575  -5.089   1.407  1.00  0.00     0.216 C
HETATM   15  C11 UNL     1      22.734  -4.710   2.578  1.00  0.00     0.073 C
HETATM   16  C12 UNL     1      22.788  -3.236   2.915  1.00  0.00     0.240 C
BRANCH  13  17
HETATM   17  C9  UNL     1      24.261  -4.396  -0.895  1.00  0.00     0.198 C
BRANCH  17  18
HETATM   18  O7  UNL     1      23.345  -4.868  -1.830  1.00  0.00    -0.398 OA
ATOM     19  H7  UNL     1      23.532  -5.783  -2.003  1.00  0.00     0.209 HD
ENDBRANCH  17  18
ENDBRANCH  13  17
BRANCH  14  20
HETATM   20  N1  UNL     1      23.059  -6.336   0.874  1.00  0.00    -0.072 N
ATOM     21  H13 UNL     1      22.057  -6.286   0.687  1.00  0.00     0.274 HD
ATOM     22  H12 UNL     1      23.382  -6.505  -0.079  1.00  0.00     0.274 HD
ATOM     23  H11 UNL     1      23.292  -7.108   1.498  1.00  0.00     0.274 HD
ENDBRANCH  14  20
BRANCH  16  24
HETATM   24  N2  UNL     1      21.557  -2.930   3.605  1.00  0.00    -0.070 N
ATOM     25  H23 UNL     1      21.661  -2.953   4.619  1.00  0.00     0.274 HD
ATOM     26  H22 UNL     1      21.291  -1.950   3.514  1.00  0.00     0.274 HD
ATOM     27  H21 UNL     1      20.832  -3.565   3.271  1.00  0.00     0.274 HD
ENDBRANCH  16  24
ENDBRANCH  10  11
ENDBRANCH   3  10
BRANCH   4  28
HETATM   28  N3  UNL     1      20.215  -0.035   2.041  1.00  0.00    -0.070 N
ATOM     29  H33 UNL     1      19.441   0.546   2.362  1.00  0.00     0.274 HD
ATOM     30  H32 UNL     1      19.930  -0.131   1.067  1.00  0.00     0.274 HD
ATOM     31  H31 UNL     1      20.249  -0.933   2.523  1.00  0.00     0.274 HD
ENDBRANCH   4  28
BRANCH   1  32
HETATM   32  O2  UNL     1      24.991   2.367   1.842  1.00  0.00    -0.306 OA
BRANCH  32  33
HETATM   33  C3  UNL     1      25.285   3.108   2.952  1.00  0.00     0.418 C
HETATM   34  O1  UNL     1      26.164   2.515   3.853  1.00  0.00    -0.331 OA
HETATM   35  C2  UNL     1      25.958   3.194   5.075  1.00  0.00     0.156 C
HETATM   36  C1  UNL     1      27.099   2.958   6.030  1.00  0.00     0.042 C
HETATM   37  C17 UNL     1      25.747   4.654   4.831  1.00  0.00     0.202 C
HETATM   38  C16 UNL     1      26.432   5.037   3.531  1.00  0.00     0.293 C
HETATM   39  O8  UNL     1      25.907   4.276   2.519  1.00  0.00    -0.306 OA
BRANCH  37  40
HETATM   40  O10 UNL     1      26.306   5.454   5.828  1.00  0.00    -0.388 OA
ATOM     41  H10 UNL     1      25.692   6.088   6.178  1.00  0.00     0.210 HD
ENDBRANCH  37  40
BRANCH  38  42
HETATM   42  O9  UNL     1      27.815   4.919   3.620  1.00  0.00    -0.368 OA
ATOM     43  H9  UNL     1      28.130   5.016   4.510  1.00  0.00     0.212 HD
ENDBRANCH  38  42
ENDBRANCH  32  33
ENDBRANCH   1  32
BRANCH   6  44
HETATM   44  N4  UNL     1      22.739   3.552   0.471  1.00  0.00    -0.070 N
ATOM     45  H43 UNL     1      23.438   3.132  -0.142  1.00  0.00     0.274 HD
ATOM     46  H42 UNL     1      21.906   3.417  -0.104  1.00  0.00     0.274 HD
ATOM     47  H41 UNL     1      22.927   4.546   0.605  1.00  0.00     0.274 HD
ENDBRANCH   6  44
TORSDOF 14
ENDMDL