MODEL 1
REMARK VINA RESULT: -6.990272816      0.000      0.000
REMARK  9 active torsions:
REMARK  status: ('A' for Active; 'I' for Inactive)
REMARK    1  A    between atoms: N5_16  and  C7_17
REMARK    2  A    between atoms: C7_17  and  N6_18
REMARK       I    between atoms: N6_18  and  C8_20
REMARK    3  A    between atoms: C8_20  and  C9_22
REMARK    4  A    between atoms: C10_25  and  O3_26
REMARK    5  A    between atoms: C11_28  and  N8_29
REMARK    6  A    between atoms: N9_31  and  N10_33
REMARK    7  A    between atoms: N11_37  and  N12_39
REMARK    8  A    between atoms: N12_39  and  N13_41
REMARK    9  A    between atoms: C13_44  and  C14_45
ROOT
HETATM    1  C9  UNL     1      22.965   1.397   3.792  1.00  0.00     0.120 A
HETATM    2  N7  UNL     1      21.932   0.686   4.337  1.00  0.00    -0.330 N
ATOM      3  H7  UNL     1      21.739   0.794   5.333  1.00  0.00     0.168 HD
HETATM    4  C10 UNL     1      21.161  -0.146   3.624  1.00  0.00     0.172 A
HETATM    5  C11 UNL     1      21.447  -0.272   2.275  1.00  0.00     0.129 A
HETATM    6  C12 UNL     1      22.463   0.417   1.696  1.00  0.00     0.099 A
HETATM    7  N11 UNL     1      22.766   0.329   0.472  1.00  0.00    -0.283 N
ATOM      8  H11 UNL     1      23.550   0.898   0.154  1.00  0.00     0.188 HD
HETATM    9  C13 UNL     1      23.270   1.299   2.472  1.00  0.00     0.092 A
ENDROOT
BRANCH   1  10
HETATM   10  C8  UNL     1      23.697   2.236   4.715  1.00  0.00     0.274 C
HETATM   11  N6  UNL     1      24.709   1.691   5.575  1.00  0.00    -0.317 N
ATOM     12  H6  UNL     1      24.897   0.690   5.514  1.00  0.00     0.170 HD
HETATM   13  O2  UNL     1      23.463   3.455   4.787  1.00  0.00    -0.266 OA
BRANCH  11  14
HETATM   14  C7  UNL     1      25.477   2.467   6.521  1.00  0.00     0.192 C
BRANCH  14  15
HETATM   15  N5  UNL     1      26.868   2.604   6.230  1.00  0.00    -0.297 N
HETATM   16  C4  UNL     1      27.500   3.729   5.766  1.00  0.00     0.129 A
HETATM   17  C3  UNL     1      26.967   4.964   5.439  1.00  0.00     0.134 A
HETATM   18  C5  UNL     1      28.848   3.490   5.642  1.00  0.00     0.143 A
HETATM   19  N2  UNL     1      27.790   5.955   4.989  1.00  0.00    -0.293 N
HETATM   20  N3  UNL     1      25.720   5.152   5.562  1.00  0.00    -0.383 N
HETATM   21  C2  UNL     1      29.107   5.709   4.872  1.00  0.00     0.329 A
ATOM     22  H2  UNL     1      27.411   6.871   4.743  1.00  0.00     0.172 HD
HETATM   23  N1  UNL     1      29.627   4.508   5.189  1.00  0.00    -0.288 N
HETATM   24  O1  UNL     1      29.868   6.607   4.461  1.00  0.00    -0.246 OA
HETATM   25  C1  UNL     1      31.035   4.249   5.064  1.00  0.00     0.163 C
ATOM     26  H32 UNL     1      25.327   6.062   5.320  1.00  0.00     0.157 HD
ATOM     27  H31 UNL     1      25.105   4.411   5.899  1.00  0.00     0.157 HD
HETATM   28  N4  UNL     1      29.043   2.243   6.022  1.00  0.00    -0.336 N
HETATM   29  C6  UNL     1      27.854   1.702   6.379  1.00  0.00     0.191 A
ATOM     30  H4  UNL     1      29.943   1.764   6.044  1.00  0.00     0.168 HD
ENDBRANCH  14  15
ENDBRANCH  11  14
ENDBRANCH   1  10
BRANCH   9  31
HETATM   31  C14 UNL     1      24.262   2.084   1.757  1.00  0.00     0.269 C
HETATM   32  N14 UNL     1      23.791   3.221   0.999  1.00  0.00    -0.057 NA
HETATM   33  O4  UNL     1      25.455   1.853   1.749  1.00  0.00    -0.271 OA
ENDBRANCH   9  31
BRANCH   4  34
HETATM   34  O3  UNL     1      20.119  -0.865   4.170  1.00  0.00    -0.344 OA
ATOM     35  H3  UNL     1      20.188  -1.782   4.408  1.00  0.00     0.219 HD
ENDBRANCH   4  34
BRANCH   5  36
HETATM   36  N8  UNL     1      20.607  -1.170   1.517  1.00  0.00    -0.281 N
HETATM   37  N9  UNL     1      20.698  -2.418   1.638  1.00  0.00    -0.249 N
ATOM     38  H9  UNL     1      20.065  -2.975   1.065  1.00  0.00     0.207 HD
ATOM     39  H8  UNL     1      19.923  -0.781   0.866  1.00  0.00     0.188 HD
BRANCH  37  40
HETATM   40  N10 UNL     1      21.555  -3.119   2.459  1.00  0.00    -0.331 N
ATOM     41 2H10 UNL     1      22.310  -2.568   2.869  1.00  0.00     0.178 HD
ATOM     42 1H10 UNL     1      21.515  -4.110   2.694  1.00  0.00     0.178 HD
ENDBRANCH  37  40
ENDBRANCH   5  36
BRANCH   7  43
HETATM   43  N12 UNL     1      22.151  -0.453  -0.473  1.00  0.00    -0.249 N
ATOM     44  H12 UNL     1      21.150  -0.334  -0.630  1.00  0.00     0.207 HD
BRANCH  43  45
HETATM   45  N13 UNL     1      22.851  -1.421  -1.241  1.00  0.00    -0.331 N
ATOM     46 2H13 UNL     1      23.845  -1.547  -1.051  1.00  0.00     0.178 HD
ATOM     47 1H13 UNL     1      22.399  -1.982  -1.963  1.00  0.00     0.178 HD
ENDBRANCH  43  45
ENDBRANCH   7  43
TORSDOF 9
ENDMDL