MODEL 1
REMARK VINA RESULT: -6.608631122      0.000      0.000
REMARK  10 active torsions:
REMARK  status: ('A' for Active; 'I' for Inactive)
REMARK    1  A    between atoms: N2_4  and  N3_6
REMARK    2  A    between atoms: N3_6  and  C3_8
REMARK    3  A    between atoms: C6_16  and  N6_17
REMARK    4  A    between atoms: N6_17  and  N7_19
REMARK    5  A    between atoms: N7_19  and  C7_21
REMARK    6  A    between atoms: C9_25  and  C10_26
REMARK    7  A    between atoms: C10_26  and  O1_27
REMARK    8  A    between atoms: C11_30  and  C12_31
REMARK    9  A    between atoms: C12_31  and  N10_34
REMARK   10  A    between atoms: C15_38  and  O3_39
ROOT
HETATM    1  C12 UNL     1      26.127   4.150   3.980  1.00  0.00     0.235 C
HETATM    2  C13 UNL     1      26.779   5.477   3.941  1.00  0.00     0.088 C
HETATM    3  N9  UNL     1      27.295   6.499   3.927  1.00  0.00    -0.195 NA
ENDROOT
BRANCH   1   4
HETATM    4  C11 UNL     1      26.829   3.286   5.040  1.00  0.00     0.227 C
HETATM    5  C7  UNL     1      25.997   3.153   6.242  1.00  0.00     0.124 C
HETATM    6  N8  UNL     1      26.441   3.528   7.371  1.00  0.00    -0.374 N
HETATM    7  C8  UNL     1      27.750   4.098   7.588  1.00  0.00     0.155 C
ATOM      8  H8  UNL     1      25.831   3.418   8.181  1.00  0.00     0.161 HD
HETATM    9  C9  UNL     1      28.640   3.638   6.454  1.00  0.00     0.164 C
HETATM   10  O2  UNL     1      28.071   3.810   5.223  1.00  0.00    -0.366 OA
BRANCH   5  11
HETATM   11  N7  UNL     1      24.674   2.594   6.121  1.00  0.00    -0.285 N
ATOM     12  H7  UNL     1      23.883   3.233   6.031  1.00  0.00     0.188 HD
BRANCH  11  13
HETATM   13  N6  UNL     1      24.420   1.226   6.121  1.00  0.00    -0.284 N
ATOM     14  H6  UNL     1      24.897   0.652   6.816  1.00  0.00     0.188 HD
BRANCH  13  15
HETATM   15  C6  UNL     1      23.547   0.583   5.221  1.00  0.00     0.142 C
HETATM   16  N5  UNL     1      22.726  -0.264   5.777  1.00  0.00    -0.288 N
HETATM   17  N4  UNL     1      21.744  -1.033   5.035  1.00  0.00    -0.296 N
ATOM     18  H5  UNL     1      22.776  -0.392   6.788  1.00  0.00     0.188 HD
HETATM   19  C5  UNL     1      20.905  -0.652   3.951  1.00  0.00     0.367 C
ATOM     20  H4  UNL     1      21.640  -2.001   5.338  1.00  0.00     0.183 HD
HETATM   21  S1  UNL     1      21.165  -1.424   2.302  1.00  0.00    -0.076 SA
HETATM   22  N12 UNL     1      21.481   0.638   3.525  1.00  0.00    -0.032 N
HETATM   23  C4  UNL     1      22.479  -0.199   1.778  1.00  0.00     0.032 C
HETATM   24  C3  UNL     1      22.787   0.042   0.537  1.00  0.00     0.123 C
HETATM   25  C16 UNL     1      22.806   0.162   3.079  1.00  0.00     0.266 C
HETATM   26  C15 UNL     1      23.737   0.997   3.778  1.00  0.00     0.224 C
ATOM     27 2H12 UNL     1      20.940   1.171   2.844  1.00  0.00     0.281 HD
ATOM     28 1H12 UNL     1      21.480   1.384   4.221  1.00  0.00     0.281 HD
BRANCH  24  29
HETATM   29  N3  UNL     1      22.122  -0.632  -0.524  1.00  0.00    -0.310 N
ATOM     30  H3  UNL     1      21.244  -0.283  -0.908  1.00  0.00     0.186 HD
BRANCH  29  31
HETATM   31  N2  UNL     1      22.722  -1.789  -1.016  1.00  0.00    -0.292 N
HETATM   32  C2  UNL     1      23.043  -1.911  -2.261  1.00  0.00     0.103 C
HETATM   33  C1  UNL     1      22.765  -0.795  -3.186  1.00  0.00     0.086 C
HETATM   34  N1  UNL     1      23.653  -3.091  -2.754  1.00  0.00    -0.087 NA
ATOM     35  H2  UNL     1      22.912  -2.560  -0.376  1.00  0.00     0.188 HD
ENDBRANCH  29  31
ENDBRANCH  24  29
BRANCH  26  36
HETATM   36  O3  UNL     1      25.060   0.766   3.381  1.00  0.00    -0.385 OA
ATOM     37  H3  UNL     1      25.087   0.522   2.464  1.00  0.00     0.210 HD
ENDBRANCH  26  36
ENDBRANCH  13  15
ENDBRANCH  11  13
ENDBRANCH   5  11
BRANCH   9  38
HETATM   38  C10 UNL     1      29.123   2.202   6.673  1.00  0.00     0.197 C
BRANCH  38  39
HETATM   39  O1  UNL     1      28.848   1.837   7.989  1.00  0.00    -0.398 OA
ATOM     40  H1  UNL     1      29.169   2.519   8.566  1.00  0.00     0.209 HD
ENDBRANCH  38  39
ENDBRANCH   9  38
ENDBRANCH   1   4
BRANCH   1  41
HETATM   41  N10 UNL     1      26.314   3.574   2.663  1.00  0.00    -0.308 N
HETATM   42  C14 UNL     1      25.298   3.715   1.712  1.00  0.00     0.178 C
HETATM   43  N11 UNL     1      24.436   3.817   0.919  1.00  0.00    -0.172 NA
ATOM     44  H10 UNL     1      27.173   3.074   2.434  1.00  0.00     0.173 HD
ENDBRANCH   1  41
TORSDOF 10
ENDMDL