MODEL 2
REMARK VINA RESULT: -7.471847902      1.182      1.474
REMARK  10 active torsions:
REMARK  status: ('A' for Active; 'I' for Inactive)
REMARK    1  A    between atoms: N1_1  and  C1_4
REMARK    2  A    between atoms: C2_7  and  C3_8
REMARK    3  A    between atoms: C3_8  and  O1_9
REMARK    4  A    between atoms: C3_8  and  C4_11
REMARK       I    between atoms: C4_11  and  N3_13
REMARK    5  A    between atoms: N3_13  and  C5_15
REMARK    6  A    between atoms: C6_18  and  C7_19
REMARK    7  A    between atoms: C8_22  and  C9_23
REMARK    8  A    between atoms: C11_25  and  C12_26
REMARK    9  A    between atoms: C13_37  and  O6_38
REMARK   10  A    between atoms: C14_40  and  N10_41
ROOT
HETATM    1  C5  UNL     1      23.683   2.534   3.675  1.00  0.00     0.218 C
HETATM    2  N4  UNL     1      24.271   2.895   4.935  1.00  0.00    -0.361 N
ATOM      3  H4  UNL     1      23.677   2.928   5.763  1.00  0.00     0.162 HD
HETATM    4  C6  UNL     1      25.670   3.212   5.072  1.00  0.00     0.119 C
HETATM    5  C8  UNL     1      26.335   3.685   4.051  1.00  0.00     0.042 C
HETATM    6  C13 UNL     1      25.525   3.835   2.786  1.00  0.00     0.190 C
HETATM    7  C14 UNL     1      24.726   2.528   2.611  1.00  0.00     0.258 C
ENDROOT
BRANCH   1   8
HETATM    8  N3  UNL     1      23.001   1.280   3.867  1.00  0.00    -0.335 N
HETATM    9  C4  UNL     1      21.836   0.934   3.136  1.00  0.00     0.255 C
HETATM   10  O2  UNL     1      21.402   1.757   2.295  1.00  0.00    -0.270 OA
ATOM     11  H3  UNL     1      23.368   0.619   4.552  1.00  0.00     0.164 HD
BRANCH   9  12
HETATM   12  C3  UNL     1      21.127  -0.364   3.339  1.00  0.00     0.279 C
BRANCH  12  13
HETATM   13  C2  UNL     1      20.845  -0.995   2.032  1.00  0.00     0.143 A
HETATM   14  N2  UNL     1      21.678  -1.259   1.035  1.00  0.00    -0.306 N
HETATM   15  C1  UNL     1      20.970  -1.838   0.049  1.00  0.00     0.242 A
ATOM     16  H2  UNL     1      22.677  -1.058   1.019  1.00  0.00     0.171 HD
HETATM   17  O7  UNL     1      19.709  -1.930   0.436  1.00  0.00    -0.200 OA
HETATM   18  N11 UNL     1      19.631  -1.420   1.641  1.00  0.00    -0.242 N
ATOM     19  H11 UNL     1      18.778  -1.354   2.198  1.00  0.00     0.196 HD
BRANCH  15  20
HETATM   20  N1  UNL     1      21.360  -2.257  -1.094  1.00  0.00    -0.364 N
ATOM     21  H12 UNL     1      21.689  -1.620  -1.819  1.00  0.00     0.159 HD
ATOM     22  H11 UNL     1      21.408  -3.210  -1.455  1.00  0.00     0.159 HD
ENDBRANCH  15  20
ENDBRANCH  12  13
BRANCH  12  23
HETATM   23  O1  UNL     1      19.914  -0.175   3.997  1.00  0.00    -0.378 OA
ATOM     24  H1  UNL     1      19.572  -1.028   4.236  1.00  0.00     0.211 HD
ENDBRANCH  12  23
ENDBRANCH   9  12
ENDBRANCH   1   8
BRANCH   7  25
HETATM   25  N10 UNL     1      25.676   1.451   2.779  1.00  0.00    -0.069 N
ATOM     26 3H10 UNL     1      26.250   1.593   3.610  1.00  0.00     0.275 HD
ATOM     27 2H10 UNL     1      25.208   0.586   3.051  1.00  0.00     0.275 HD
ATOM     28 1H10 UNL     1      26.254   1.311   1.950  1.00  0.00     0.275 HD
ENDBRANCH   7  25
BRANCH   4  29
HETATM   29  C7  UNL     1      26.257   2.933   6.395  1.00  0.00     0.227 C
HETATM   30  O3  UNL     1      26.294   3.837   7.283  1.00  0.00    -0.643 OA
HETATM   31  O4  UNL     1      26.789   1.730   6.771  1.00  0.00    -0.643 OA
ENDBRANCH   4  29
BRANCH   6  32
HETATM   32  O6  UNL     1      26.286   4.004   1.669  1.00  0.00    -0.388 OA
ATOM     33  H6  UNL     1      27.119   3.549   1.703  1.00  0.00     0.210 HD
ENDBRANCH   6  32
BRANCH   5  34
HETATM   34  C9  UNL     1      27.739   4.051   4.058  1.00  0.00     0.112 A
HETATM   35  C10 UNL     1      28.291   5.163   4.709  1.00  0.00     0.075 A
HETATM   36  C11 UNL     1      29.649   5.167   4.493  1.00  0.00     0.104 A
HETATM   37  N9  UNL     1      29.884   4.089   3.737  1.00  0.00    -0.257 N
HETATM   38  O5  UNL     1      28.768   3.473   3.507  1.00  0.00    -0.237 OA
ATOM     39  H9  UNL     1      30.799   3.798   3.395  1.00  0.00     0.195 HD
BRANCH  36  40
HETATM   40  C12 UNL     1      30.620   6.144   4.989  1.00  0.00     0.163 A
HETATM   41  N5  UNL     1      31.890   5.954   5.383  1.00  0.00    -0.265 N
HETATM   42  N6  UNL     1      32.425   7.124   5.765  1.00  0.00    -0.005 NA
ATOM     43  H5  UNL     1      32.375   5.057   5.390  1.00  0.00     0.186 HD
HETATM   44  N7  UNL     1      31.492   8.046   5.613  1.00  0.00    -0.225 N
HETATM   45  N8  UNL     1      30.406   7.458   5.147  1.00  0.00    -0.270 N
ATOM     46  H7  UNL     1      31.593   9.040   5.819  1.00  0.00     0.205 HD
ATOM     47  H8  UNL     1      29.530   7.935   4.937  1.00  0.00     0.190 HD
ENDBRANCH  36  40
ENDBRANCH   5  34
TORSDOF 10
ENDMDL