MODEL 4
REMARK VINA RESULT: -6.681944604      1.673      2.110
REMARK  11 active torsions:
REMARK  status: ('A' for Active; 'I' for Inactive)
REMARK    1  A    between atoms: N1_1  and  C1_5
REMARK    2  A    between atoms: C1_5  and  C2_6
REMARK    3  A    between atoms: C2_6  and  N2_7
REMARK    4  A    between atoms: N2_7  and  C3_9
REMARK    5  A    between atoms: C4_12  and  N4_13
REMARK    6  A    between atoms: N4_13  and  N5_15
REMARK       I    between atoms: N5_15  and  C5_17
REMARK    7  A    between atoms: C8_22  and  O1_23
REMARK    8  A    between atoms: C9_25  and  C10_26
REMARK    9  A    between atoms: C10_26  and  N8_27
REMARK   10  A    between atoms: N8_27  and  O2_29
REMARK   11  A    between atoms: C11_31  and  C12_32
REMARK       I    between atoms: N11_39  and  C14_41
REMARK       I    between atoms: C14_41  and  N12_42
REMARK       I    between atoms: C14_41  and  N13_46
ROOT
HETATM    1  C3  UNL     1      25.207   0.555   5.498  1.00  0.00     0.226 A
HETATM    2  N3  UNL     1      26.270   1.316   5.355  1.00  0.00    -0.306 N
ATOM      3  H3  UNL     1      27.024   1.201   6.033  1.00  0.00     0.171 HD
HETATM    4  C4  UNL     1      26.450   2.259   4.361  1.00  0.00     0.136 A
HETATM    5  C6  UNL     1      25.385   2.359   3.479  1.00  0.00     0.047 A
HETATM    6  C7  UNL     1      25.424   3.258   2.437  1.00  0.00     0.055 A
HETATM    7  C8  UNL     1      24.341   3.316   1.590  1.00  0.00     0.079 A
HETATM    8  C9  UNL     1      23.235   2.490   1.780  1.00  0.00     0.030 A
HETATM    9  C11 UNL     1      23.186   1.590   2.817  1.00  0.00     0.046 A
HETATM   10  C15 UNL     1      24.285   1.532   3.675  1.00  0.00     0.107 A
HETATM   11  O4  UNL     1      24.212   0.661   4.659  1.00  0.00    -0.278 OA
ENDROOT
BRANCH   9  12
HETATM   12  C12 UNL     1      22.024   0.732   3.005  1.00  0.00     0.116 A
HETATM   13  N9  UNL     1      21.041   1.005   3.873  1.00  0.00    -0.237 N
HETATM   14  O3  UNL     1      20.159   0.045   3.798  1.00  0.00    -0.155 OA
ATOM     15  H9  UNL     1      20.992   1.819   4.486  1.00  0.00     0.197 HD
HETATM   16  N10 UNL     1      20.533  -0.833   2.917  1.00  0.00    -0.223 N
HETATM   17  C13 UNL     1      21.703  -0.458   2.379  1.00  0.00     0.156 A
ATOM     18  H10 UNL     1      20.016  -1.677   2.672  1.00  0.00     0.198 HD
HETATM   19  N11 UNL     1      22.452  -0.994   1.486  1.00  0.00    -0.324 N
HETATM   20  C14 UNL     1      22.052  -2.236   0.878  1.00  0.00     0.481 C
ATOM     21  H11 UNL     1      23.324  -0.543   1.208  1.00  0.00     0.165 HD
HETATM   22  N12 UNL     1      20.782  -2.145   0.216  1.00  0.00    -0.033 N
HETATM   23  N13 UNL     1      21.942  -3.271   1.908  1.00  0.00    -0.033 N
ATOM     24 3H12 UNL     1      20.062  -1.800   0.851  1.00  0.00     0.278 HD
ATOM     25 2H12 UNL     1      20.778  -1.387  -0.466  1.00  0.00     0.278 HD
ATOM     26 1H12 UNL     1      20.498  -3.025  -0.214  1.00  0.00     0.278 HD
ATOM     27 3H13 UNL     1      22.800  -3.367   2.451  1.00  0.00     0.278 HD
ATOM     28 2H13 UNL     1      21.319  -2.994   2.667  1.00  0.00     0.278 HD
ATOM     29 1H13 UNL     1      21.658  -4.151   1.477  1.00  0.00     0.278 HD
ENDBRANCH   9  12
BRANCH   8  30
HETATM   30  C10 UNL     1      22.129   2.587   0.871  1.00  0.00     0.129 C
BRANCH  30  31
HETATM   31  N8  UNL     1      22.234   2.204  -0.350  1.00  0.00    -0.280 N
ATOM     32  H8  UNL     1      22.074   2.884  -1.093  1.00  0.00     0.193 HD
BRANCH  31  33
HETATM   33  O2  UNL     1      22.549   0.928  -0.689  1.00  0.00    -0.290 OA
ATOM     34  H2  UNL     1      22.392   0.577  -1.558  1.00  0.00     0.244 HD
ENDBRANCH  31  33
ENDBRANCH  30  31
ENDBRANCH   8  30
BRANCH   7  35
HETATM   35  O1  UNL     1      24.365   4.211   0.542  1.00  0.00    -0.360 OA
ATOM     36  H1  UNL     1      23.693   4.152  -0.127  1.00  0.00     0.217 HD
ENDBRANCH   7  35
BRANCH   4  37
HETATM   37  N4  UNL     1      27.505   2.917   4.336  1.00  0.00    -0.283 N
ATOM     38  H4  UNL     1      28.263   2.286   4.077  1.00  0.00     0.188 HD
BRANCH  37  39
HETATM   39  N5  UNL     1      28.018   4.116   4.517  1.00  0.00    -0.274 N
HETATM   40  C5  UNL     1      29.247   4.417   4.189  1.00  0.00     0.215 C
HETATM   41  N6  UNL     1      29.676   5.740   4.436  1.00  0.00    -0.065 NA
HETATM   42  N7  UNL     1      30.107   3.466   3.615  1.00  0.00    -0.065 NA
ATOM     43  H5  UNL     1      27.432   4.840   4.931  1.00  0.00     0.189 HD
ENDBRANCH  37  39
ENDBRANCH   4  37
BRANCH   1  44
HETATM   44  N2  UNL     1      25.186  -0.285   6.483  1.00  0.00    -0.354 N
ATOM     45  H2  UNL     1      26.046  -0.799   6.677  1.00  0.00     0.163 HD
BRANCH  44  46
HETATM   46  C2  UNL     1      24.061  -0.552   7.320  1.00  0.00     0.150 C
BRANCH  46  47
HETATM   47  C1  UNL     1      23.251  -1.744   6.855  1.00  0.00     0.249 C
BRANCH  47  48
HETATM   48  N1  UNL     1      22.102  -1.250   6.122  1.00  0.00    -0.078 N
ATOM     49  H13 UNL     1      22.272  -1.185   5.118  1.00  0.00     0.274 HD
ATOM     50  H12 UNL     1      21.337  -1.924   6.089  1.00  0.00     0.274 HD
ATOM     51  H11 UNL     1      21.823  -0.359   6.533  1.00  0.00     0.274 HD
ENDBRANCH  47  48
ENDBRANCH  46  47
ENDBRANCH  44  46
ENDBRANCH   1  44
TORSDOF 11
ENDMDL