MODEL 5
REMARK VINA RESULT: -6.454554434      2.789      4.473
REMARK  9 active torsions:
REMARK  status: ('A' for Active; 'I' for Inactive)
REMARK    1  A    between atoms: C2_2  and  C3_3
REMARK    2  A    between atoms: C2_2  and  N10_41
REMARK    3  A    between atoms: N1_4  and  C4_6
REMARK    4  A    between atoms: C7_11  and  O1_12
REMARK    5  A    between atoms: C12_28  and  C13_29
REMARK    6  A    between atoms: N8_32  and  C14_33
REMARK    7  A    between atoms: C14_33  and  O4_34
REMARK    8  A    between atoms: C14_33  and  C15_36
REMARK    9  A    between atoms: C15_36  and  N9_37
REMARK       I    between atoms: N10_41  and  C16_44
REMARK       I    between atoms: C16_44  and  N11_45
REMARK       I    between atoms: C16_44  and  N12_49
ROOT
HETATM    1  C4  UNL     1      22.704  -2.656   1.211  1.00  0.00     0.123 C
HETATM    2  N2  UNL     1      22.696  -1.318   1.105  1.00  0.00    -0.327 N
ATOM      3  H2  UNL     1      22.767  -0.819   1.992  1.00  0.00     0.169 HD
HETATM    4  C5  UNL     1      22.609  -0.526   0.019  1.00  0.00     0.131 A
HETATM    5  C6  UNL     1      22.642  -0.913  -1.307  1.00  0.00     0.112 A
HETATM    6  C7  UNL     1      22.808  -2.160  -1.875  1.00  0.00     0.114 C
HETATM    7  C8  UNL     1      23.196  -3.302  -1.211  1.00  0.00     0.100 A
HETATM    8  N3  UNL     1      23.691  -4.416  -1.727  1.00  0.00    -0.295 N
ATOM      9  H3  UNL     1      23.844  -4.562  -2.725  1.00  0.00     0.187 HD
HETATM   10  N4  UNL     1      23.962  -5.310  -0.808  1.00  0.00    -0.284 N
ATOM     11  H4  UNL     1      24.349  -6.237  -0.988  1.00  0.00     0.188 HD
HETATM   12  C9  UNL     1      23.647  -4.811   0.436  1.00  0.00     0.130 A
HETATM   13  N5  UNL     1      23.786  -5.402   1.536  1.00  0.00    -0.384 N
ATOM     14  H51 UNL     1      23.552  -5.032   2.458  1.00  0.00     0.157 HD
ATOM     15  H52 UNL     1      24.150  -6.344   1.676  1.00  0.00     0.157 HD
HETATM   16  C10 UNL     1      23.155  -3.540   0.248  1.00  0.00     0.084 A
HETATM   17  C11 UNL     1      22.495   0.052  -2.269  1.00  0.00     0.264 A
HETATM   18  O2  UNL     1      22.524  -0.280  -3.479  1.00  0.00    -0.267 OA
HETATM   19  N6  UNL     1      22.326   1.309  -1.864  1.00  0.00    -0.304 N
ATOM     20  H6  UNL     1      22.214   2.035  -2.571  1.00  0.00     0.171 HD
HETATM   21  C12 UNL     1      22.295   1.677  -0.531  1.00  0.00     0.180 A
HETATM   22  N8  UNL     1      22.438   0.764   0.436  1.00  0.00    -0.285 N
ENDROOT
BRANCH   1  23
HETATM   23  N1  UNL     1      22.225  -3.275   2.372  1.00  0.00    -0.353 N
HETATM   24  C3  UNL     1      21.764  -2.684   3.418  1.00  0.00     0.095 C
ATOM     25  H1  UNL     1      22.243  -4.295   2.390  1.00  0.00     0.166 HD
BRANCH  24  26
HETATM   26  C2  UNL     1      21.274  -3.394   4.611  1.00  0.00     0.224 C
HETATM   27  C1  UNL     1      22.457  -3.961   5.368  1.00  0.00     0.046 C
BRANCH  26  28
HETATM   28  N10 UNL     1      20.527  -2.508   5.444  1.00  0.00    -0.013 N
HETATM   29  C16 UNL     1      19.874  -3.170   6.556  1.00  0.00     0.576 C
HETATM   30  N11 UNL     1      19.119  -2.224   7.363  1.00  0.00    -0.026 N
HETATM   31  N12 UNL     1      19.009  -4.229   6.144  1.00  0.00    -0.026 N
ATOM     32 3H11 UNL     1      19.704  -1.450   7.678  1.00  0.00     0.278 HD
ATOM     33 2H11 UNL     1      18.454  -1.698   6.797  1.00  0.00     0.278 HD
ATOM     34 1H11 UNL     1      18.660  -2.690   8.145  1.00  0.00     0.278 HD
ATOM     35 3H12 UNL     1      18.323  -3.897   5.465  1.00  0.00     0.278 HD
ATOM     36 2H12 UNL     1      19.508  -4.902   5.562  1.00  0.00     0.278 HD
ATOM     37 1H12 UNL     1      18.550  -4.695   6.926  1.00  0.00     0.278 HD
ATOM     38 2H10 UNL     1      21.114  -1.742   5.775  1.00  0.00     0.282 HD
ATOM     39 1H10 UNL     1      19.852  -1.978   4.893  1.00  0.00     0.282 HD
ENDBRANCH  26  28
ENDBRANCH  24  26
ENDBRANCH   1  23
BRANCH  22  40
HETATM   40  C14 UNL     1      22.398   1.071   1.845  1.00  0.00     0.253 C
BRANCH  40  41
HETATM   41  O4  UNL     1      21.406   1.967   2.151  1.00  0.00    -0.374 OA
ATOM     42  H4  UNL     1      21.010   2.343   1.374  1.00  0.00     0.212 HD
ENDBRANCH  40  41
BRANCH  40  43
HETATM   43  C15 UNL     1      23.683   1.570   2.438  1.00  0.00     0.283 C
BRANCH  43  44
HETATM   44  N9  UNL     1      23.621   2.888   2.976  1.00  0.00    -0.075 N
ATOM     45  H93 UNL     1      23.346   2.857   3.958  1.00  0.00     0.274 HD
ATOM     46  H92 UNL     1      24.559   3.277   3.067  1.00  0.00     0.274 HD
ATOM     47  H91 UNL     1      23.020   3.533   2.462  1.00  0.00     0.274 HD
ENDBRANCH  43  44
ENDBRANCH  40  43
ENDBRANCH  22  40
BRANCH   6  48
HETATM   48  O1  UNL     1      22.576  -2.316  -3.219  1.00  0.00    -0.357 OA
ATOM     49  H1  UNL     1      21.710  -2.577  -3.511  1.00  0.00     0.217 HD
ENDBRANCH   6  48
BRANCH  21  50
HETATM   50  C13 UNL     1      22.040   3.078  -0.268  1.00  0.00     0.299 C
HETATM   51  N7  UNL     1      23.125   3.937   0.004  1.00  0.00    -0.054 NA
HETATM   52  O3  UNL     1      20.885   3.533  -0.277  1.00  0.00    -0.268 OA
ENDBRANCH  21  50
TORSDOF 9
ENDMDL