MODEL 5
REMARK VINA RESULT: -6.951826897      3.048      4.567
REMARK  13 active torsions:
REMARK  status: ('A' for Active; 'I' for Inactive)
REMARK    1  A    between atoms: C2_2  and  O1_3
REMARK    2  A    between atoms: C2_2  and  C3_5
REMARK    3  A    between atoms: C5_10  and  O2_11
REMARK    4  A    between atoms: C5_10  and  C6_13
REMARK    5  A    between atoms: C6_13  and  C7_14
REMARK    6  A    between atoms: C7_14  and  O3_15
REMARK    7  A    between atoms: C7_14  and  C8_17
REMARK       I    between atoms: C8_17  and  N2_19
REMARK    8  A    between atoms: N2_19  and  C9_21
REMARK    9  A    between atoms: C9_21  and  C10_22
REMARK   10  A    between atoms: C11_25  and  C12_26
REMARK   11  A    between atoms: C12_26  and  O6_31
REMARK   12  A    between atoms: N4_27  and  O5_29
REMARK   13  A    between atoms: O6_31  and  C13_32
ROOT
HETATM    1  C8  UNL     1      26.097   4.777   4.753  1.00  0.00     0.247 C
HETATM    2  O4  UNL     1      25.378   5.566   5.400  1.00  0.00    -0.271 OA
HETATM    3  N2  UNL     1      25.652   3.408   4.713  1.00  0.00    -0.351 N
ATOM      4  H2  UNL     1      26.207   2.725   4.196  1.00  0.00     0.163 HD
ENDROOT
BRANCH   1   5
HETATM    5  C7  UNL     1      27.315   5.244   4.086  1.00  0.00     0.216 C
BRANCH   5   6
HETATM    6  C6  UNL     1      27.938   6.489   4.599  1.00  0.00     0.135 C
BRANCH   6   7
HETATM    7  C5  UNL     1      29.372   6.407   5.042  1.00  0.00     0.317 C
HETATM    8  N1  UNL     1      29.678   7.585   5.776  1.00  0.00     0.004 N
HETATM    9  C3  UNL     1      30.864   7.438   6.546  1.00  0.00     0.272 C
ATOM     10  H12 UNL     1      28.892   7.872   6.358  1.00  0.00     0.285 HD
ATOM     11  H11 UNL     1      29.732   8.400   5.165  1.00  0.00     0.285 HD
HETATM   12  C4  UNL     1      32.131   7.647   5.743  1.00  0.00     0.069 C
HETATM   13  S1  UNL     1      30.811   5.710   6.956  1.00  0.00     0.268 S
HETATM   14  N8  UNL     1      29.358   5.310   6.059  1.00  0.00    -0.260 N
HETATM   15  O8  UNL     1      31.984   4.958   6.391  1.00  0.00    -0.203 OA
HETATM   16  O9  UNL     1      30.627   5.455   8.407  1.00  0.00    -0.203 OA
ATOM     17  H8  UNL     1      28.694   4.546   6.192  1.00  0.00     0.177 HD
BRANCH   9  18
HETATM   18  C2  UNL     1      30.871   8.333   7.762  1.00  0.00     0.167 C
HETATM   19  C1  UNL     1      31.147   9.766   7.494  1.00  0.00     0.043 C
BRANCH  18  20
HETATM   20  O1  UNL     1      29.673   8.198   8.446  1.00  0.00    -0.392 OA
ATOM     21  H1  UNL     1      29.838   7.962   9.352  1.00  0.00     0.210 HD
ENDBRANCH  18  20
ENDBRANCH   9  18
BRANCH   7  22
HETATM   22  O2  UNL     1      30.208   6.074   4.015  1.00  0.00    -0.348 OA
ATOM     23  H2  UNL     1      29.978   5.314   3.495  1.00  0.00     0.214 HD
ENDBRANCH   7  22
ENDBRANCH   6   7
ENDBRANCH   5   6
BRANCH   5  24
HETATM   24  O3  UNL     1      26.904   5.565   2.749  1.00  0.00    -0.386 OA
ATOM     25  H3  UNL     1      27.640   5.315   2.203  1.00  0.00     0.210 HD
ENDBRANCH   5  24
ENDBRANCH   1   5
BRANCH   3  26
HETATM   26  C9  UNL     1      24.448   2.964   5.377  1.00  0.00     0.209 C
BRANCH  26  27
HETATM   27  C10 UNL     1      23.707   2.084   4.458  1.00  0.00     0.166 A
HETATM   28  N3  UNL     1      23.450   2.404   3.167  1.00  0.00    -0.318 N
HETATM   29  C11 UNL     1      22.760   1.401   2.599  1.00  0.00     0.181 A
ATOM     30  H3  UNL     1      23.733   3.266   2.702  1.00  0.00     0.169 HD
HETATM   31  N7  UNL     1      22.611   0.483   3.565  1.00  0.00    -0.239 N
HETATM   32  O7  UNL     1      23.178   0.908   4.655  1.00  0.00    -0.221 OA
ATOM     33  H7  UNL     1      22.128  -0.409   3.461  1.00  0.00     0.196 HD
BRANCH  29  34
HETATM   34  C12 UNL     1      22.278   1.326   1.225  1.00  0.00     0.216 C
HETATM   35  N4  UNL     1      22.464   0.263   0.520  1.00  0.00    -0.244 N
ATOM     36  H4  UNL     1      22.123   0.218  -0.441  1.00  0.00     0.196 HD
BRANCH  35  37
HETATM   37  O5  UNL     1      23.116  -0.795   1.067  1.00  0.00    -0.288 OA
ATOM     38  H5  UNL     1      24.061  -0.853   0.987  1.00  0.00     0.244 HD
ENDBRANCH  35  37
BRANCH  34  39
HETATM   39  O6  UNL     1      21.607   2.369   0.612  1.00  0.00    -0.259 OA
BRANCH  39  40
HETATM   40  C13 UNL     1      22.282   3.330  -0.157  1.00  0.00     0.231 C
HETATM   41  N5  UNL     1      21.740   3.621  -1.293  1.00  0.00    -0.367 N
ATOM     42  H52 UNL     1      20.876   3.178  -1.605  1.00  0.00     0.159 HD
ATOM     43  H51 UNL     1      22.230   4.319  -1.852  1.00  0.00     0.159 HD
HETATM   44  N6  UNL     1      23.479   3.944   0.276  1.00  0.00    -0.056 NA
ENDBRANCH  39  40
ENDBRANCH  34  39
ENDBRANCH  29  34
ENDBRANCH  26  27
ENDBRANCH   3  26
TORSDOF 13
ENDMDL