MODEL 1
REMARK VINA RESULT: -5.703585694      0.000      0.000
REMARK  12 active torsions:
REMARK  status: ('A' for Active; 'I' for Inactive)
REMARK    1  A    between atoms: O1_2  and  C2_3
REMARK    2  A    between atoms: C3_5  and  O3_6
REMARK    3  A    between atoms: O3_6  and  N1_7
REMARK    4  A    between atoms: C4_10  and  N2_11
REMARK    5  A    between atoms: N2_11  and  C5_13
REMARK    6  A    between atoms: C6_14  and  N3_15
REMARK    7  A    between atoms: N3_15  and  C7_17
REMARK    8  A    between atoms: C7_17  and  O4_19
REMARK    9  A    between atoms: C9_21  and  O5_22
REMARK   10  A    between atoms: C14_30  and  N4_31
REMARK   11  A    between atoms: C15_35  and  O6_36
REMARK   12  A    between atoms: C16_38  and  O7_39
ROOT
HETATM    1  C5  UNL     1      24.967   1.067   3.197  1.00  0.00     0.135 C
HETATM    2  C6  UNL     1      24.554   2.351   2.543  1.00  0.00     0.134 C
HETATM    3  C9  UNL     1      25.223   3.438   3.439  1.00  0.00     0.173 C
HETATM    4  C10 UNL     1      26.379   2.793   4.112  1.00  0.00     0.114 C
HETATM    5  S1  UNL     1      26.251   2.835   5.925  1.00  0.00    -0.143 SA
HETATM    6  C11 UNL     1      26.942   4.368   6.586  1.00  0.00     0.076 C
HETATM    7  C12 UNL     1      28.409   4.436   6.180  1.00  0.00     0.020 C
HETATM    8  C13 UNL     1      28.457   4.871   4.740  1.00  0.00     0.076 C
HETATM    9  S2  UNL     1      27.949   3.569   3.599  1.00  0.00    -0.143 SA
HETATM   10  C14 UNL     1      26.386   1.395   3.590  1.00  0.00     0.239 C
ENDROOT
BRANCH   1  11
HETATM   11  N2  UNL     1      24.150   0.465   4.137  1.00  0.00    -0.402 N
ATOM     12  H2  UNL     1      24.066   0.904   5.054  1.00  0.00     0.154 HD
BRANCH  11  13
HETATM   13  C4  UNL     1      23.422  -0.731   3.897  1.00  0.00     0.166 C
HETATM   14  C3  UNL     1      22.035  -0.606   4.470  1.00  0.00     0.315 C
HETATM   15  O2  UNL     1      21.055  -1.141   3.616  1.00  0.00    -0.324 OA
HETATM   16  C2  UNL     1      21.248  -0.527   2.403  1.00  0.00     0.293 C
HETATM   17  C16 UNL     1      22.310  -1.397   1.710  1.00  0.00     0.204 C
HETATM   18  C15 UNL     1      23.543  -1.265   2.521  1.00  0.00     0.178 C
BRANCH  14  19
HETATM   19  O3  UNL     1      21.844  -1.186   5.703  1.00  0.00    -0.252 OA
BRANCH  19  20
HETATM   20  N1  UNL     1      20.785  -2.025   5.698  1.00  0.00    -0.308 N
ATOM     21  H12 UNL     1      20.116  -2.081   4.929  1.00  0.00     0.184 HD
ATOM     22  H11 UNL     1      20.746  -2.584   6.550  1.00  0.00     0.184 HD
ENDBRANCH  19  20
ENDBRANCH  14  19
BRANCH  16  23
HETATM   23  O1  UNL     1      20.151  -0.347   1.611  1.00  0.00    -0.363 OA
HETATM   24  C1  UNL     1      19.282  -1.436   1.628  1.00  0.00     0.204 C
ENDBRANCH  16  23
BRANCH  17  25
HETATM   25  O7  UNL     1      22.457  -0.997   0.384  1.00  0.00    -0.388 OA
ATOM     26  H7  UNL     1      23.369  -1.065   0.127  1.00  0.00     0.210 HD
ENDBRANCH  17  25
BRANCH  18  27
HETATM   27  O6  UNL     1      24.205  -2.517   2.464  1.00  0.00    -0.391 OA
ATOM     28  H6  UNL     1      24.884  -2.551   1.800  1.00  0.00     0.210 HD
ENDBRANCH  18  27
ENDBRANCH  11  13
ENDBRANCH   1  11
BRANCH   2  29
HETATM   29  N3  UNL     1      23.268   2.757   2.340  1.00  0.00    -0.388 N
ATOM     30  H3  UNL     1      22.705   2.875   3.182  1.00  0.00     0.156 HD
BRANCH  29  31
HETATM   31  C7  UNL     1      22.622   3.031   1.149  1.00  0.00     0.209 C
HETATM   32  C8  UNL     1      21.114   3.161   1.231  1.00  0.00     0.062 C
BRANCH  31  33
HETATM   33  O4  UNL     1      22.790   1.861   0.323  1.00  0.00    -0.378 OA
ATOM     34  H4  UNL     1      23.103   2.174  -0.518  1.00  0.00     0.212 HD
ENDBRANCH  31  33
ENDBRANCH  29  31
ENDBRANCH   2  29
BRANCH  10  35
HETATM   35  N4  UNL     1      27.008   0.458   4.450  1.00  0.00    -0.071 N
ATOM     36  H43 UNL     1      26.445  -0.390   4.510  1.00  0.00     0.274 HD
ATOM     37  H42 UNL     1      27.850   0.084   4.010  1.00  0.00     0.274 HD
ATOM     38  H41 UNL     1      27.225   0.801   5.386  1.00  0.00     0.274 HD
ENDBRANCH  10  35
BRANCH   3  39
HETATM   39  O5  UNL     1      25.651   4.503   2.668  1.00  0.00    -0.391 OA
ATOM     40  H5  UNL     1      25.336   5.322   3.030  1.00  0.00     0.210 HD
ENDBRANCH   3  39
TORSDOF 12
ENDMDL