MODEL 4
REMARK VINA RESULT: -7.033010677      2.070      9.895
REMARK  11 active torsions:
REMARK  status: ('A' for Active; 'I' for Inactive)
REMARK    1  A    between atoms: C1_4  and  C2_6
REMARK    2  A    between atoms: C4_8  and  C5_9
REMARK    3  A    between atoms: C6_10  and  C7_11
REMARK    4  A    between atoms: C7_11  and  O1_12
REMARK       I    between atoms: N3_14  and  C8_15
REMARK    5  A    between atoms: C8_15  and  C9_17
REMARK    6  A    between atoms: C9_17  and  O3_18
REMARK    7  A    between atoms: C9_17  and  N4_20
REMARK    8  A    between atoms: N4_20  and  O4_21
REMARK    9  A    between atoms: O4_21  and  C10_22
REMARK       I    between atoms: C10_22  and  N5_24
REMARK   10  A    between atoms: N5_24  and  C11_26
REMARK   11  A    between atoms: C13_33  and  N9_34
ROOT
HETATM    1  C5  UNL     1      22.409   0.904   1.511  1.00  0.00     0.122 C
HETATM    2  C6  UNL     1      23.350   0.958   2.424  1.00  0.00     0.074 C
HETATM    3  N3  UNL     1      23.379   1.998   3.404  1.00  0.00    -0.311 N
HETATM    4  C8  UNL     1      24.465   2.358   4.178  1.00  0.00     0.271 C
HETATM    5  O2  UNL     1      25.566   1.757   4.095  1.00  0.00    -0.268 OA
HETATM    6  C14 UNL     1      22.087   2.690   3.553  1.00  0.00     0.159 C
HETATM    7  C15 UNL     1      21.643   3.101   2.144  1.00  0.00     0.196 C
HETATM    8  O6  UNL     1      21.431   1.892   1.457  1.00  0.00    -0.345 OA
ENDROOT
BRANCH   4   9
HETATM    9  C9  UNL     1      24.451   3.469   5.174  1.00  0.00     0.332 C
BRANCH   9  10
HETATM   10  O3  UNL     1      25.046   3.040   6.354  1.00  0.00    -0.369 OA
ATOM     11  H3  UNL     1      25.890   3.464   6.455  1.00  0.00     0.212 HD
ENDBRANCH   9  10
BRANCH   9  12
HETATM   12  N4  UNL     1      25.140   4.647   4.676  1.00  0.00    -0.048 NA
BRANCH  12  13
HETATM   13  O4  UNL     1      26.277   4.913   5.361  1.00  0.00    -0.186 OA
BRANCH  13  14
HETATM   14  C10 UNL     1      27.513   4.872   4.709  1.00  0.00     0.380 C
HETATM   15  O5  UNL     1      27.484   4.659   3.469  1.00  0.00    -0.237 OA
HETATM   16  N5  UNL     1      28.737   5.055   5.370  1.00  0.00    -0.311 N
ATOM     17  H5  UNL     1      28.757   5.228   6.375  1.00  0.00     0.167 HD
BRANCH  16  18
HETATM   18  C11 UNL     1      29.968   4.997   4.616  1.00  0.00     0.238 C
HETATM   19  N6  UNL     1      30.312   3.585   4.407  1.00  0.00    -0.340 N
HETATM   20  C12 UNL     1      31.732   3.486   4.489  1.00  0.00     0.187 C
ATOM     21  H6  UNL     1      29.659   2.821   4.236  1.00  0.00     0.164 HD
HETATM   22  N7  UNL     1      32.431   2.338   3.991  1.00  0.00    -0.064 NA
HETATM   23  N8  UNL     1      32.188   4.534   5.042  1.00  0.00    -0.334 N
HETATM   24  C13 UNL     1      31.165   5.479   5.410  1.00  0.00     0.326 C
ATOM     25  H8  UNL     1      33.181   4.691   5.210  1.00  0.00     0.164 HD
BRANCH  24  26
HETATM   26  N9  UNL     1      31.458   6.834   5.006  1.00  0.00    -0.054 N
ATOM     27  H93 UNL     1      31.222   7.013   4.030  1.00  0.00     0.276 HD
ATOM     28  H92 UNL     1      30.827   7.516   5.429  1.00  0.00     0.276 HD
ATOM     29  H91 UNL     1      32.438   7.023   5.215  1.00  0.00     0.276 HD
ENDBRANCH  24  26
ENDBRANCH  16  18
ENDBRANCH  13  14
ENDBRANCH  12  13
ENDBRANCH   9  12
ENDBRANCH   4   9
BRANCH   2  30
HETATM   30  C7  UNL     1      24.375  -0.079   2.468  1.00  0.00     0.224 C
BRANCH  30  31
HETATM   31  O1  UNL     1      24.238  -1.016   3.461  1.00  0.00    -0.395 OA
ATOM     32  H1  UNL     1      24.639  -0.798   4.294  1.00  0.00     0.209 HD
ENDBRANCH  30  31
ENDBRANCH   2  30
BRANCH   1  33
HETATM   33  C4  UNL     1      22.284  -0.135   0.504  1.00  0.00     0.093 A
HETATM   34  C3  UNL     1      22.754  -0.127  -0.800  1.00  0.00     0.077 A
HETATM   35  C2  UNL     1      22.345  -1.298  -1.392  1.00  0.00     0.141 A
HETATM   36  O7  UNL     1      21.669  -1.964  -0.488  1.00  0.00    -0.234 OA
HETATM   37  N10 UNL     1      21.623  -1.299   0.623  1.00  0.00    -0.258 N
ATOM     38  H10 UNL     1      21.151  -1.615   1.470  1.00  0.00     0.195 HD
BRANCH  35  39
HETATM   39  C1  UNL     1      22.584  -1.766  -2.755  1.00  0.00     0.146 C
HETATM   40  N1  UNL     1      22.284  -1.003  -3.738  1.00  0.00    -0.385 N
ATOM     41  H12 UNL     1      22.450  -1.330  -4.689  1.00  0.00     0.157 HD
ATOM     42  H11 UNL     1      21.883  -0.082  -3.561  1.00  0.00     0.157 HD
HETATM   43  N2  UNL     1      23.143  -3.047  -3.003  1.00  0.00    -0.080 NA
ENDBRANCH  35  39
ENDBRANCH   1  33
TORSDOF 11
ENDMDL