MODEL 1
REMARK VINA RESULT: -5.927643694      0.000      0.000
REMARK  7 active torsions:
REMARK  status: ('A' for Active; 'I' for Inactive)
REMARK    1  A    between atoms: C2_2  and  C3_3
REMARK    2  A    between atoms: C6_6  and  O1_7
REMARK    3  A    between atoms: C7_9  and  C8_10
REMARK       I    between atoms: C8_10  and  N1_12
REMARK    4  A    between atoms: N1_12  and  C9_14
REMARK    5  A    between atoms: N2_16  and  C11_17
REMARK    6  A    between atoms: C12_20  and  O3_21
REMARK    7  A    between atoms: C12_20  and  C13_23
ROOT
HETATM    1  C3  UNL     1     104.413  19.974  14.512  1.00  0.00     0.037 C
HETATM    2  C4  UNL     1     104.752  19.418  13.135  1.00  0.00     0.025 C
HETATM    3  C5  UNL     1     105.530  19.790  15.473  1.00  0.00     0.057 C
HETATM    4  C6  UNL     1     105.600  18.423  16.144  1.00  0.00     0.175 C
HETATM    5  C7  UNL     1     104.240  18.233  16.764  1.00  0.00     0.113 C
HETATM    6  N2  UNL     1     103.338  18.123  15.613  1.00  0.00    -0.279 N
HETATM    7  C12 UNL     1     103.100  19.437  15.012  1.00  0.00     0.242 C
ENDROOT
BRANCH   5   8
HETATM    8  C8  UNL     1     104.086  17.405  17.899  1.00  0.00     0.267 C
HETATM    9  O2  UNL     1     103.265  17.742  18.820  1.00  0.00    -0.266 OA
HETATM   10  N1  UNL     1     104.776  16.193  18.101  1.00  0.00    -0.356 N
ATOM     11  H1  UNL     1     105.444  15.913  17.382  1.00  0.00     0.162 HD
BRANCH  10  12
HETATM   12  C9  UNL     1     104.625  15.325  19.218  1.00  0.00     0.118 C
HETATM   13  C10 UNL     1     103.395  14.463  19.192  1.00  0.00     0.026 C
ENDBRANCH  10  12
ENDBRANCH   5   8
BRANCH   4  14
HETATM   14  O1  UNL     1     106.594  18.489  17.105  1.00  0.00    -0.389 OA
ATOM     15  H1  UNL     1     107.260  17.855  16.866  1.00  0.00     0.210 HD
ENDBRANCH   4  14
BRANCH   6  16
HETATM   16  C11 UNL     1     102.891  16.898  15.123  1.00  0.00     0.190 C
HETATM   17  N3  UNL     1     103.618  16.138  14.176  1.00  0.00    -0.070 NA
HETATM   18  S1  UNL     1     101.519  16.155  15.661  1.00  0.00    -0.044 SA
ENDBRANCH   6  16
BRANCH   7  19
HETATM   19  O3  UNL     1     102.725  20.231  16.137  1.00  0.00    -0.361 OA
ATOM     20  H3  UNL     1     102.044  19.756  16.597  1.00  0.00     0.213 HD
ENDBRANCH   7  19
BRANCH   7  21
HETATM   21  C13 UNL     1     102.030  19.540  14.036  1.00  0.00     0.233 C
HETATM   22  O4  UNL     1     102.157  19.438  12.801  1.00  0.00    -0.644 OA
HETATM   23  O5  UNL     1     100.708  19.773  14.469  1.00  0.00    -0.644 OA
ENDBRANCH   7  21
BRANCH   1  24
HETATM   24  C2  UNL     1     104.272  21.461  14.318  1.00  0.00    -0.022 C
HETATM   25  C1  UNL     1     105.343  22.140  13.966  1.00  0.00     0.008 C
ENDBRANCH   1  24
TORSDOF 7
ENDMDL