MODEL 1
REMARK VINA RESULT: -6.962628942      0.000      0.000
REMARK  6 active torsions:
REMARK  status: ('A' for Active; 'I' for Inactive)
REMARK    1  A    between atoms: C4_5  and  C5_6
REMARK    2  A    between atoms: C5_6  and  N2_7
REMARK       I    between atoms: N2_7  and  C6_9
REMARK       I    between atoms: C6_9  and  N3_11
REMARK    3  A    between atoms: N3_11  and  C7_13
REMARK    4  A    between atoms: C8_15  and  C9_16
REMARK    5  A    between atoms: C10_19  and  O4_20
REMARK    6  A    between atoms: C11_22  and  O5_23
ROOT
HETATM    1  N2  UNL     1     105.621  17.947  17.600  1.00  0.00    -0.339 N
ATOM      2  H2  UNL     1     104.959  17.328  18.069  1.00  0.00     0.164 HD
HETATM    3  C6  UNL     1     105.202  18.697  16.468  1.00  0.00     0.317 C
HETATM    4  O1  UNL     1     105.998  19.473  15.871  1.00  0.00    -0.247 OA
HETATM    5  N3  UNL     1     103.864  18.552  16.021  1.00  0.00    -0.327 N
ATOM      6  H3  UNL     1     103.223  17.923  16.503  1.00  0.00     0.165 HD
ENDROOT
BRANCH   5   7
HETATM    7  C7  UNL     1     103.422  19.313  14.868  1.00  0.00     0.180 C
HETATM    8  S1  UNL     1     102.783  20.900  15.489  1.00  0.00    -0.123 SA
HETATM    9  C8  UNL     1     101.164  20.899  14.612  1.00  0.00     0.181 C
HETATM   10  C10 UNL     1     101.518  19.901  13.500  1.00  0.00     0.173 C
HETATM   11  C11 UNL     1     102.132  18.727  14.277  1.00  0.00     0.181 C
BRANCH   9  12
HETATM   12  C9  UNL     1     100.907  22.240  14.084  1.00  0.00     0.190 C
HETATM   13  O2  UNL     1     100.318  22.402  13.000  1.00  0.00    -0.647 OA
HETATM   14  O3  UNL     1     101.341  23.328  14.833  1.00  0.00    -0.647 OA
ENDBRANCH   9  12
BRANCH  10  15
HETATM   15  O4  UNL     1     100.342  19.498  12.923  1.00  0.00    -0.391 OA
ATOM     16  H4  UNL     1     100.559  18.860  12.253  1.00  0.00     0.210 HD
ENDBRANCH  10  15
BRANCH  11  17
HETATM   17  O5  UNL     1     101.251  18.431  15.298  1.00  0.00    -0.390 OA
ATOM     18  H5  UNL     1     100.889  17.563  15.161  1.00  0.00     0.210 HD
ENDBRANCH  11  17
ENDBRANCH   5   7
BRANCH   1  19
HETATM   19  C5  UNL     1     106.963  18.051  18.092  1.00  0.00     0.163 C
BRANCH  19  20
HETATM   20  C4  UNL     1     106.943  17.923  19.567  1.00  0.00    -0.038 A
HETATM   21  C3  UNL     1     108.083  18.315  20.246  1.00  0.00     0.026 A
HETATM   22  C2  UNL     1     108.083  18.199  21.617  1.00  0.00     0.090 A
HETATM   23  N1  UNL     1     107.033  17.728  22.288  1.00  0.00    -0.371 N
HETATM   24  C1  UNL     1     107.126  17.641  23.727  1.00  0.00     0.154 C
HETATM   25  C13 UNL     1     105.924  17.346  21.631  1.00  0.00     0.090 A
HETATM   26  C12 UNL     1     105.855  17.437  20.247  1.00  0.00     0.026 A
ENDBRANCH  19  20
ENDBRANCH   1  19
TORSDOF 6
ENDMDL