MODEL 2
REMARK VINA RESULT: -7.979630728      0.819      1.297
REMARK  7 active torsions:
REMARK  status: ('A' for Active; 'I' for Inactive)
REMARK    1  A    between atoms: C2_2  and  N7_27
REMARK    2  A    between atoms: N1_3  and  N2_5
REMARK       I    between atoms: N2_5  and  C3_6
REMARK       I    between atoms: C3_6  and  N3_8
REMARK       I    between atoms: N4_10  and  C4_12
REMARK    3  A    between atoms: C4_12  and  C5_14
REMARK    4  A    between atoms: C5_14  and  N5_15
REMARK    5  A    between atoms: C5_14  and  C7_21
REMARK    6  A    between atoms: N5_15  and  C6_17
REMARK    7  A    between atoms: C6_17  and  O3_19
ROOT
HETATM    1  N2  UNL     1     106.835  17.944  12.161  1.00  0.00    -0.262 NA
HETATM    2  C3  UNL     1     105.744  17.374  12.762  1.00  0.00     0.431 C
HETATM    3  O1  UNL     1     104.799  16.875  13.172  1.00  0.00    -0.227 OA
HETATM    4  N3  UNL     1     106.338  17.895  14.301  1.00  0.00    -0.235 N
ATOM      5  H3  UNL     1     107.212  18.417  14.365  1.00  0.00     0.193 HD
HETATM    6  N4  UNL     1     105.683  17.626  15.343  1.00  0.00    -0.263 N
ATOM      7  H4  UNL     1     105.765  16.668  15.683  1.00  0.00     0.190 HD
HETATM    8  C4  UNL     1     104.837  18.487  16.114  1.00  0.00     0.263 C
HETATM    9  O2  UNL     1     104.609  19.689  15.860  1.00  0.00    -0.269 OA
ENDROOT
BRANCH   8  10
HETATM   10  C5  UNL     1     104.230  17.766  17.297  1.00  0.00     0.212 C
BRANCH  10  11
HETATM   11  N5  UNL     1     103.728  16.553  16.839  1.00  0.00    -0.342 N
ATOM     12  H5  UNL     1     104.421  15.976  16.363  1.00  0.00     0.163 HD
BRANCH  11  13
HETATM   13  C6  UNL     1     102.436  15.959  16.904  1.00  0.00     0.226 C
HETATM   14  N6  UNL     1     101.543  16.131  17.990  1.00  0.00    -0.057 NA
BRANCH  13  15
HETATM   15  O3  UNL     1     102.002  15.203  15.931  1.00  0.00    -0.335 OA
ATOM     16  H3  UNL     1     102.081  15.485  15.028  1.00  0.00     0.220 HD
ENDBRANCH  13  15
ENDBRANCH  11  13
ENDBRANCH  10  11
BRANCH  10  17
HETATM   17  C7  UNL     1     105.167  17.772  18.441  1.00  0.00    -0.026 A
HETATM   18  C8  UNL     1     104.798  17.325  19.696  1.00  0.00     0.010 A
HETATM   19  C9  UNL     1     105.680  17.274  20.734  1.00  0.00     0.001 A
HETATM   20  C10 UNL     1     106.999  17.667  20.584  1.00  0.00     0.000 A
HETATM   21  C11 UNL     1     107.418  18.146  19.334  1.00  0.00     0.001 A
HETATM   22  C12 UNL     1     106.492  18.174  18.314  1.00  0.00     0.010 A
ENDBRANCH  10  17
ENDBRANCH   8  10
BRANCH   1  23
HETATM   23  N1  UNL     1     107.806  18.448  11.577  1.00  0.00    -0.219 N
HETATM   24  C2  UNL     1     108.346  18.680  10.535  1.00  0.00     0.101 C
HETATM   25  C1  UNL     1     107.958  18.370   9.185  1.00  0.00     0.091 C
ATOM     26  H1  UNL     1     108.409  18.836  12.304  1.00  0.00     0.203 HD
BRANCH  24  27
HETATM   27  N7  UNL     1     109.825  18.979  10.861  1.00  0.00    -0.378 N
HETATM   28  C13 UNL     1     110.155  19.371  12.179  1.00  0.00     0.150 C
HETATM   29  C14 UNL     1     110.708  18.669   9.770  1.00  0.00     0.150 C
ENDBRANCH  24  27
ENDBRANCH   1  23
TORSDOF 7
ENDMDL