MODEL 5
REMARK VINA RESULT: -6.090301381      2.070      3.078
REMARK  7 active torsions:
REMARK  status: ('A' for Active; 'I' for Inactive)
REMARK       I    between atoms: N1_2  and  C2_4
REMARK    1  A    between atoms: C2_4  and  C3_6
REMARK    2  A    between atoms: N2_7  and  C4_8
REMARK    3  A    between atoms: C4_8  and  N3_10
REMARK    4  A    between atoms: N3_10  and  C5_12
REMARK    5  A    between atoms: C5_12  and  C6_13
REMARK    6  A    between atoms: C5_12  and  C8_17
REMARK    7  A    between atoms: C6_13  and  C7_14
ROOT
HETATM    1  C4  UNL     1     103.213  16.894  15.952  1.00  0.00     0.187 C
HETATM    2  S1  UNL     1     102.089  15.827  15.336  1.00  0.00    -0.040 SA
ENDROOT
BRANCH   1   3
HETATM    3  N2  UNL     1     103.207  18.237  15.503  1.00  0.00    -0.254 N
HETATM    4  C3  UNL     1     103.628  18.861  14.251  1.00  0.00     0.224 C
HETATM    5  C9  UNL     1     103.063  20.158  14.701  1.00  0.00     0.074 C
HETATM    6  N4  UNL     1     102.866  19.491  15.974  1.00  0.00    -0.123 NA
HETATM    7  C10 UNL     1     101.793  20.615  14.030  1.00  0.00     0.038 C
HETATM    8  C11 UNL     1     104.028  21.309  14.826  1.00  0.00     0.038 C
BRANCH   4   9
HETATM    9  C2  UNL     1     105.093  18.787  14.020  1.00  0.00     0.243 C
HETATM   10  N1  UNL     1     106.011  18.876  15.092  1.00  0.00    -0.364 N
HETATM   11  C1  UNL     1     107.426  18.798  14.790  1.00  0.00     0.149 C
ATOM     12  H1  UNL     1     105.687  18.992  16.052  1.00  0.00     0.161 HD
HETATM   13  O1  UNL     1     105.541  18.641  12.852  1.00  0.00    -0.271 OA
ENDBRANCH   4   9
ENDBRANCH   1   3
BRANCH   1  14
HETATM   14  N3  UNL     1     104.097  16.347  16.895  1.00  0.00    -0.351 N
ATOM     15  H3  UNL     1     104.911  15.835  16.556  1.00  0.00     0.163 HD
BRANCH  14  16
HETATM   16  C5  UNL     1     103.906  16.476  18.367  1.00  0.00     0.195 C
BRANCH  16  17
HETATM   17  C6  UNL     1     105.236  16.448  19.030  1.00  0.00     0.149 C
BRANCH  17  18
HETATM   18  C7  UNL     1     106.113  17.591  18.785  1.00  0.00     0.175 C
HETATM   19  O2  UNL     1     105.958  18.525  17.972  1.00  0.00    -0.648 OA
HETATM   20  O3  UNL     1     107.324  17.716  19.542  1.00  0.00    -0.648 OA
ENDBRANCH  17  18
ENDBRANCH  16  17
BRANCH  16  21
HETATM   21  C8  UNL     1     103.107  15.306  18.815  1.00  0.00     0.197 C
HETATM   22  O4  UNL     1     103.761  14.301  19.281  1.00  0.00    -0.646 OA
HETATM   23  O5  UNL     1     101.767  15.231  18.761  1.00  0.00    -0.646 OA
ENDBRANCH  16  21
ENDBRANCH  14  16
ENDBRANCH   1  14
TORSDOF 7
ENDMDL