MODEL 4
REMARK VINA RESULT: -6.415047889      4.077      7.429
REMARK  6 active torsions:
REMARK  status: ('A' for Active; 'I' for Inactive)
REMARK    1  A    between atoms: S1_2  and  N1_5
REMARK    2  A    between atoms: N1_5  and  C2_7
REMARK    3  A    between atoms: C3_8  and  O3_9
REMARK    4  A    between atoms: C6_13  and  N2_14
REMARK       I    between atoms: N2_14  and  C7_16
REMARK       I    between atoms: C7_16  and  N3_18
REMARK    5  A    between atoms: N3_18  and  C8_20
REMARK    6  A    between atoms: C13_25  and  O5_26
ROOT
HETATM    1  N2  UNL     1     106.090  17.703  14.099  1.00  0.00    -0.336 N
ATOM      2  H2  UNL     1     106.045  16.690  13.981  1.00  0.00     0.164 HD
HETATM    3  C7  UNL     1     106.908  18.483  13.243  1.00  0.00     0.316 C
HETATM    4  O4  UNL     1     106.944  19.720  13.410  1.00  0.00    -0.247 OA
HETATM    5  N3  UNL     1     107.684  17.907  12.210  1.00  0.00    -0.336 N
ATOM      6  H3  UNL     1     107.668  16.898  12.059  1.00  0.00     0.164 HD
ENDROOT
BRANCH   1   7
HETATM    7  C6  UNL     1     105.328  18.340  15.126  1.00  0.00     0.112 C
HETATM    8  C2  UNL     1     104.708  17.374  16.108  1.00  0.00     0.144 C
HETATM    9  C3  UNL     1     103.366  17.005  15.527  1.00  0.00     0.143 C
HETATM   10  C4  UNL     1     103.056  18.019  14.465  1.00  0.00     0.036 C
HETATM   11  C5  UNL     1     104.142  19.042  14.543  1.00  0.00     0.030 C
BRANCH   8  12
HETATM   12  N1  UNL     1     104.553  18.060  17.360  1.00  0.00    -0.310 N
ATOM     13  H1  UNL     1     104.061  18.949  17.458  1.00  0.00     0.172 HD
BRANCH  12  14
HETATM   14  S1  UNL     1     105.281  17.229  18.681  1.00  0.00     0.223 S
HETATM   15  C1  UNL     1     106.928  17.781  18.949  1.00  0.00     0.185 C
HETATM   16  O1  UNL     1     105.269  15.746  18.487  1.00  0.00    -0.206 OA
HETATM   17  O2  UNL     1     104.464  17.529  19.904  1.00  0.00    -0.206 OA
ENDBRANCH  12  14
ENDBRANCH   8  12
BRANCH   9  18
HETATM   18  O3  UNL     1     103.451  15.706  14.993  1.00  0.00    -0.393 OA
ATOM     19  H3  UNL     1     102.797  15.616  14.311  1.00  0.00     0.210 HD
ENDBRANCH   9  18
ENDBRANCH   1   7
BRANCH   5  20
HETATM   20  C8  UNL     1     108.487  18.742  11.382  1.00  0.00     0.115 C
HETATM   21  C9  UNL     1     107.876  18.916   9.974  1.00  0.00     0.033 C
HETATM   22  C10 UNL     1     109.134  19.004   9.205  1.00  0.00    -0.006 A
HETATM   23  C11 UNL     1     109.910  18.105   8.462  1.00  0.00     0.012 A
HETATM   24  C12 UNL     1     109.667  17.617   9.755  1.00  0.00     0.021 A
HETATM   25  C13 UNL     1     109.880  18.129  11.123  1.00  0.00     0.145 C
BRANCH  25  26
HETATM   26  O5  UNL     1     110.029  17.055  12.005  1.00  0.00    -0.393 OA
ATOM     27  H5  UNL     1     110.960  16.883  12.082  1.00  0.00     0.210 HD
ENDBRANCH  25  26
ENDBRANCH   5  20
TORSDOF 6
ENDMDL