MODEL 2
REMARK VINA RESULT: -7.307063741      4.773      7.073
REMARK  5 active torsions:
REMARK  status: ('A' for Active; 'I' for Inactive)
REMARK       I    between atoms: N1_2  and  C2_4
REMARK       I    between atoms: C2_4  and  N2_6
REMARK    1  A    between atoms: N2_6  and  C3_8
REMARK    2  A    between atoms: C5_10  and  C6_11
REMARK       I    between atoms: N3_14  and  C7_15
REMARK    3  A    between atoms: C7_15  and  C8_17
REMARK    4  A    between atoms: C8_17  and  N4_18
REMARK       I    between atoms: N4_18  and  C9_20
REMARK       I    between atoms: C9_20  and  N5_22
REMARK    5  A    between atoms: N5_22  and  C10_24
ROOT
HETATM    1  C3  UNL     1     105.135  17.442  17.407  1.00  0.00     0.106 C
HETATM    2  C4  UNL     1     104.437  16.573  16.387  1.00  0.00     0.063 C
HETATM    3  C5  UNL     1     104.210  17.511  15.152  1.00  0.00     0.190 C
HETATM    4  N3  UNL     1     105.121  18.569  15.415  1.00  0.00    -0.334 N
HETATM    5  C7  UNL     1     106.085  19.355  14.799  1.00  0.00     0.238 C
HETATM    6  O4  UNL     1     106.651  20.258  15.536  1.00  0.00    -0.272 OA
HETATM    7  C14 UNL     1     104.791  18.814  16.890  1.00  0.00     0.152 C
ENDROOT
BRANCH   3   8
HETATM    8  C6  UNL     1     104.276  16.675  14.002  1.00  0.00     0.197 C
HETATM    9  O2  UNL     1     104.979  16.800  13.014  1.00  0.00    -0.646 OA
HETATM   10  O3  UNL     1     103.416  15.539  13.985  1.00  0.00    -0.646 OA
ENDBRANCH   3   8
BRANCH   5  11
HETATM   11  C8  UNL     1     106.576  19.329  13.419  1.00  0.00     0.227 C
BRANCH  11  12
HETATM   12  N4  UNL     1     107.738  18.437  13.239  1.00  0.00    -0.334 N
HETATM   13  C9  UNL     1     108.966  18.938  12.758  1.00  0.00     0.317 C
HETATM   14  O5  UNL     1     109.090  20.142  12.459  1.00  0.00    -0.247 OA
HETATM   15  N5  UNL     1     110.068  18.071  12.613  1.00  0.00    -0.335 N
ATOM     16  H5  UNL     1     109.965  17.086  12.860  1.00  0.00     0.165 HD
ATOM     17  H4  UNL     1     107.653  17.446  13.466  1.00  0.00     0.164 HD
BRANCH  15  18
HETATM   18  C10 UNL     1     111.343  18.550  12.122  1.00  0.00     0.023 C
HETATM   19  C11 UNL     1     111.723  19.867  12.777  1.00  0.00     0.037 C
HETATM   20  C12 UNL     1     111.326  18.753  10.638  1.00  0.00     0.037 C
HETATM   21  C13 UNL     1     112.442  17.567  12.444  1.00  0.00     0.037 C
ENDBRANCH  15  18
ENDBRANCH  11  12
ENDBRANCH   5  11
BRANCH   1  22
HETATM   22  N2  UNL     1     104.685  17.208  18.738  1.00  0.00    -0.337 N
HETATM   23  C2  UNL     1     105.559  17.393  19.837  1.00  0.00     0.316 C
HETATM   24  N1  UNL     1     105.153  17.171  21.178  1.00  0.00    -0.347 N
HETATM   25  O1  UNL     1     106.729  17.765  19.616  1.00  0.00    -0.247 OA
HETATM   26  C1  UNL     1     106.075  17.372  22.275  1.00  0.00     0.151 C
ATOM     27  H1  UNL     1     104.199  16.867  21.371  1.00  0.00     0.163 HD
ATOM     28  H2  UNL     1     103.725  16.904  18.901  1.00  0.00     0.164 HD
ENDBRANCH   1  22
TORSDOF 5
ENDMDL