MODEL 3
REMARK VINA RESULT: -6.957866370      1.796      2.373
REMARK  6 active torsions:
REMARK  status: ('A' for Active; 'I' for Inactive)
REMARK       I    between atoms: C2_2  and  N1_4
REMARK    1  A    between atoms: C4_6  and  C5_7
REMARK       I    between atoms: C5_7  and  N2_9
REMARK    2  A    between atoms: N2_9  and  N3_11
REMARK       I    between atoms: N3_11  and  C6_13
REMARK       I    between atoms: C6_13  and  N4_15
REMARK    3  A    between atoms: N4_15  and  C7_17
REMARK    4  A    between atoms: C7_17  and  C10_20
REMARK    5  A    between atoms: C10_20  and  O4_21
REMARK    6  A    between atoms: C12_24  and  C13_25
ROOT
HETATM    1  C5  UNL     1     105.646  17.809  13.670  1.00  0.00     0.241 C
HETATM    2  O2  UNL     1     105.266  16.919  12.863  1.00  0.00    -0.271 OA
HETATM    3  N2  UNL     1     106.960  18.389  13.531  1.00  0.00    -0.266 N
ATOM      4  H2  UNL     1     107.261  19.109  14.187  1.00  0.00     0.190 HD
ENDROOT
BRANCH   3   5
HETATM    5  N3  UNL     1     107.821  17.983  12.518  1.00  0.00    -0.249 N
HETATM    6  C6  UNL     1     109.124  18.491  12.439  1.00  0.00     0.335 C
HETATM    7  O3  UNL     1     109.526  19.315  13.276  1.00  0.00    -0.246 OA
HETATM    8  N4  UNL     1     109.999  18.069  11.401  1.00  0.00    -0.331 N
ATOM      9  H4  UNL     1     109.645  17.393  10.724  1.00  0.00     0.165 HD
ATOM     10  H3  UNL     1     107.500  17.307  11.824  1.00  0.00     0.192 HD
BRANCH   8  11
HETATM   11  C7  UNL     1     111.347  18.534  11.245  1.00  0.00     0.048 C
HETATM   12  C8  UNL     1     111.436  20.039  11.099  1.00  0.00     0.040 C
HETATM   13  C9  UNL     1     111.901  17.934   9.949  1.00  0.00     0.040 C
BRANCH  11  14
HETATM   14  C10 UNL     1     112.176  18.028  12.383  1.00  0.00     0.194 C
BRANCH  14  15
HETATM   15  O4  UNL     1     112.528  16.689  12.244  1.00  0.00    -0.398 OA
ATOM     16  H4  UNL     1     112.676  16.256  13.076  1.00  0.00     0.209 HD
ENDBRANCH  14  15
ENDBRANCH  11  14
ENDBRANCH   8  11
ENDBRANCH   3   5
BRANCH   1  17
HETATM   17  C4  UNL     1     104.736  18.247  14.752  1.00  0.00     0.100 C
HETATM   18  C3  UNL     1     105.070  17.502  16.020  1.00  0.00     0.141 C
HETATM   19  N1  UNL     1     103.856  17.437  16.789  1.00  0.00    -0.337 N
HETATM   20  C2  UNL     1     103.773  17.239  18.179  1.00  0.00     0.216 C
HETATM   21  C12 UNL     1     102.724  17.607  15.909  1.00  0.00     0.189 C
HETATM   22  C1  UNL     1     105.022  17.077  18.962  1.00  0.00     0.117 C
HETATM   23  O1  UNL     1     102.655  17.194  18.787  1.00  0.00    -0.274 OA
HETATM   24  C11 UNL     1     103.296  17.841  14.526  1.00  0.00     0.052 C
BRANCH  21  25
HETATM   25  C13 UNL     1     101.810  16.447  15.929  1.00  0.00     0.197 C
HETATM   26  O5  UNL     1     102.177  15.379  15.385  1.00  0.00    -0.646 OA
HETATM   27  O6  UNL     1     100.551  16.454  16.517  1.00  0.00    -0.646 OA
ENDBRANCH  21  25
ENDBRANCH   1  17
TORSDOF 6
ENDMDL