MODEL 5
REMARK VINA RESULT: -5.991681637      8.932     10.977
REMARK  5 active torsions:
REMARK  status: ('A' for Active; 'I' for Inactive)
REMARK    1  A    between atoms: C2_2  and  N1_5
REMARK       I    between atoms: N1_5  and  C5_7
REMARK    2  A    between atoms: C5_7  and  C6_9
REMARK    3  A    between atoms: N2_10  and  C7_11
REMARK    4  A    between atoms: C7_11  and  C8_12
REMARK    5  A    between atoms: C7_11  and  C9_17
ROOT
HETATM    1  C6  UNL     1     111.034  21.031  11.721  1.00  0.00     0.212 C
HETATM    2  N2  UNL     1     112.396  20.475  11.716  1.00  0.00    -0.301 N
HETATM    3  C10 UNL     1     112.878  20.860  10.429  1.00  0.00     0.176 C
HETATM    4  S1  UNL     1     113.871  20.051   9.416  1.00  0.00    -0.041 SA
HETATM    5  N6  UNL     1     112.282  22.154  10.160  1.00  0.00    -0.356 N
ATOM      6  H6  UNL     1     112.435  22.735   9.337  1.00  0.00     0.162 HD
HETATM    7  C11 UNL     1     111.425  22.461  11.287  1.00  0.00     0.054 C
HETATM    8  C12 UNL     1     112.164  23.062  12.455  1.00  0.00     0.041 C
HETATM    9  C13 UNL     1     110.255  23.312  10.963  1.00  0.00     0.041 C
ENDROOT
BRANCH   2  10
HETATM   10  C7  UNL     1     113.096  19.747  12.707  1.00  0.00     0.144 C
BRANCH  10  11
HETATM   11  C8  UNL     1     113.150  18.301  12.633  1.00  0.00     0.142 C
HETATM   12  N3  UNL     1     114.218  17.617  12.659  1.00  0.00    -0.386 N
ATOM     13  H32 UNL     1     115.087  18.143  12.744  1.00  0.00     0.157 HD
ATOM     14  H31 UNL     1     114.256  16.600  12.607  1.00  0.00     0.157 HD
HETATM   15  N4  UNL     1     111.938  17.567  12.515  1.00  0.00    -0.081 NA
ENDBRANCH  10  11
BRANCH  10  16
HETATM   16  C9  UNL     1     114.368  20.389  13.098  1.00  0.00     0.285 C
HETATM   17  N5  UNL     1     114.389  21.274  14.221  1.00  0.00    -0.056 NA
HETATM   18  O2  UNL     1     115.462  20.223  12.516  1.00  0.00    -0.269 OA
ENDBRANCH  10  16
ENDBRANCH   2  10
BRANCH   1  19
HETATM   19  C5  UNL     1     110.239  20.385  10.688  1.00  0.00     0.244 C
HETATM   20  N1  UNL     1     110.287  18.995  10.395  1.00  0.00    -0.351 N
ATOM     21  H1  UNL     1     110.919  18.408  10.941  1.00  0.00     0.163 HD
HETATM   22  O1  UNL     1     109.448  21.052   9.985  1.00  0.00    -0.271 OA
BRANCH  20  23
HETATM   23  C2  UNL     1     109.494  18.371   9.370  1.00  0.00     0.022 C
HETATM   24  C1  UNL     1     109.837  16.891   9.239  1.00  0.00     0.037 C
HETATM   25  C3  UNL     1     109.725  19.013   8.009  1.00  0.00     0.037 C
HETATM   26  C4  UNL     1     108.017  18.435   9.654  1.00  0.00     0.037 C
ENDBRANCH  20  23
ENDBRANCH   1  19
TORSDOF 5
ENDMDL