MODEL 2
REMARK VINA RESULT: -6.429682177      4.110      7.347
REMARK  8 active torsions:
REMARK  status: ('A' for Active; 'I' for Inactive)
REMARK    1  A    between atoms: N1_2  and  C2_4
REMARK    2  A    between atoms: C2_4  and  C8_13
REMARK       I    between atoms: N2_5  and  C3_7
REMARK    3  A    between atoms: C3_7  and  C4_9
REMARK    4  A    between atoms: C8_13  and  N3_15
REMARK       I    between atoms: N3_15  and  C10_17
REMARK    5  A    between atoms: C10_17  and  C11_19
REMARK    6  A    between atoms: C13_21  and  O3_22
REMARK    7  A    between atoms: C14_24  and  O4_25
REMARK    8  A    between atoms: C15_27  and  O5_28
ROOT
HETATM    1  N3  UNL     1     102.079  18.585  15.380  1.00  0.00    -0.350 N
ATOM      2  H3  UNL     1     101.607  18.905  16.226  1.00  0.00     0.163 HD
HETATM    3  C10 UNL     1     102.555  19.521  14.441  1.00  0.00     0.225 C
HETATM    4  O2  UNL     1     103.130  19.117  13.408  1.00  0.00    -0.273 OA
ENDROOT
BRANCH   1   5
HETATM    5  C8  UNL     1     102.262  17.161  15.139  1.00  0.00     0.148 C
HETATM    6  C9  UNL     1     101.004  16.476  15.658  1.00  0.00     0.040 C
BRANCH   5   7
HETATM    7  C2  UNL     1     103.407  16.663  15.935  1.00  0.00     0.102 C
HETATM    8  N2  UNL     1     103.458  16.902  17.202  1.00  0.00    -0.312 N
HETATM    9  C3  UNL     1     104.543  16.438  17.993  1.00  0.00     0.246 C
ATOM     10  H2  UNL     1     102.707  17.432  17.644  1.00  0.00     0.170 HD
HETATM   11  O1  UNL     1     104.402  15.319  18.543  1.00  0.00    -0.268 OA
BRANCH   7  12
HETATM   12  N1  UNL     1     104.451  15.928  15.327  1.00  0.00    -0.382 N
HETATM   13  C1  UNL     1     105.084  16.326  14.084  1.00  0.00     0.147 C
ATOM     14  H1  UNL     1     104.776  15.077  15.785  1.00  0.00     0.160 HD
ENDBRANCH   7  12
BRANCH   9  15
HETATM   15  C4  UNL     1     105.762  17.208  18.169  1.00  0.00     0.076 C
HETATM   16  C5  UNL     1     106.259  17.578  19.313  1.00  0.00    -0.082 C
HETATM   17  C6  UNL     1     105.625  17.255  20.606  1.00  0.00     0.043 C
HETATM   18  C7  UNL     1     107.527  18.372  19.362  1.00  0.00     0.043 C
ENDBRANCH   9  15
ENDBRANCH   5   7
ENDBRANCH   1   5
BRANCH   3  19
HETATM   19  C11 UNL     1     102.381  20.950  14.667  1.00  0.00     0.111 C
HETATM   20  C12 UNL     1     103.252  21.814  13.793  1.00  0.00     0.051 C
HETATM   21  C13 UNL     1     102.443  23.046  13.443  1.00  0.00     0.150 C
HETATM   22  C14 UNL     1     101.226  22.968  14.371  1.00  0.00     0.176 C
HETATM   23  C15 UNL     1     100.997  21.451  14.370  1.00  0.00     0.162 C
BRANCH  21  24
HETATM   24  O3  UNL     1     101.957  22.850  12.147  1.00  0.00    -0.393 OA
ATOM     25  H3  UNL     1     101.878  23.712  11.754  1.00  0.00     0.210 HD
ENDBRANCH  21  24
BRANCH  22  26
HETATM   26  O4  UNL     1     101.606  23.311  15.656  1.00  0.00    -0.390 OA
ATOM     27  H4  UNL     1     102.107  24.118  15.630  1.00  0.00     0.210 HD
ENDBRANCH  22  26
BRANCH  23  28
HETATM   28  O5  UNL     1     100.069  21.076  15.317  1.00  0.00    -0.392 OA
ATOM     29  H5  UNL     1      99.980  21.705  16.023  1.00  0.00     0.210 HD
ENDBRANCH  23  28
ENDBRANCH   3  19
TORSDOF 8
ENDMDL