MODEL 5
REMARK VINA RESULT: -8.251892862      3.358      4.512
REMARK  6 active torsions:
REMARK  status: ('A' for Active; 'I' for Inactive)
REMARK       I    between atoms: C2_4  and  N2_5
REMARK       I    between atoms: C2_4  and  N3_17
REMARK    1  A    between atoms: N2_5  and  C3_7
REMARK    2  A    between atoms: C3_7  and  C4_8
REMARK    3  A    between atoms: C7_11  and  C8_12
REMARK    4  A    between atoms: N3_17  and  N4_19
REMARK       I    between atoms: N4_19  and  C11_21
REMARK    5  A    between atoms: C11_21  and  C12_23
REMARK    6  A    between atoms: C12_23  and  N5_25
REMARK       I    between atoms: N5_25  and  C14_27
ROOT
HETATM    1  C1  UNL     1     102.598  20.150  14.369  1.00  0.00     0.165 C
HETATM    2  N1  UNL     1     103.235  19.176  15.186  1.00  0.00    -0.229 N
ATOM      3  H1  UNL     1     102.652  18.379  15.444  1.00  0.00     0.177 HD
HETATM    4  C2  UNL     1     104.414  19.147  15.642  1.00  0.00     0.688 C
HETATM    5  N2  UNL     1     104.881  18.071  16.455  1.00  0.00    -0.221 N
ATOM      6  H2  UNL     1     105.711  17.580  16.122  1.00  0.00     0.178 HD
HETATM    7  N3  UNL     1     105.349  20.187  15.372  1.00  0.00    -0.130 N
ATOM      8  H3  UNL     1     105.478  20.914  16.076  1.00  0.00     0.205 HD
ENDROOT
BRANCH   5   9
HETATM    9  C3  UNL     1     104.325  17.609  17.667  1.00  0.00     0.176 C
BRANCH   9  10
HETATM   10  C4  UNL     1     105.331  17.665  18.747  1.00  0.00    -0.040 A
HETATM   11  C5  UNL     1     106.622  18.094  18.453  1.00  0.00     0.010 A
HETATM   12  C6  UNL     1     107.614  18.166  19.405  1.00  0.00     0.019 A
HETATM   13  C7  UNL     1     107.307  17.792  20.710  1.00  0.00     0.040 A
HETATM   14  C9  UNL     1     106.041  17.364  21.031  1.00  0.00     0.019 A
HETATM   15  C10 UNL     1     105.083  17.312  20.034  1.00  0.00     0.010 A
BRANCH  13  16
HETATM   16  C8  UNL     1     108.326  17.841  21.733  1.00  0.00     0.209 C
HETATM   17  O1  UNL     1     109.536  17.723  21.378  1.00  0.00    -0.644 OA
HETATM   18  O2  UNL     1     107.971  18.012  23.045  1.00  0.00    -0.644 OA
ENDBRANCH  13  16
ENDBRANCH   9  10
ENDBRANCH   5   9
BRANCH   7  19
HETATM   19  N4  UNL     1     106.095  20.266  14.206  1.00  0.00    -0.254 N
HETATM   20  C11 UNL     1     107.302  19.565  14.040  1.00  0.00     0.259 C
HETATM   21  O3  UNL     1     107.686  18.842  15.031  1.00  0.00    -0.269 OA
ATOM     22  H4  UNL     1     105.757  20.853  13.443  1.00  0.00     0.190 HD
BRANCH  20  23
HETATM   23  C12 UNL     1     108.167  19.558  12.871  1.00  0.00     0.174 C
HETATM   24  C13 UNL     1     109.009  20.827  12.762  1.00  0.00     0.042 C
BRANCH  23  25
HETATM   25  N5  UNL     1     107.438  19.383  11.655  1.00  0.00    -0.348 N
HETATM   26  C14 UNL     1     107.941  18.577  10.620  1.00  0.00     0.214 C
HETATM   27  C15 UNL     1     107.193  18.388   9.362  1.00  0.00     0.117 C
HETATM   28  O4  UNL     1     109.065  18.004  10.784  1.00  0.00    -0.274 OA
ATOM     29  H5  UNL     1     106.539  19.851  11.536  1.00  0.00     0.163 HD
ENDBRANCH  23  25
ENDBRANCH  20  23
ENDBRANCH   7  19
TORSDOF 6
ENDMDL