MODEL 3
REMARK VINA RESULT: -6.901420632      0.085      1.049
REMARK  7 active torsions:
REMARK  status: ('A' for Active; 'I' for Inactive)
REMARK    1  A    between atoms: C2_2  and  C4_4
REMARK    2  A    between atoms: C4_4  and  C5_6
REMARK       I    between atoms: C5_6  and  N1_8
REMARK    3  A    between atoms: N1_8  and  N2_10
REMARK    4  A    between atoms: N2_10  and  C6_12
REMARK    5  A    between atoms: C6_12  and  N3_14
REMARK    6  A    between atoms: N3_14  and  N4_16
REMARK       I    between atoms: N4_16  and  C7_18
REMARK    7  A    between atoms: C7_18  and  C8_20
ROOT
HETATM    1  C6  UNL     1     106.553  19.000  15.820  1.00  0.00     0.205 C
HETATM    2  S1  UNL     1     106.837  20.441  15.061  1.00  0.00    -0.038 SA
ENDROOT
BRANCH   1   3
HETATM    3  N2  UNL     1     105.348  18.294  15.627  1.00  0.00    -0.272 N
ATOM      4  H2  UNL     1     105.155  17.861  14.724  1.00  0.00     0.189 HD
BRANCH   3   5
HETATM    5  N1  UNL     1     104.425  18.184  16.653  1.00  0.00    -0.261 N
HETATM    6  C5  UNL     1     103.312  17.272  16.527  1.00  0.00     0.306 C
HETATM    7  O2  UNL     1     103.208  16.584  15.467  1.00  0.00    -0.263 OA
ATOM      8  H1  UNL     1     104.530  18.747  17.497  1.00  0.00     0.190 HD
BRANCH   6   9
HETATM    9  C4  UNL     1     102.341  17.143  17.585  1.00  0.00     0.221 C
HETATM   10  O1  UNL     1     101.138  17.382  17.407  1.00  0.00    -0.287 OA
BRANCH   9  11
HETATM   11  C2  UNL     1     102.781  16.708  18.943  1.00  0.00     0.057 C
HETATM   12  C1  UNL     1     102.009  17.419  20.033  1.00  0.00     0.018 C
HETATM   13  C3  UNL     1     102.700  15.196  19.070  1.00  0.00     0.018 C
ENDBRANCH   9  11
ENDBRANCH   6   9
ENDBRANCH   3   5
ENDBRANCH   1   3
BRANCH   1  14
HETATM   14  N3  UNL     1     107.589  18.512  16.668  1.00  0.00    -0.272 N
ATOM     15  H3  UNL     1     108.391  18.058  16.230  1.00  0.00     0.189 HD
BRANCH  14  16
HETATM   16  N4  UNL     1     107.576  18.614  18.057  1.00  0.00    -0.264 N
HETATM   17  C7  UNL     1     106.889  17.687  18.863  1.00  0.00     0.270 C
HETATM   18  O3  UNL     1     106.245  16.708  18.353  1.00  0.00    -0.266 OA
ATOM     19  H4  UNL     1     108.078  19.382  18.503  1.00  0.00     0.190 HD
BRANCH  17  20
HETATM   20  C8  UNL     1     106.855  17.760  20.320  1.00  0.00     0.033 A
HETATM   21  C9  UNL     1     105.726  17.427  21.044  1.00  0.00     0.017 A
HETATM   22  C10 UNL     1     105.695  17.480  22.433  1.00  0.00     0.001 A
HETATM   23  C11 UNL     1     106.848  17.883  23.069  1.00  0.00     0.000 A
HETATM   24  C12 UNL     1     108.002  18.227  22.391  1.00  0.00     0.001 A
HETATM   25  C13 UNL     1     107.977  18.156  21.009  1.00  0.00     0.017 A
ENDBRANCH  17  20
ENDBRANCH  14  16
ENDBRANCH   1  14
TORSDOF 7
ENDMDL