MODEL 4
REMARK VINA RESULT: -5.827393363      3.882      5.978
REMARK  6 active torsions:
REMARK  status: ('A' for Active; 'I' for Inactive)
REMARK    1  A    between atoms: C2_2  and  O1_3
REMARK    2  A    between atoms: O1_3  and  C3_4
REMARK    3  A    between atoms: C3_4  and  C4_6
REMARK    4  A    between atoms: C7_9  and  N1_10
REMARK       I    between atoms: N1_10  and  C8_12
REMARK       I    between atoms: C8_12  and  N2_14
REMARK    5  A    between atoms: N2_14  and  C9_16
REMARK    6  A    between atoms: C13_20  and  C14_21
ROOT
HETATM    1  C4  UNL     1     103.787  16.438  17.737  1.00  0.00     0.178 C
HETATM    2  C5  UNL     1     102.280  16.467  17.845  1.00  0.00     0.037 C
HETATM    3  C6  UNL     1     101.795  17.921  17.883  1.00  0.00     0.030 C
HETATM    4  C7  UNL     1     102.183  18.609  16.566  1.00  0.00     0.119 C
HETATM    5  C13 UNL     1     103.628  18.314  16.227  1.00  0.00     0.202 C
HETATM    6  N3  UNL     1     104.345  17.676  17.293  1.00  0.00    -0.394 N
ATOM      7  H3  UNL     1     105.189  18.076  17.702  1.00  0.00     0.155 HD
ENDROOT
BRANCH   4   8
HETATM    8  N1  UNL     1     101.292  18.193  15.504  1.00  0.00    -0.336 N
HETATM    9  C8  UNL     1     100.740  19.112  14.573  1.00  0.00     0.317 C
HETATM   10  O3  UNL     1     101.033  20.330  14.672  1.00  0.00    -0.247 OA
HETATM   11  N2  UNL     1      99.873  18.634  13.556  1.00  0.00    -0.335 N
ATOM     12  H2  UNL     1      99.644  17.643  13.488  1.00  0.00     0.165 HD
ATOM     13  H1  UNL     1     101.053  17.205  15.421  1.00  0.00     0.164 HD
BRANCH  11  14
HETATM   14  C9  UNL     1      99.318  19.595  12.611  1.00  0.00     0.023 C
HETATM   15  C10 UNL     1      98.457  18.836  11.630  1.00  0.00     0.037 C
HETATM   16  C11 UNL     1      98.485  20.640  13.320  1.00  0.00     0.037 C
HETATM   17  C12 UNL     1     100.435  20.321  11.888  1.00  0.00     0.037 C
ENDBRANCH  11  14
ENDBRANCH   4   8
BRANCH   5  18
HETATM   18  C14 UNL     1     103.779  17.617  14.932  1.00  0.00     0.198 C
HETATM   19  O4  UNL     1     103.656  16.375  14.776  1.00  0.00    -0.646 OA
HETATM   20  O5  UNL     1     104.075  18.361  13.798  1.00  0.00    -0.646 OA
ENDBRANCH   5  18
BRANCH   1  21
HETATM   21  C3  UNL     1     104.426  16.091  19.040  1.00  0.00     0.281 C
HETATM   22  O2  UNL     1     104.835  14.917  19.289  1.00  0.00    -0.263 OA
BRANCH  21  23
HETATM   23  O1  UNL     1     104.612  17.024  20.049  1.00  0.00    -0.320 OA
BRANCH  23  24
HETATM   24  C2  UNL     1     105.930  17.381  20.497  1.00  0.00     0.174 C
HETATM   25  C1  UNL     1     105.972  17.460  21.992  1.00  0.00     0.034 C
ENDBRANCH  23  24
ENDBRANCH  21  23
ENDBRANCH   1  21
TORSDOF 6
ENDMDL