MODEL 3
REMARK VINA RESULT: -7.196358748      3.745      6.443
REMARK  7 active torsions:
REMARK  status: ('A' for Active; 'I' for Inactive)
REMARK    1  A    between atoms: C1_2  and  C2_4
REMARK    2  A    between atoms: C2_4  and  C3_5
REMARK    3  A    between atoms: C3_5  and  C4_7
REMARK       I    between atoms: C4_7  and  N1_9
REMARK    4  A    between atoms: N1_9  and  N2_11
REMARK    5  A    between atoms: N2_11  and  C5_13
REMARK    6  A    between atoms: C5_13  and  N3_15
REMARK       I    between atoms: N3_15  and  C6_17
REMARK    7  A    between atoms: C6_17  and  C7_19
ROOT
HETATM    1  N2  UNL     1     104.086  15.915  17.644  1.00  0.00    -0.273 N
ATOM      2  H2  UNL     1     104.012  14.899  17.690  1.00  0.00     0.189 HD
ENDROOT
BRANCH   1   3
HETATM    3  N1  UNL     1     104.746  16.538  16.591  1.00  0.00    -0.261 N
HETATM    4  C4  UNL     1     104.125  16.602  15.319  1.00  0.00     0.306 C
HETATM    5  O4  UNL     1     102.996  16.118  15.137  1.00  0.00    -0.263 OA
ATOM      6  H1  UNL     1     105.670  16.946  16.733  1.00  0.00     0.190 HD
BRANCH   4   7
HETATM    7  C3  UNL     1     104.826  17.239  14.218  1.00  0.00     0.228 C
HETATM    8  O3  UNL     1     105.241  16.587  13.215  1.00  0.00    -0.287 OA
BRANCH   7   9
HETATM    9  C2  UNL     1     105.059  18.697  14.262  1.00  0.00     0.202 C
BRANCH   9  10
HETATM   10  C1  UNL     1     106.326  19.052  14.964  1.00  0.00     0.180 C
HETATM   11  O1  UNL     1     106.239  19.390  16.168  1.00  0.00    -0.648 OA
HETATM   12  O2  UNL     1     107.568  19.027  14.367  1.00  0.00    -0.648 OA
ENDBRANCH   9  10
ENDBRANCH   7   9
ENDBRANCH   4   7
ENDBRANCH   1   3
BRANCH   1  13
HETATM   13  C5  UNL     1     103.509  16.747  18.668  1.00  0.00     0.193 C
HETATM   14  S1  UNL     1     102.036  17.435  18.427  1.00  0.00    -0.039 SA
BRANCH  13  15
HETATM   15  N3  UNL     1     104.178  16.993  19.888  1.00  0.00    -0.298 N
HETATM   16  C6  UNL     1     105.541  17.296  19.960  1.00  0.00     0.257 C
HETATM   17  O5  UNL     1     106.231  17.363  18.890  1.00  0.00    -0.267 OA
ATOM     18  H3  UNL     1     103.642  16.947  20.755  1.00  0.00     0.171 HD
BRANCH  16  19
HETATM   19  C7  UNL     1     106.246  17.548  21.236  1.00  0.00     0.032 A
HETATM   20  C8  UNL     1     107.587  17.835  21.308  1.00  0.00     0.017 A
HETATM   21  C9  UNL     1     108.233  18.066  22.524  1.00  0.00     0.001 A
HETATM   22  C10 UNL     1     107.499  18.003  23.693  1.00  0.00     0.000 A
HETATM   23  C11 UNL     1     106.151  17.715  23.649  1.00  0.00     0.001 A
HETATM   24  C12 UNL     1     105.542  17.492  22.437  1.00  0.00     0.017 A
ENDBRANCH  16  19
ENDBRANCH  13  15
ENDBRANCH   1  13
TORSDOF 7
ENDMDL