MODEL 5
REMARK VINA RESULT: -6.553312819      3.003      6.836
REMARK  4 active torsions:
REMARK  status: ('A' for Active; 'I' for Inactive)
REMARK    1  A    between atoms: C2_2  and  N2_6
REMARK    2  A    between atoms: N2_6  and  C3_8
REMARK    3  A    between atoms: N3_11  and  C6_12
REMARK    4  A    between atoms: C6_12  and  C7_13
REMARK       I    between atoms: N6_20  and  C10_21
ROOT
HETATM    1  C6  UNL     1     103.279  17.398  15.937  1.00  0.00     0.086 C
HETATM    2  C8  UNL     1     102.257  18.066  16.820  1.00  0.00     0.058 C
HETATM    3  C9  UNL     1     102.517  19.581  16.705  1.00  0.00     0.128 C
HETATM    4  N6  UNL     1     101.981  19.922  15.413  1.00  0.00    -0.352 N
HETATM    5  C10 UNL     1     101.388  21.173  15.201  1.00  0.00     0.215 C
HETATM    6  C11 UNL     1     101.293  22.174  16.283  1.00  0.00     0.117 C
HETATM    7  O1  UNL     1     100.922  21.459  14.069  1.00  0.00    -0.274 OA
HETATM    8  C12 UNL     1     102.092  18.913  14.382  1.00  0.00     0.128 C
HETATM    9  C13 UNL     1     103.389  18.180  14.671  1.00  0.00     0.058 C
ENDROOT
BRANCH   1  10
HETATM   10  N3  UNL     1     104.445  17.166  16.650  1.00  0.00    -0.397 N
HETATM   11  C5  UNL     1     104.375  16.327  17.791  1.00  0.00     0.120 C
HETATM   12  C4  UNL     1     104.806  17.164  18.986  1.00  0.00     0.044 C
HETATM   13  C3  UNL     1     106.295  17.436  18.714  1.00  0.00     0.085 C
HETATM   14  C15 UNL     1     106.367  18.269  17.481  1.00  0.00     0.044 C
HETATM   15  C14 UNL     1     105.707  17.593  16.265  1.00  0.00     0.120 C
BRANCH  13  16
HETATM   16  N2  UNL     1     106.818  18.171  19.820  1.00  0.00    -0.376 N
ATOM     17  H2  UNL     1     106.254  18.859  20.319  1.00  0.00     0.161 HD
BRANCH  16  18
HETATM   18  C2  UNL     1     108.178  17.895  20.197  1.00  0.00     0.066 C
HETATM   19  C1  UNL     1     108.508  17.635  21.601  1.00  0.00     0.088 C
HETATM   20  N1  UNL     1     109.096  17.880  19.296  1.00  0.00    -0.389 N
ATOM     21  H12 UNL     1     110.061  17.685  19.564  1.00  0.00     0.157 HD
ATOM     22  H11 UNL     1     108.866  18.061  18.319  1.00  0.00     0.157 HD
ENDBRANCH  16  18
ENDBRANCH  13  16
ENDBRANCH   1  10
BRANCH   1  23
HETATM   23  C7  UNL     1     102.695  16.067  15.530  1.00  0.00     0.115 C
HETATM   24  N4  UNL     1     103.316  15.387  14.646  1.00  0.00    -0.389 N
ATOM     25  H42 UNL     1     104.190  15.744  14.260  1.00  0.00     0.157 HD
ATOM     26  H41 UNL     1     102.922  14.488  14.370  1.00  0.00     0.157 HD
HETATM   27  N5  UNL     1     101.475  15.569  16.068  1.00  0.00    -0.085 NA
ENDBRANCH   1  23
TORSDOF 4
ENDMDL