MODEL 5
REMARK VINA RESULT: -6.134188413      1.549      1.803
REMARK  6 active torsions:
REMARK  status: ('A' for Active; 'I' for Inactive)
REMARK    1  A    between atoms: C2_2  and  C3_3
REMARK    2  A    between atoms: C3_3  and  C4_4
REMARK    3  A    between atoms: C4_4  and  C5_5
REMARK    4  A    between atoms: C5_5  and  N1_7
REMARK    5  A    between atoms: N1_7  and  N2_9
REMARK       I    between atoms: N2_9  and  C6_11
REMARK       I    between atoms: C6_11  and  N5_17
REMARK       I    between atoms: N3_12  and  C7_14
REMARK       I    between atoms: N5_17  and  C8_19
REMARK    6  A    between atoms: C8_19  and  C9_21
ROOT
HETATM    1  N2  UNL     1     102.670  15.971  16.606  1.00  0.00    -0.131 N
ATOM      2  H2  UNL     1     101.714  15.685  16.396  1.00  0.00     0.205 HD
HETATM    3  C6  UNL     1     103.363  16.745  15.664  1.00  0.00     0.703 C
HETATM    4  N3  UNL     1     104.584  16.409  15.376  1.00  0.00    -0.142 N
ATOM      5  H3  UNL     1     104.983  15.598  15.848  1.00  0.00     0.189 HD
HETATM    6  C7  UNL     1     105.383  17.098  14.454  1.00  0.00     0.347 C
HETATM    7  N4  UNL     1     105.663  16.588  13.144  1.00  0.00    -0.039 NA
HETATM    8  O1  UNL     1     105.912  18.223  14.725  1.00  0.00    -0.250 OA
HETATM    9  N5  UNL     1     102.790  17.845  15.029  1.00  0.00    -0.158 N
ATOM     10  H5  UNL     1     103.350  18.360  14.348  1.00  0.00     0.187 HD
HETATM   11  C8  UNL     1     101.466  18.284  15.285  1.00  0.00     0.240 C
HETATM   12  O2  UNL     1     100.685  17.738  16.098  1.00  0.00    -0.272 OA
ENDROOT
BRANCH   1  13
HETATM   13  N1  UNL     1     103.246  15.570  17.838  1.00  0.00    -0.280 N
ATOM     14  H1  UNL     1     103.372  14.571  18.005  1.00  0.00     0.188 HD
BRANCH  13  15
HETATM   15  C5  UNL     1     103.655  16.467  18.847  1.00  0.00     0.092 C
HETATM   16  S1  UNL     1     105.201  16.974  18.884  1.00  0.00    -0.064 SA
BRANCH  15  17
HETATM   17  C4  UNL     1     102.704  16.956  19.874  1.00  0.00     0.071 C
BRANCH  17  18
HETATM   18  C3  UNL     1     103.319  16.666  21.225  1.00  0.00     0.006 C
BRANCH  18  19
HETATM   19  C2  UNL     1     102.356  16.975  22.352  1.00  0.00    -0.004 C
HETATM   20  C1  UNL     1     102.992  16.630  23.673  1.00  0.00     0.005 C
ENDBRANCH  18  19
ENDBRANCH  17  18
ENDBRANCH  15  17
ENDBRANCH  13  15
ENDBRANCH   1  13
BRANCH  11  21
HETATM   21  C9  UNL     1     100.898  19.474  14.572  1.00  0.00     0.087 A
HETATM   22  C10 UNL     1     101.931  20.208  13.731  1.00  0.00     0.024 A
HETATM   23  C11 UNL     1     101.275  20.845  14.962  1.00  0.00    -0.035 A
HETATM   24  C12 UNL     1     102.148  21.122  16.166  1.00  0.00     0.015 C
HETATM   25  C13 UNL     1     100.334  21.974  14.609  1.00  0.00     0.015 C
ENDBRANCH  11  21
TORSDOF 6
ENDMDL