MODEL 4
REMARK VINA RESULT: -6.976684480      0.863      1.515
REMARK  6 active torsions:
REMARK  status: ('A' for Active; 'I' for Inactive)
REMARK    1  A    between atoms: C2_2  and  C4_4
REMARK       I    between atoms: C4_4  and  N1_6
REMARK    2  A    between atoms: N1_6  and  C5_8
REMARK    3  A    between atoms: C5_8  and  C6_9
REMARK    4  A    between atoms: C5_8  and  C7_16
REMARK       I    between atoms: C6_9  and  N2_11
REMARK    5  A    between atoms: N2_11  and  N3_13
REMARK    6  A    between atoms: C16_25  and  O3_26
ROOT
HETATM    1  C5  UNL     1     105.826  17.671  16.755  1.00  0.00     0.183 C
ENDROOT
BRANCH   1   2
HETATM    2  N1  UNL     1     105.532  17.975  18.189  1.00  0.00    -0.344 N
HETATM    3  C4  UNL     1     105.502  16.939  19.154  1.00  0.00     0.247 C
HETATM    4  O1  UNL     1     105.730  15.770  18.738  1.00  0.00    -0.268 OA
ATOM      5  H1  UNL     1     105.351  18.937  18.476  1.00  0.00     0.163 HD
BRANCH   3   6
HETATM    6  C2  UNL     1     105.239  17.089  20.555  1.00  0.00    -0.004 C
HETATM    7  C1  UNL     1     106.208  17.402  21.380  1.00  0.00     0.024 C
HETATM    8  C3  UNL     1     103.874  16.885  21.075  1.00  0.00     0.053 C
ENDBRANCH   3   6
ENDBRANCH   1   2
BRANCH   1   9
HETATM    9  C6  UNL     1     106.996  18.435  16.342  1.00  0.00     0.258 C
HETATM   10  O2  UNL     1     107.608  19.176  17.205  1.00  0.00    -0.269 OA
HETATM   11  N2  UNL     1     107.544  18.440  15.064  1.00  0.00    -0.275 N
ATOM     12  H2  UNL     1     107.115  17.875  14.331  1.00  0.00     0.189 HD
BRANCH  11  13
HETATM   13  N3  UNL     1     108.668  19.201  14.769  1.00  0.00    -0.343 N
ATOM     14  H32 UNL     1     109.369  18.810  14.139  1.00  0.00     0.176 HD
ATOM     15  H31 UNL     1     108.793  20.130  15.171  1.00  0.00     0.176 HD
ENDBRANCH  11  13
ENDBRANCH   1   9
BRANCH   1  16
HETATM   16  C7  UNL     1     104.571  17.750  15.976  1.00  0.00     0.026 C
HETATM   17  C8  UNL     1     104.148  19.063  15.420  1.00  0.00    -0.007 C
HETATM   18  C9  UNL     1     103.157  19.854  16.197  1.00  0.00     0.012 C
HETATM   19  C15 UNL     1     103.374  18.695  14.110  1.00  0.00     0.012 C
HETATM   20  C10 UNL     1     101.995  19.003  16.657  1.00  0.00     0.015 C
HETATM   21  C11 UNL     1     102.420  17.740  17.325  1.00  0.00     0.012 C
HETATM   22  C16 UNL     1     101.243  18.614  15.384  1.00  0.00     0.126 C
HETATM   23  C12 UNL     1     103.393  16.968  16.486  1.00  0.00    -0.007 C
HETATM   24  C13 UNL     1     102.585  16.595  15.221  1.00  0.00     0.012 C
HETATM   25  C14 UNL     1     102.195  17.863  14.499  1.00  0.00     0.015 C
BRANCH  22  26
HETATM   26  O3  UNL     1     100.189  17.755  15.695  1.00  0.00    -0.395 OA
ATOM     27  H3  UNL     1      99.821  17.390  14.899  1.00  0.00     0.210 HD
ENDBRANCH  22  26
ENDBRANCH   1  16
TORSDOF 6
ENDMDL