MODEL 3
REMARK VINA RESULT: -5.852781130      2.678      3.651
REMARK  5 active torsions:
REMARK  status: ('A' for Active; 'I' for Inactive)
REMARK    1  A    between atoms: C2_2  and  N1_4
REMARK       I    between atoms: N1_4  and  C4_6
REMARK    2  A    between atoms: C4_6  and  C5_8
REMARK    3  A    between atoms: C5_8  and  C6_9
REMARK    4  A    between atoms: C10_14  and  N2_15
REMARK    5  A    between atoms: C10_14  and  C11_19
REMARK       I    between atoms: N4_23  and  C13_25
ROOT
HETATM    1  C6  UNL     1     103.054  17.839  17.916  1.00  0.00     0.105 C
HETATM    2  S1  UNL     1     102.197  19.008  16.817  1.00  0.00    -0.145 SA
HETATM    3  C7  UNL     1     102.218  17.948  15.338  1.00  0.00     0.049 C
HETATM    4  C8  UNL     1     102.600  18.737  14.104  1.00  0.00     0.030 C
HETATM    5  C9  UNL     1     100.774  17.509  15.117  1.00  0.00     0.030 C
HETATM    6  C10 UNL     1     103.152  16.866  15.641  1.00  0.00     0.255 C
HETATM    7  C12 UNL     1     103.727  16.945  16.973  1.00  0.00     0.050 C
HETATM    8  N4  UNL     1     104.776  16.267  17.298  1.00  0.00    -0.334 N
ATOM      9  H4  UNL     1     105.175  15.671  16.572  1.00  0.00     0.168 HD
HETATM   10  C13 UNL     1     105.425  16.260  18.529  1.00  0.00     0.186 C
HETATM   11  N5  UNL     1     106.056  17.267  18.975  1.00  0.00    -0.374 N
ATOM     12  H51 UNL     1     106.531  17.262  19.877  1.00  0.00     0.158 HD
ATOM     13  H52 UNL     1     106.084  18.116  18.410  1.00  0.00     0.158 HD
HETATM   14  N6  UNL     1     105.386  15.076  19.317  1.00  0.00    -0.064 NA
ENDROOT
BRANCH   1  15
HETATM   15  C5  UNL     1     102.074  17.017  18.710  1.00  0.00     0.124 C
BRANCH  15  16
HETATM   16  C4  UNL     1     102.090  17.363  20.156  1.00  0.00     0.219 C
HETATM   17  N1  UNL     1     103.148  16.810  20.929  1.00  0.00    -0.357 N
ATOM     18  H1  UNL     1     103.840  16.211  20.478  1.00  0.00     0.162 HD
HETATM   19  O1  UNL     1     101.253  18.089  20.714  1.00  0.00    -0.274 OA
BRANCH  17  20
HETATM   20  C2  UNL     1     103.258  17.087  22.365  1.00  0.00     0.076 C
HETATM   21  C1  UNL     1     102.775  15.858  23.096  1.00  0.00     0.032 C
HETATM   22  C3  UNL     1     104.751  17.242  22.674  1.00  0.00     0.032 C
ENDBRANCH  17  20
ENDBRANCH  15  16
ENDBRANCH   1  15
BRANCH   6  23
HETATM   23  N2  UNL     1     102.488  15.588  15.454  1.00  0.00    -0.055 N
ATOM     24  H23 UNL     1     102.140  15.202  16.332  1.00  0.00     0.276 HD
ATOM     25  H22 UNL     1     101.594  15.684  14.972  1.00  0.00     0.276 HD
ATOM     26  H21 UNL     1     103.118  14.944  14.974  1.00  0.00     0.276 HD
ENDBRANCH   6  23
BRANCH   6  27
HETATM   27  C11 UNL     1     104.298  16.891  14.660  1.00  0.00     0.275 C
HETATM   28  N3  UNL     1     105.387  17.767  14.801  1.00  0.00    -0.059 NA
HETATM   29  O2  UNL     1     104.285  16.108  13.685  1.00  0.00    -0.274 OA
ENDBRANCH   6  27
TORSDOF 5
ENDMDL