MODEL 2
REMARK VINA RESULT: -6.237784076      3.635      7.940
REMARK  4 active torsions:
REMARK  status: ('A' for Active; 'I' for Inactive)
REMARK    1  A    between atoms: C2_2  and  C3_3
REMARK    2  A    between atoms: C3_3  and  N1_4
REMARK       I    between atoms: N1_4  and  C4_6
REMARK       I    between atoms: C4_6  and  N2_8
REMARK    3  A    between atoms: N2_8  and  C5_10
REMARK    4  A    between atoms: C12_21  and  C13_22
ROOT
HETATM    1  C5  UNL     1     105.321  18.391  14.637  1.00  0.00     0.194 C
HETATM    2  C6  UNL     1     104.535  17.175  14.332  1.00  0.00     0.242 C
HETATM    3  O2  UNL     1     104.896  16.244  13.593  1.00  0.00    -0.271 OA
HETATM    4  N3  UNL     1     103.324  17.323  15.056  1.00  0.00    -0.353 N
ATOM      5  H3  UNL     1     102.494  16.747  14.914  1.00  0.00     0.163 HD
HETATM    6  C7  UNL     1     103.415  18.383  16.010  1.00  0.00     0.114 C
HETATM    7  C8  UNL     1     104.896  18.674  16.047  1.00  0.00     0.103 C
HETATM    8  S1  UNL     1     105.469  17.394  17.198  1.00  0.00    -0.149 SA
HETATM    9  C9  UNL     1     103.853  16.979  17.969  1.00  0.00     0.015 C
HETATM   10  C10 UNL     1     103.476  15.569  17.729  1.00  0.00     0.027 C
HETATM   11  C11 UNL     1     104.053  17.235  19.466  1.00  0.00     0.027 C
HETATM   12  C12 UNL     1     102.990  18.035  17.406  1.00  0.00     0.116 C
ENDROOT
BRANCH   1  13
HETATM   13  N2  UNL     1     106.725  18.217  14.483  1.00  0.00    -0.329 N
HETATM   14  C4  UNL     1     107.381  18.724  13.330  1.00  0.00     0.317 C
HETATM   15  N1  UNL     1     108.774  18.577  13.130  1.00  0.00    -0.340 N
HETATM   16  O1  UNL     1     106.710  19.328  12.446  1.00  0.00    -0.247 OA
ATOM     17  H1  UNL     1     109.335  18.094  13.830  1.00  0.00     0.164 HD
ATOM     18  H2  UNL     1     107.261  17.729  15.201  1.00  0.00     0.165 HD
BRANCH  15  19
HETATM   19  C3  UNL     1     109.405  19.103  11.951  1.00  0.00     0.150 C
BRANCH  19  20
HETATM   20  C2  UNL     1     109.535  18.067  10.863  1.00  0.00    -0.018 C
HETATM   21  C1  UNL     1     110.626  17.316  10.797  1.00  0.00     0.008 C
ENDBRANCH  19  20
ENDBRANCH  15  19
ENDBRANCH   1  13
BRANCH  12  22
HETATM   22  C13 UNL     1     101.555  17.826  17.459  1.00  0.00     0.238 C
HETATM   23  N4  UNL     1     100.787  17.830  16.269  1.00  0.00    -0.062 NA
HETATM   24  O3  UNL     1     100.971  17.640  18.545  1.00  0.00    -0.276 OA
ENDBRANCH  12  22
TORSDOF 4
ENDMDL