MODEL 5
REMARK VINA RESULT: -6.927630419      1.722      2.185
REMARK  7 active torsions:
REMARK  status: ('A' for Active; 'I' for Inactive)
REMARK    1  A    between atoms: C2_2  and  C3_3
REMARK    2  A    between atoms: C4_4  and  C5_5
REMARK    3  A    between atoms: C8_8  and  O1_9
REMARK    4  A    between atoms: O1_9  and  C9_10
REMARK    5  A    between atoms: C12_13  and  N1_14
REMARK    6  A    between atoms: C14_19  and  O2_20
REMARK    7  A    between atoms: C15_22  and  O3_23
ROOT
HETATM    1  C9  UNL     1     106.286  18.714  16.085  1.00  0.00     0.182 C
HETATM    2  C10 UNL     1     106.299  18.273  14.639  1.00  0.00     0.006 C
HETATM    3  C11 UNL     1     106.979  18.921  13.701  1.00  0.00    -0.001 C
HETATM    4  C12 UNL     1     107.796  20.131  13.924  1.00  0.00     0.138 C
HETATM    5  C14 UNL     1     107.525  20.653  15.307  1.00  0.00     0.176 C
HETATM    6  C15 UNL     1     107.609  19.479  16.258  1.00  0.00     0.182 C
ENDROOT
BRANCH   1   7
HETATM    7  O1  UNL     1     106.346  17.630  16.952  1.00  0.00    -0.339 OA
BRANCH   7   8
HETATM    8  C8  UNL     1     105.819  17.477  18.190  1.00  0.00     0.069 A
HETATM    9  C7  UNL     1     104.494  17.194  18.396  1.00  0.00     0.038 A
HETATM   10  C6  UNL     1     103.968  17.039  19.683  1.00  0.00     0.023 A
HETATM   11  C5  UNL     1     104.796  17.176  20.770  1.00  0.00     0.017 A
HETATM   12  C17 UNL     1     106.124  17.461  20.586  1.00  0.00     0.023 A
HETATM   13  C16 UNL     1     106.626  17.609  19.299  1.00  0.00     0.038 A
BRANCH  11  14
HETATM   14  C4  UNL     1     104.239  17.015  22.095  1.00  0.00    -0.067 C
HETATM   15  C3  UNL     1     103.775  16.901  23.209  1.00  0.00    -0.101 C
BRANCH  15  16
HETATM   16  C2  UNL     1     103.231  16.779  24.566  1.00  0.00     0.090 C
HETATM   17  C1  UNL     1     103.076  15.285  24.835  1.00  0.00     0.018 C
ENDBRANCH  15  16
ENDBRANCH  11  14
ENDBRANCH   7   8
ENDBRANCH   1   7
BRANCH   6  18
HETATM   18  O3  UNL     1     108.613  18.578  15.897  1.00  0.00    -0.390 OA
ATOM     19  H3  UNL     1     109.320  18.722  16.516  1.00  0.00     0.210 HD
ENDBRANCH   6  18
BRANCH   5  20
HETATM   20  O2  UNL     1     106.196  21.107  15.323  1.00  0.00    -0.391 OA
ATOM     21  H2  UNL     1     105.886  21.090  14.425  1.00  0.00     0.210 HD
ENDBRANCH   5  20
BRANCH   4  22
HETATM   22  N1  UNL     1     109.186  19.779  13.798  1.00  0.00    -0.356 N
HETATM   23  C13 UNL     1     109.935  20.078  12.804  1.00  0.00     0.197 C
HETATM   24  N2  UNL     1     111.282  19.661  12.829  1.00  0.00    -0.067 NA
HETATM   25  N3  UNL     1     109.494  20.811  11.666  1.00  0.00    -0.067 NA
ATOM     26  H1  UNL     1     109.608  19.249  14.561  1.00  0.00     0.162 HD
ENDBRANCH   4  22
TORSDOF 7
ENDMDL