MODEL 3
REMARK VINA RESULT: -6.769985700      5.011      9.632
REMARK  5 active torsions:
REMARK  status: ('A' for Active; 'I' for Inactive)
REMARK    1  A    between atoms: C2_2  and  C4_4
REMARK    2  A    between atoms: C4_4  and  C5_5
REMARK    3  A    between atoms: C5_5  and  N1_6
REMARK    4  A    between atoms: C5_5  and  C13_17
REMARK       I    between atoms: N1_6  and  C6_8
REMARK       I    between atoms: C6_8  and  N2_10
REMARK       I    between atoms: C13_17  and  N3_19
REMARK    5  A    between atoms: N3_19  and  N4_21
REMARK       I    between atoms: N4_21  and  C14_23
ROOT
HETATM    1  C5  UNL     1     109.268  19.662  12.762  1.00  0.00     0.180 C
ENDROOT
BRANCH   1   2
HETATM    2  C4  UNL     1     109.643  18.348  12.144  1.00  0.00     0.038 C
BRANCH   2   3
HETATM    3  C2  UNL     1     109.297  18.118  10.732  1.00  0.00    -0.020 C
HETATM    4  C1  UNL     1     107.928  18.806  10.516  1.00  0.00     0.009 C
HETATM    5  C3  UNL     1     110.223  18.812   9.753  1.00  0.00     0.009 C
ENDBRANCH   2   3
ENDBRANCH   1   2
BRANCH   1   6
HETATM    6  N1  UNL     1     108.905  19.304  14.158  1.00  0.00    -0.330 N
HETATM    7  C6  UNL     1     107.564  19.352  14.586  1.00  0.00     0.319 C
HETATM    8  O1  UNL     1     106.685  19.710  13.736  1.00  0.00    -0.247 OA
HETATM    9  N2  UNL     1     107.185  19.017  15.909  1.00  0.00    -0.334 N
HETATM   10  C7  UNL     1     105.810  19.065  16.346  1.00  0.00     0.128 C
HETATM   11  C12 UNL     1     108.198  18.619  16.845  1.00  0.00     0.128 C
HETATM   12  C8  UNL     1     105.415  17.819  17.110  1.00  0.00     0.024 C
HETATM   13  C9  UNL     1     106.429  17.437  18.163  1.00  0.00    -0.015 C
HETATM   14  C10 UNL     1     105.761  17.429  19.523  1.00  0.00     0.010 C
HETATM   15  C11 UNL     1     107.595  18.397  18.222  1.00  0.00     0.024 C
ATOM     16  H1  UNL     1     109.634  19.019  14.812  1.00  0.00     0.165 HD
ENDBRANCH   1   6
BRANCH   1  17
HETATM   17  C13 UNL     1     110.337  20.647  12.880  1.00  0.00     0.259 C
HETATM   18  O2  UNL     1     110.095  21.867  12.762  1.00  0.00    -0.269 OA
HETATM   19  N3  UNL     1     111.672  20.258  13.128  1.00  0.00    -0.265 N
ATOM     20  H3  UNL     1     111.895  19.267  13.225  1.00  0.00     0.190 HD
BRANCH  19  21
HETATM   21  N4  UNL     1     112.711  21.221  13.246  1.00  0.00    -0.251 N
HETATM   22  C14 UNL     1     114.060  20.867  13.347  1.00  0.00     0.347 C
HETATM   23  N5  UNL     1     115.067  21.863  13.463  1.00  0.00    -0.038 NA
HETATM   24  O3  UNL     1     114.462  19.663  13.343  1.00  0.00    -0.249 OA
ATOM     25  H4  UNL     1     112.463  22.210  13.256  1.00  0.00     0.191 HD
ENDBRANCH  19  21
ENDBRANCH   1  17
TORSDOF 5
ENDMDL