MODEL 2
REMARK VINA RESULT: -6.997988058      1.210      2.006
REMARK  6 active torsions:
REMARK  status: ('A' for Active; 'I' for Inactive)
REMARK    1  A    between atoms: C3_3  and  C5_5
REMARK    2  A    between atoms: C5_5  and  O2_7
REMARK    3  A    between atoms: O2_7  and  C6_8
REMARK    4  A    between atoms: C9_11  and  C10_12
REMARK    5  A    between atoms: C11_13  and  O3_14
REMARK    6  A    between atoms: C13_19  and  O4_20
ROOT
HETATM    1  C6  UNL     1     -15.129  17.415 -19.332  1.00  0.00     0.161 C
HETATM    2  C7  UNL     1     -13.783  16.828 -19.648  1.00  0.00     0.038 C
HETATM    3  C8  UNL     1     -13.319  15.783 -18.680  1.00  0.00     0.040 C
HETATM    4  C9  UNL     1     -14.023  15.716 -17.397  1.00  0.00     0.162 C
HETATM    5  O5  UNL     1     -15.406  15.997 -17.505  1.00  0.00    -0.373 OA
HETATM    6  C14 UNL     1     -15.506  17.314 -17.885  1.00  0.00     0.147 C
HETATM    7  C15 UNL     1     -16.899  17.876 -17.721  1.00  0.00     0.042 C
ENDROOT
BRANCH   4   8
HETATM    8  C10 UNL     1     -13.507  16.528 -16.297  1.00  0.00     0.056 A
HETATM    9  C11 UNL     1     -14.148  16.556 -15.052  1.00  0.00     0.094 A
HETATM   10  C12 UNL     1     -13.445  17.400 -14.219  1.00  0.00     0.127 A
HETATM   11  N1  UNL     1     -12.404  17.883 -14.911  1.00  0.00    -0.344 N
HETATM   12  C13 UNL     1     -12.432  17.362 -16.171  1.00  0.00     0.151 A
ATOM     13  H1  UNL     1     -11.705  18.535 -14.554  1.00  0.00     0.167 HD
BRANCH   9  14
HETATM   14  O3  UNL     1     -15.293  15.864 -14.693  1.00  0.00    -0.359 OA
ATOM     15  H3  UNL     1     -15.859  15.364 -15.269  1.00  0.00     0.217 HD
ENDBRANCH   9  14
BRANCH  12  16
HETATM   16  O4  UNL     1     -11.531  17.628 -17.158  1.00  0.00    -0.346 OA
ATOM     17  H4  UNL     1     -11.324  18.495 -17.488  1.00  0.00     0.219 HD
ENDBRANCH  12  16
ENDBRANCH   4   8
BRANCH   1  18
HETATM   18  O2  UNL     1     -16.131  16.850 -20.158  1.00  0.00    -0.310 OA
BRANCH  18  19
HETATM   19  C5  UNL     1     -16.681  17.567 -21.210  1.00  0.00     0.289 C
HETATM   20  O1  UNL     1     -17.857  18.024 -21.004  1.00  0.00    -0.260 OA
BRANCH  19  21
HETATM   21  C3  UNL     1     -16.005  17.804 -22.465  1.00  0.00     0.009 C
HETATM   22  C2  UNL     1     -14.878  17.194 -22.721  1.00  0.00    -0.018 C
HETATM   23  C1  UNL     1     -14.185  17.439 -24.012  1.00  0.00     0.036 C
HETATM   24  C4  UNL     1     -16.587  18.729 -23.447  1.00  0.00     0.054 C
ENDBRANCH  19  21
ENDBRANCH  18  19
ENDBRANCH   1  18
TORSDOF 6
ENDMDL