MODEL 1
REMARK VINA RESULT: -5.898125566      0.000      0.000
REMARK  5 active torsions:
REMARK  status: ('A' for Active; 'I' for Inactive)
REMARK    1  A    between atoms: C2_2  and  O1_5
REMARK    2  A    between atoms: O1_5  and  C5_6
REMARK       I    between atoms: C5_6  and  N1_8
REMARK    3  A    between atoms: N1_8  and  C6_10
REMARK    4  A    between atoms: C11_15  and  N2_16
REMARK    5  A    between atoms: C12_17  and  O3_18
ROOT
HETATM    1  C6  UNL     1     -13.935  19.232 -14.844  1.00  0.00     0.110 C
HETATM    2  C7  UNL     1     -12.839  20.187 -15.327  1.00  0.00     0.027 C
HETATM    3  C8  UNL     1     -12.123  20.649 -14.053  1.00  0.00     0.002 C
HETATM    4  C9  UNL     1     -13.087  21.396 -13.162  1.00  0.00     0.002 C
HETATM    5  C10 UNL     1     -14.259  20.522 -12.820  1.00  0.00     0.028 C
HETATM    6  C11 UNL     1     -14.944  20.092 -14.123  1.00  0.00     0.119 C
ENDROOT
BRANCH   1   7
HETATM    7  N1  UNL     1     -14.476  18.433 -15.880  1.00  0.00    -0.330 N
HETATM    8  C5  UNL     1     -14.034  17.103 -16.059  1.00  0.00     0.361 C
HETATM    9  O2  UNL     1     -13.151  16.588 -15.311  1.00  0.00    -0.238 OA
ATOM     10  H1  UNL     1     -15.189  18.819 -16.499  1.00  0.00     0.165 HD
BRANCH   8  11
HETATM   11  O1  UNL     1     -14.547  16.297 -17.066  1.00  0.00    -0.294 OA
BRANCH  11  12
HETATM   12  C2  UNL     1     -14.034  16.413 -18.377  1.00  0.00     0.061 C
HETATM   13  C1  UNL     1     -12.773  17.223 -18.418  1.00  0.00     0.046 C
HETATM   14  C3  UNL     1     -13.701  15.033 -18.944  1.00  0.00     0.046 C
HETATM   15  C4  UNL     1     -15.120  17.033 -19.228  1.00  0.00     0.046 C
ENDBRANCH  11  12
ENDBRANCH   8  11
ENDBRANCH   1   7
BRANCH   6  16
HETATM   16  N2  UNL     1     -16.193  19.441 -13.891  1.00  0.00    -0.272 N
HETATM   17  C12 UNL     1     -17.411  19.933 -14.259  1.00  0.00     0.162 A
HETATM   18  C13 UNL     1     -18.404  19.056 -13.886  1.00  0.00     0.149 A
HETATM   19  N3  UNL     1     -17.781  18.023 -13.287  1.00  0.00    -0.314 N
HETATM   20  C14 UNL     1     -16.462  18.273 -13.301  1.00  0.00     0.328 A
ATOM     21  H3  UNL     1     -18.231  17.197 -12.892  1.00  0.00     0.170 HD
HETATM   22  O4  UNL     1     -15.612  17.491 -12.813  1.00  0.00    -0.246 OA
BRANCH  17  23
HETATM   23  O3  UNL     1     -17.662  21.137 -14.915  1.00  0.00    -0.345 OA
ATOM     24  H3  UNL     1     -18.367  21.748 -14.734  1.00  0.00     0.219 HD
ENDBRANCH  17  23
ENDBRANCH   6  16
TORSDOF 5
ENDMDL