MODEL 1
REMARK VINA RESULT: -7.333034378      0.000      0.000
REMARK  5 active torsions:
REMARK  status: ('A' for Active; 'I' for Inactive)
REMARK    1  A    between atoms: C2_2  and  N1_3
REMARK    2  A    between atoms: C3_4  and  O1_5
REMARK    3  A    between atoms: C6_9  and  O2_10
REMARK    4  A    between atoms: O2_10  and  O3_11
REMARK    5  A    between atoms: C8_15  and  C10_17
ROOT
HETATM    1  N1  UNL     1     -16.818  17.957 -21.544  1.00  0.00    -0.304 N
HETATM    2  C3  UNL     1     -16.773  17.533 -20.288  1.00  0.00     0.154 A
HETATM    3  C4  UNL     1     -15.533  17.000 -20.058  1.00  0.00     0.042 A
HETATM    4  C5  UNL     1     -14.836  17.123 -21.234  1.00  0.00     0.134 A
HETATM    5  C6  UNL     1     -15.659  17.725 -22.155  1.00  0.00     0.216 A
HETATM    6  O4  UNL     1     -13.558  16.606 -21.103  1.00  0.00    -0.345 OA
HETATM    7  C7  UNL     1     -13.485  15.844 -19.927  1.00  0.00     0.190 C
HETATM    8  C8  UNL     1     -14.651  16.359 -19.092  1.00  0.00     0.016 C
HETATM    9  C9  UNL     1     -15.298  15.115 -18.482  1.00  0.00     0.023 C
ENDROOT
BRANCH   8  10
HETATM   10  C10 UNL     1     -14.096  17.247 -18.044  1.00  0.00     0.001 C
HETATM   11  C11 UNL     1     -15.033  17.621 -16.944  1.00  0.00     0.006 C
HETATM   12  C12 UNL     1     -14.326  17.737 -15.605  1.00  0.00     0.005 C
HETATM   13  C13 UNL     1     -12.949  18.281 -15.711  1.00  0.00    -0.019 C
HETATM   14  C14 UNL     1     -12.903  19.781 -15.886  1.00  0.00     0.010 C
HETATM   15  C15 UNL     1     -12.075  17.618 -16.747  1.00  0.00     0.005 C
HETATM   16  C16 UNL     1     -12.900  16.534 -17.403  1.00  0.00     0.006 C
ENDBRANCH   8  10
BRANCH   2  17
HETATM   17  O1  UNL     1     -17.806  17.602 -19.318  1.00  0.00    -0.345 OA
ATOM     18  H1  UNL     1     -18.554  17.023 -19.230  1.00  0.00     0.219 HD
ENDBRANCH   2  17
BRANCH   1  19
HETATM   19  C2  UNL     1     -17.949  18.591 -22.209  1.00  0.00     0.129 C
HETATM   20  C1  UNL     1     -18.641  17.672 -23.165  1.00  0.00     0.027 C
ENDBRANCH   1  19
BRANCH   5  21
HETATM   21  O2  UNL     1     -15.315  18.032 -23.497  1.00  0.00    -0.178 OA
BRANCH  21  22
HETATM   22  O3  UNL     1     -14.484  17.189 -24.157  1.00  0.00    -0.243 OA
ATOM     23  H3  UNL     1     -14.859  16.595 -24.797  1.00  0.00     0.254 HD
ENDBRANCH  21  22
ENDBRANCH   5  21
TORSDOF 5
ENDMDL