MODEL 4
REMARK VINA RESULT: -6.595550373      1.335      1.415
REMARK  5 active torsions:
REMARK  status: ('A' for Active; 'I' for Inactive)
REMARK    1  A    between atoms: C1_2  and  C2_4
REMARK    2  A    between atoms: C2_4  and  C3_5
REMARK    3  A    between atoms: C3_5  and  N1_6
REMARK    4  A    between atoms: C4_7  and  O3_8
REMARK    5  A    between atoms: C7_12  and  O4_13
ROOT
HETATM    1  N1  UNL     1     -16.692  17.635 -20.401  1.00  0.00    -0.307 N
HETATM    2  C4  UNL     1     -16.862  17.114 -19.180  1.00  0.00     0.153 A
HETATM    3  C5  UNL     1     -15.795  16.300 -18.872  1.00  0.00     0.035 A
HETATM    4  C6  UNL     1     -14.936  16.329 -19.958  1.00  0.00     0.035 A
HETATM    5  C7  UNL     1     -15.526  17.162 -20.876  1.00  0.00     0.153 A
HETATM    6  C8  UNL     1     -13.811  15.437 -19.571  1.00  0.00     0.165 C
HETATM    7  O5  UNL     1     -14.511  14.480 -18.797  1.00  0.00    -0.370 OA
HETATM    8  C9  UNL     1     -15.123  15.388 -17.898  1.00  0.00     0.165 C
HETATM    9  C10 UNL     1     -13.914  16.052 -17.310  1.00  0.00     0.026 C
HETATM   10  C11 UNL     1     -14.278  17.416 -16.833  1.00  0.00     0.008 C
HETATM   11  C12 UNL     1     -13.092  18.310 -16.578  1.00  0.00     0.001 C
HETATM   12  C13 UNL     1     -11.960  18.080 -17.554  1.00  0.00     0.001 C
HETATM   13  C14 UNL     1     -12.598  17.512 -18.829  1.00  0.00     0.008 C
HETATM   14  C15 UNL     1     -12.986  16.105 -18.530  1.00  0.00     0.026 C
ENDROOT
BRANCH   1  15
HETATM   15  C3  UNL     1     -17.639  18.537 -21.025  1.00  0.00     0.144 C
BRANCH  15  16
HETATM   16  C2  UNL     1     -18.815  17.776 -21.620  1.00  0.00     0.133 C
BRANCH  16  17
HETATM   17  C1  UNL     1     -20.049  17.992 -20.852  1.00  0.00     0.174 C
HETATM   18  O1  UNL     1     -20.418  19.121 -20.442  1.00  0.00    -0.648 OA
HETATM   19  O2  UNL     1     -20.854  16.906 -20.560  1.00  0.00    -0.648 OA
ENDBRANCH  16  17
ENDBRANCH  15  16
ENDBRANCH   1  15
BRANCH   2  20
HETATM   20  O3  UNL     1     -17.924  17.331 -18.333  1.00  0.00    -0.345 OA
ATOM     21  H3  UNL     1     -18.051  16.950 -17.473  1.00  0.00     0.219 HD
ENDBRANCH   2  20
BRANCH   5  22
HETATM   22  O4  UNL     1     -14.976  17.458 -22.114  1.00  0.00    -0.345 OA
ATOM     23  H4  UNL     1     -14.381  16.903 -22.604  1.00  0.00     0.219 HD
ENDBRANCH   5  22
TORSDOF 5
ENDMDL