MODEL 4
REMARK VINA RESULT: -6.621696538      2.722      4.001
REMARK  6 active torsions:
REMARK  status: ('A' for Active; 'I' for Inactive)
REMARK    1  A    between atoms: O1_2  and  C2_3
REMARK    2  A    between atoms: C2_3  and  C3_5
REMARK    3  A    between atoms: C3_5  and  C6_8
REMARK    4  A    between atoms: C8_10  and  C9_11
REMARK    5  A    between atoms: C11_13  and  O3_14
REMARK    6  A    between atoms: C12_18  and  O4_19
ROOT
HETATM    1  C9  UNL     1     -16.589  17.831 -16.260  1.00  0.00     0.078 A
HETATM    2  C10 UNL     1     -16.992  17.830 -17.675  1.00  0.00     0.016 A
HETATM    3  C11 UNL     1     -16.622  17.419 -18.965  1.00  0.00     0.149 A
HETATM    4  N1  UNL     1     -17.582  17.815 -19.816  1.00  0.00    -0.317 N
ATOM      5  H1  UNL     1     -17.589  17.658 -20.824  1.00  0.00     0.170 HD
HETATM    6  C12 UNL     1     -18.529  18.452 -19.112  1.00  0.00     0.151 A
HETATM    7  C13 UNL     1     -18.193  18.478 -17.776  1.00  0.00     0.035 A
HETATM    8  C14 UNL     1     -18.683  18.960 -16.465  1.00  0.00     0.190 A
HETATM    9  O5  UNL     1     -17.924  19.903 -15.775  1.00  0.00    -0.369 OA
HETATM   10  C15 UNL     1     -17.599  18.593 -15.490  1.00  0.00     0.168 A
ENDROOT
BRANCH   1  11
HETATM   11  C8  UNL     1     -15.206  18.328 -16.097  1.00  0.00    -0.011 C
HETATM   12  C6  UNL     1     -14.326  17.797 -15.263  1.00  0.00    -0.069 C
HETATM   13  C7  UNL     1     -14.708  16.622 -14.412  1.00  0.00     0.044 C
BRANCH  12  14
HETATM   14  C3  UNL     1     -12.948  18.333 -15.136  1.00  0.00     0.063 C
HETATM   15  C4  UNL     1     -12.658  18.722 -13.698  1.00  0.00     0.030 C
HETATM   16  C5  UNL     1     -12.792  19.556 -16.006  1.00  0.00     0.030 C
BRANCH  14  17
HETATM   17  C2  UNL     1     -11.985  17.309 -15.618  1.00  0.00     0.270 C
HETATM   18  O2  UNL     1     -11.167  16.721 -14.862  1.00  0.00    -0.264 OA
BRANCH  17  19
HETATM   19  O1  UNL     1     -11.979  16.977 -16.953  1.00  0.00    -0.326 OA
HETATM   20  C1  UNL     1     -12.527  15.769 -17.402  1.00  0.00     0.213 C
ENDBRANCH  17  19
ENDBRANCH  14  17
ENDBRANCH  12  14
ENDBRANCH   1  11
BRANCH   3  21
HETATM   21  O3  UNL     1     -15.442  16.719 -19.261  1.00  0.00    -0.346 OA
ATOM     22  H3  UNL     1     -14.865  16.345 -18.606  1.00  0.00     0.219 HD
ENDBRANCH   3  21
BRANCH   6  23
HETATM   23  O4  UNL     1     -19.685  19.004 -19.661  1.00  0.00    -0.346 OA
ATOM     24  H4  UNL     1     -20.412  19.347 -19.154  1.00  0.00     0.219 HD
ENDBRANCH   6  23
TORSDOF 6
ENDMDL