MODEL 1
REMARK VINA RESULT: -6.180404857      0.000      0.000
REMARK  7 active torsions:
REMARK  status: ('A' for Active; 'I' for Inactive)
REMARK    1  A    between atoms: C2_2  and  N1_3
REMARK    2  A    between atoms: N1_3  and  C3_4
REMARK    3  A    between atoms: N1_3  and  C11_17
REMARK    4  A    between atoms: C5_6  and  O1_7
REMARK    5  A    between atoms: N2_9  and  C6_10
REMARK    6  A    between atoms: C10_14  and  O2_15
REMARK    7  A    between atoms: C14_20  and  O3_21
ROOT
HETATM    1  C3  UNL     1     -14.139  18.229 -15.910  1.00  0.00     0.086 A
HETATM    2  C4  UNL     1     -12.796  18.150 -16.218  1.00  0.00     0.089 A
HETATM    3  C5  UNL     1     -12.628  17.547 -17.447  1.00  0.00     0.147 A
HETATM    4  N2  UNL     1     -13.862  17.254 -17.897  1.00  0.00    -0.298 N
HETATM    5  C10 UNL     1     -14.792  17.661 -16.980  1.00  0.00     0.172 A
ENDROOT
BRANCH   1   6
HETATM    6  N1  UNL     1     -14.676  18.803 -14.700  1.00  0.00    -0.373 N
BRANCH   6   7
HETATM    7  C2  UNL     1     -14.602  18.052 -13.477  1.00  0.00     0.119 C
HETATM    8  C1  UNL     1     -15.379  16.784 -13.427  1.00  0.00     0.026 C
ENDBRANCH   6   7
BRANCH   6   9
HETATM    9  C11 UNL     1     -15.262  20.124 -14.828  1.00  0.00     0.085 C
HETATM   10  C12 UNL     1     -16.717  20.116 -14.434  1.00  0.00     0.028 C
HETATM   11  C13 UNL     1     -17.321  21.430 -14.137  1.00  0.00     0.034 C
HETATM   12  C14 UNL     1     -16.409  22.602 -14.085  1.00  0.00     0.118 C
HETATM   13  C15 UNL     1     -15.136  22.178 -13.396  1.00  0.00     0.034 C
HETATM   14  C16 UNL     1     -14.399  21.118 -14.181  1.00  0.00     0.028 C
BRANCH  12  15
HETATM   15  O3  UNL     1     -16.167  23.172 -15.329  1.00  0.00    -0.396 OA
ATOM     16  H3  UNL     1     -15.250  23.167 -15.577  1.00  0.00     0.210 HD
ENDBRANCH  12  15
ENDBRANCH   6   9
ENDBRANCH   1   6
BRANCH   5  17
HETATM   17  O2  UNL     1     -16.156  17.527 -17.095  1.00  0.00    -0.344 OA
ATOM     18  H2  UNL     1     -16.637  17.516 -17.915  1.00  0.00     0.219 HD
ENDBRANCH   5  17
BRANCH   3  19
HETATM   19  O1  UNL     1     -11.406  17.290 -18.101  1.00  0.00    -0.346 OA
ATOM     20  H1  UNL     1     -10.757  17.931 -18.366  1.00  0.00     0.219 HD
ENDBRANCH   3  19
BRANCH   4  21
HETATM   21  C6  UNL     1     -14.142  16.606 -19.171  1.00  0.00     0.030 C
HETATM   22  C7  UNL     1     -15.490  17.018 -19.728  1.00  0.00     0.038 C
HETATM   23  C8  UNL     1     -13.104  16.969 -20.214  1.00  0.00     0.038 C
HETATM   24  C9  UNL     1     -14.094  15.093 -19.035  1.00  0.00     0.038 C
ENDBRANCH   4  21
TORSDOF 7
ENDMDL