MODEL 4
REMARK VINA RESULT: -7.657231056      1.371      1.956
REMARK  7 active torsions:
REMARK  status: ('A' for Active; 'I' for Inactive)
REMARK    1  A    between atoms: C2_2  and  O1_4
REMARK    2  A    between atoms: O1_4  and  C4_5
REMARK    3  A    between atoms: C4_5  and  C5_7
REMARK    4  A    between atoms: C6_8  and  C7_9
REMARK    5  A    between atoms: C9_11  and  O3_12
REMARK    6  A    between atoms: C12_16  and  O4_17
REMARK    7  A    between atoms: C15_21  and  O5_22
ROOT
HETATM    1  C7  UNL     1     -16.296  17.579 -18.414  1.00  0.00     0.000 A
HETATM    2  C8  UNL     1     -17.673  17.797 -18.376  1.00  0.00     0.051 A
HETATM    3  C9  UNL     1     -18.448  17.872 -19.532  1.00  0.00     0.073 A
HETATM    4  C10 UNL     1     -17.860  17.730 -20.747  1.00  0.00    -0.013 A
HETATM    5  C11 UNL     1     -16.513  17.516 -20.798  1.00  0.00    -0.015 A
HETATM    6  C12 UNL     1     -15.708  17.436 -19.653  1.00  0.00     0.083 A
HETATM    7  C13 UNL     1     -15.877  17.362 -22.118  1.00  0.00     0.044 C
HETATM    8  C14 UNL     1     -16.408  18.296 -23.164  1.00  0.00     0.037 C
HETATM    9  C15 UNL     1     -17.829  18.710 -22.954  1.00  0.00     0.122 C
HETATM   10  C16 UNL     1     -18.595  17.792 -22.040  1.00  0.00     0.073 C
ENDROOT
BRANCH   1  11
HETATM   11  C6  UNL     1     -15.538  17.511 -17.176  1.00  0.00     0.020 C
HETATM   12  C5  UNL     1     -15.746  18.230 -16.102  1.00  0.00     0.083 C
BRANCH  12  13
HETATM   13  C4  UNL     1     -14.932  18.095 -14.893  1.00  0.00     0.283 C
HETATM   14  O2  UNL     1     -14.946  19.016 -14.034  1.00  0.00    -0.260 OA
BRANCH  13  15
HETATM   15  O1  UNL     1     -14.142  17.002 -14.639  1.00  0.00    -0.314 OA
BRANCH  15  16
HETATM   16  C2  UNL     1     -12.746  17.060 -14.762  1.00  0.00     0.124 C
HETATM   17  C1  UNL     1     -12.328  17.969 -15.889  1.00  0.00     0.040 C
HETATM   18  C3  UNL     1     -12.266  15.646 -15.092  1.00  0.00     0.040 C
ENDBRANCH  15  16
ENDBRANCH  13  15
ENDBRANCH  12  13
ENDBRANCH   1  11
BRANCH   6  19
HETATM   19  O4  UNL     1     -14.357  17.219 -19.763  1.00  0.00    -0.359 OA
ATOM     20  H4  UNL     1     -14.026  16.385 -20.076  1.00  0.00     0.217 HD
ENDBRANCH   6  19
BRANCH   3  21
HETATM   21  O3  UNL     1     -19.819  18.090 -19.477  1.00  0.00    -0.360 OA
ATOM     22  H3  UNL     1     -20.400  17.491 -19.024  1.00  0.00     0.217 HD
ENDBRANCH   3  21
BRANCH   9  23
HETATM   23  O5  UNL     1     -18.491  18.736 -24.187  1.00  0.00    -0.395 OA
ATOM     24  H5  UNL     1     -18.600  19.637 -24.467  1.00  0.00     0.210 HD
ENDBRANCH   9  23
TORSDOF 7
ENDMDL