MODEL 3
REMARK VINA RESULT: -6.348830806      1.814      2.631
REMARK  5 active torsions:
REMARK  status: ('A' for Active; 'I' for Inactive)
REMARK    1  A    between atoms: C2_2  and  C3_3
REMARK    2  A    between atoms: C3_3  and  N1_4
REMARK    3  A    between atoms: N1_4  and  C4_7
REMARK    4  A    between atoms: C6_9  and  C8_11
REMARK    5  A    between atoms: C9_12  and  C10_13
ROOT
HETATM    1  C8  UNL     1     -13.647  16.551 -18.360  1.00  0.00    -0.090 C
HETATM    2  C9  UNL     1     -14.032  16.769 -19.492  1.00  0.00    -0.074 C
ENDROOT
BRANCH   2   3
HETATM    3  C10 UNL     1     -14.508  17.045 -20.831  1.00  0.00     0.109 C
HETATM    4  C11 UNL     1     -15.691  17.515 -21.072  1.00  0.00     0.131 C
HETATM    5  O1  UNL     1     -16.568  17.780 -20.055  1.00  0.00    -0.276 OA
HETATM    6  S2  UNL     1     -16.213  17.831 -22.742  1.00  0.00    -0.028 SA
HETATM    7  C12 UNL     1     -17.882  18.123 -20.131  1.00  0.00     0.222 C
HETATM    8  S1  UNL     1     -18.664  18.378 -18.685  1.00  0.00    -0.032 SA
HETATM    9  N2  UNL     1     -18.581  18.268 -21.329  1.00  0.00    -0.308 N
HETATM   10  C13 UNL     1     -17.996  18.072 -22.628  1.00  0.00     0.147 C
ATOM     11  H2  UNL     1     -19.566  18.529 -21.281  1.00  0.00     0.171 HD
HETATM   12  N3  UNL     1     -18.688  18.064 -23.637  1.00  0.00    -0.379 N
ATOM     13  H32 UNL     1     -19.697  18.200 -23.572  1.00  0.00     0.158 HD
ATOM     14  H31 UNL     1     -18.273  17.924 -24.558  1.00  0.00     0.158 HD
ENDBRANCH   2   3
BRANCH   1  15
HETATM   15  C6  UNL     1     -13.205  16.297 -16.980  1.00  0.00     0.050 A
HETATM   16  C4  UNL     1     -14.130  16.838 -15.927  1.00  0.00     0.207 A
HETATM   17  C5  UNL     1     -12.836  17.502 -16.195  1.00  0.00     0.059 A
HETATM   18  C7  UNL     1     -12.395  15.065 -16.730  1.00  0.00     0.031 C
BRANCH  16  19
HETATM   19  N1  UNL     1     -14.309  15.969 -14.788  1.00  0.00    -0.069 N
ATOM     20  H12 UNL     1     -13.454  15.911 -14.235  1.00  0.00     0.277 HD
ATOM     21  H11 UNL     1     -14.383  14.994 -15.080  1.00  0.00     0.277 HD
BRANCH  19  22
HETATM   22  C3  UNL     1     -15.435  16.351 -13.966  1.00  0.00     0.232 C
BRANCH  22  23
HETATM   23  C2  UNL     1     -15.025  17.616 -13.199  1.00  0.00     0.023 C
HETATM   24  C1  UNL     1     -16.280  18.094 -12.456  1.00  0.00     0.007 C
ENDBRANCH  22  23
ENDBRANCH  19  22
ENDBRANCH  16  19
ENDBRANCH   1  15
TORSDOF 5
ENDMDL