MODEL 3
REMARK VINA RESULT: -7.170276154      2.552      8.031
REMARK  5 active torsions:
REMARK  status: ('A' for Active; 'I' for Inactive)
REMARK    1  A    between atoms: C5_8  and  N2_9
REMARK       I    between atoms: N2_9  and  C6_11
REMARK       I    between atoms: C6_11  and  N3_13
REMARK    2  A    between atoms: N3_13  and  N4_15
REMARK       I    between atoms: N4_15  and  C7_17
REMARK    3  A    between atoms: C7_17  and  O4_19
REMARK    4  A    between atoms: O4_19  and  C8_20
REMARK    5  A    between atoms: C8_20  and  C9_21
ROOT
HETATM    1  N2  UNL     1     -14.377  17.826 -14.880  1.00  0.00    -0.303 N
ATOM      2  H2  UNL     1     -14.996  17.782 -14.071  1.00  0.00     0.171 HD
HETATM    3  C6  UNL     1     -14.957  17.870 -16.165  1.00  0.00     0.339 C
HETATM    4  O2  UNL     1     -14.214  17.923 -17.169  1.00  0.00    -0.245 OA
HETATM    5  N3  UNL     1     -16.357  17.854 -16.350  1.00  0.00    -0.247 N
ATOM      6  H3  UNL     1     -16.964  17.810 -15.530  1.00  0.00     0.192 HD
ENDROOT
BRANCH   5   7
HETATM    7  N4  UNL     1     -16.938  17.898 -17.621  1.00  0.00    -0.241 N
HETATM    8  C7  UNL     1     -18.307  18.237 -17.791  1.00  0.00     0.379 C
HETATM    9  O3  UNL     1     -18.967  18.492 -16.755  1.00  0.00    -0.237 OA
ATOM     10  H4  UNL     1     -16.370  17.683 -18.440  1.00  0.00     0.192 HD
BRANCH   8  11
HETATM   11  O4  UNL     1     -18.951  18.301 -18.992  1.00  0.00    -0.302 OA
BRANCH  11  12
HETATM   12  C8  UNL     1     -18.455  18.792 -20.192  1.00  0.00     0.185 C
BRANCH  12  13
HETATM   13  C9  UNL     1     -18.089  17.734 -21.194  1.00  0.00     0.010 C
HETATM   14  C10 UNL     1     -16.615  17.519 -21.166  1.00  0.00     0.007 C
HETATM   15  C11 UNL     1     -16.123  17.991 -22.517  1.00  0.00     0.000 C
HETATM   16  C12 UNL     1     -17.329  17.866 -23.442  1.00  0.00     0.000 C
HETATM   17  C13 UNL     1     -18.487  18.199 -22.556  1.00  0.00     0.007 C
ENDBRANCH  12  13
ENDBRANCH  11  12
ENDBRANCH   8  11
ENDBRANCH   5   7
BRANCH   1  18
HETATM   18  C5  UNL     1     -12.975  17.839 -14.656  1.00  0.00     0.092 A
HETATM   19  C2  UNL     1     -12.140  16.772 -14.916  1.00  0.00     0.058 A
HETATM   20  C1  UNL     1     -12.522  15.444 -15.460  1.00  0.00     0.072 C
HETATM   21  N1  UNL     1     -10.903  17.206 -14.566  1.00  0.00    -0.263 N
HETATM   22  O1  UNL     1     -10.984  18.438 -14.129  1.00  0.00    -0.240 OA
ATOM     23  H1  UNL     1     -10.045  16.659 -14.632  1.00  0.00     0.194 HD
HETATM   24  C3  UNL     1     -12.213  18.857 -14.166  1.00  0.00     0.101 A
HETATM   25  C4  UNL     1     -12.724  20.213 -13.750  1.00  0.00     0.081 C
ENDBRANCH   1  18
TORSDOF 5
ENDMDL