MODEL 1
REMARK VINA RESULT: -6.914123165      0.000      0.000
REMARK  6 active torsions:
REMARK  status: ('A' for Active; 'I' for Inactive)
REMARK    1  A    between atoms: C2_2  and  N1_3
REMARK    2  A    between atoms: C3_4  and  O1_5
REMARK    3  A    between atoms: C6_9  and  O2_10
REMARK    4  A    between atoms: C7_12  and  O3_13
REMARK    5  A    between atoms: C12_20  and  C13_21
REMARK    6  A    between atoms: C13_21  and  C14_22
ROOT
HETATM    1  N1  UNL     1     -15.300  18.004 -15.522  1.00  0.00    -0.308 N
HETATM    2  C3  UNL     1     -16.332  18.271 -16.359  1.00  0.00     0.153 A
HETATM    3  C4  UNL     1     -16.243  17.435 -17.451  1.00  0.00     0.042 A
HETATM    4  C5  UNL     1     -15.115  16.662 -17.224  1.00  0.00     0.071 A
HETATM    5  C6  UNL     1     -14.532  17.020 -16.022  1.00  0.00     0.156 A
HETATM    6  C7  UNL     1     -15.006  15.747 -18.403  1.00  0.00     0.292 C
HETATM    7  C8  UNL     1     -13.623  15.355 -18.717  1.00  0.00     0.077 C
HETATM    8  C9  UNL     1     -12.890  16.180 -19.703  1.00  0.00     0.007 C
HETATM    9  C10 UNL     1     -13.779  16.783 -20.757  1.00  0.00     0.030 C
HETATM   10  C11 UNL     1     -14.861  17.529 -19.999  1.00  0.00     0.278 C
HETATM   11  N2  UNL     1     -15.693  16.500 -19.426  1.00  0.00     0.137 N
HETATM   12  C12 UNL     1     -16.865  17.032 -18.763  1.00  0.00     0.265 C
ENDROOT
BRANCH  12  13
HETATM   13  C13 UNL     1     -17.532  18.165 -19.450  1.00  0.00     0.045 C
BRANCH  13  14
HETATM   14  C14 UNL     1     -18.377  17.750 -20.620  1.00  0.00    -0.020 C
HETATM   15  C15 UNL     1     -17.850  18.267 -21.930  1.00  0.00     0.009 C
HETATM   16  C16 UNL     1     -19.795  18.330 -20.500  1.00  0.00     0.009 C
ENDBRANCH  13  14
ENDBRANCH  12  13
BRANCH   2  17
HETATM   17  O1  UNL     1     -17.326  19.211 -16.191  1.00  0.00    -0.345 OA
ATOM     18  H1  UNL     1     -18.230  19.058 -15.942  1.00  0.00     0.219 HD
ENDBRANCH   2  17
BRANCH   6  19
HETATM   19  O3  UNL     1     -15.769  14.611 -18.145  1.00  0.00    -0.359 OA
ATOM     20  H3  UNL     1     -15.528  13.942 -18.774  1.00  0.00     0.213 HD
ENDBRANCH   6  19
BRANCH   1  21
HETATM   21  C2  UNL     1     -15.051  18.671 -14.272  1.00  0.00     0.129 C
HETATM   22  C1  UNL     1     -15.600  17.903 -13.092  1.00  0.00     0.027 C
ENDBRANCH   1  21
BRANCH   5  23
HETATM   23  O2  UNL     1     -13.381  16.465 -15.454  1.00  0.00    -0.345 OA
ATOM     24  H2  UNL     1     -12.477  16.703 -15.627  1.00  0.00     0.219 HD
ENDBRANCH   5  23
TORSDOF 6
ENDMDL