MODEL 4
REMARK VINA RESULT: -6.197974315      3.784      4.973
REMARK  8 active torsions:
REMARK  status: ('A' for Active; 'I' for Inactive)
REMARK       I    between atoms: N1_2  and  C2_4
REMARK       I    between atoms: C2_4  and  N2_6
REMARK    1  A    between atoms: N2_6  and  C3_8
REMARK    2  A    between atoms: C3_8  and  C9_25
REMARK    3  A    between atoms: N3_9  and  C4_11
REMARK    4  A    between atoms: C6_13  and  C7_14
REMARK    5  A    between atoms: C7_14  and  O2_15
REMARK    6  A    between atoms: O2_15  and  S1_16
REMARK    7  A    between atoms: S1_16  and  N4_17
REMARK    8  A    between atoms: C8_22  and  O5_23
ROOT
HETATM    1  C4  UNL     1     105.647  16.958  18.330  1.00  0.00     0.112 C
HETATM    2  C5  UNL     1     105.488  16.321  19.708  1.00  0.00     0.037 C
HETATM    3  C6  UNL     1     106.047  17.630  20.293  1.00  0.00     0.044 C
HETATM    4  C8  UNL     1     106.617  17.966  18.948  1.00  0.00     0.147 C
ENDROOT
BRANCH   1   5
HETATM    5  N3  UNL     1     104.501  17.647  17.842  1.00  0.00    -0.372 N
HETATM    6  C3  UNL     1     104.337  18.083  16.607  1.00  0.00     0.084 C
ATOM      7  H3  UNL     1     103.744  17.819  18.502  1.00  0.00     0.161 HD
BRANCH   6   8
HETATM    8  N2  UNL     1     105.384  17.847  15.703  1.00  0.00    -0.298 N
HETATM    9  C2  UNL     1     106.370  18.795  15.376  1.00  0.00     0.321 C
HETATM   10  N1  UNL     1     107.377  18.439  14.430  1.00  0.00    -0.347 N
HETATM   11  O1  UNL     1     106.393  19.923  15.873  1.00  0.00    -0.247 OA
HETATM   12  C1  UNL     1     108.383  19.419  14.094  1.00  0.00     0.151 C
ATOM     13  H1  UNL     1     107.387  17.513  14.002  1.00  0.00     0.163 HD
ATOM     14  H2  UNL     1     105.433  16.931  15.256  1.00  0.00     0.172 HD
ENDBRANCH   6   8
BRANCH   6  15
HETATM   15  C9  UNL     1     103.049  18.758  16.284  1.00  0.00     0.045 C
HETATM   16  C10 UNL     1     101.940  18.181  17.186  1.00  0.00     0.017 C
HETATM   17  C11 UNL     1     102.615  18.536  14.855  1.00  0.00     0.017 C
ENDBRANCH   6  15
ENDBRANCH   1   5
BRANCH   4  18
HETATM   18  O5  UNL     1     107.942  17.631  18.730  1.00  0.00    -0.393 OA
ATOM     19  H5  UNL     1     108.531  18.056  19.342  1.00  0.00     0.210 HD
ENDBRANCH   4  18
BRANCH   3  20
HETATM   20  C7  UNL     1     107.060  17.320  21.368  1.00  0.00     0.199 C
BRANCH  20  21
HETATM   21  O2  UNL     1     107.466  18.401  22.104  1.00  0.00    -0.259 OA
BRANCH  21  22
HETATM   22  S1  UNL     1     107.398  18.111  23.757  1.00  0.00     0.355 S
HETATM   23  O3  UNL     1     108.713  18.566  24.347  1.00  0.00    -0.176 OA
HETATM   24  O4  UNL     1     107.264  16.652  24.010  1.00  0.00    -0.176 OA
BRANCH  22  25
HETATM   25  N4  UNL     1     106.160  19.052  24.509  1.00  0.00    -0.306 N
ATOM     26  H42 UNL     1     106.181  19.329  25.490  1.00  0.00     0.171 HD
ATOM     27  H41 UNL     1     105.420  19.288  23.847  1.00  0.00     0.171 HD
ENDBRANCH  22  25
ENDBRANCH  21  22
ENDBRANCH  20  21
ENDBRANCH   3  20
TORSDOF 8
ENDMDL