MODEL 1
REMARK VINA RESULT: -6.884360991      0.000      0.000
REMARK  6 active torsions:
REMARK  status: ('A' for Active; 'I' for Inactive)
REMARK    1  A    between atoms: N1_3  and  N2_5
REMARK       I    between atoms: N2_5  and  C3_7
REMARK    2  A    between atoms: C3_7  and  C4_9
REMARK    3  A    between atoms: C5_10  and  C6_11
REMARK    4  A    between atoms: C8_15  and  O4_16
REMARK    5  A    between atoms: C9_18  and  O5_19
REMARK       I    between atoms: N3_22  and  C11_23
REMARK    6  A    between atoms: C11_23  and  C12_25
ROOT
HETATM    1  C4  UNL     1     104.394  17.740  16.938  1.00  0.00     0.121 C
HETATM    2  C5  UNL     1     104.141  16.809  15.760  1.00  0.00     0.127 C
HETATM    3  C7  UNL     1     102.685  16.984  15.403  1.00  0.00     0.134 C
HETATM    4  C8  UNL     1     101.875  16.174  16.375  1.00  0.00     0.172 C
HETATM    5  C9  UNL     1     102.203  16.877  17.701  1.00  0.00     0.172 C
HETATM    6  C10 UNL     1     102.972  18.125  17.300  1.00  0.00     0.133 C
HETATM    7  N3  UNL     1     102.439  18.328  15.952  1.00  0.00    -0.336 N
HETATM    8  C11 UNL     1     101.870  19.444  15.350  1.00  0.00     0.220 C
HETATM    9  O6  UNL     1     101.748  20.510  15.993  1.00  0.00    -0.273 OA
ENDROOT
BRANCH   1  10
HETATM   10  C3  UNL     1     105.115  17.095  18.026  1.00  0.00     0.243 C
HETATM   11  N2  UNL     1     105.637  17.862  19.090  1.00  0.00    -0.270 N
ATOM     12  H2  UNL     1     105.509  18.874  19.096  1.00  0.00     0.190 HD
HETATM   13  O1  UNL     1     105.269  15.840  18.010  1.00  0.00    -0.271 OA
BRANCH  11  14
HETATM   14  N1  UNL     1     106.322  17.249  20.125  1.00  0.00    -0.314 N
HETATM   15  C2  UNL     1     107.533  17.536  20.455  1.00  0.00     0.076 C
HETATM   16  C1  UNL     1     108.344  18.558  19.771  1.00  0.00     0.056 C
ATOM     17  H1  UNL     1     105.838  16.527  20.658  1.00  0.00     0.185 HD
ENDBRANCH  11  14
ENDBRANCH   1  10
BRANCH   2  18
HETATM   18  C6  UNL     1     105.055  17.086  14.657  1.00  0.00     0.180 C
HETATM   19  O2  UNL     1     104.930  16.488  13.557  1.00  0.00    -0.648 OA
HETATM   20  O3  UNL     1     106.066  17.998  14.790  1.00  0.00    -0.648 OA
ENDBRANCH   2  18
BRANCH   5  21
HETATM   21  O5  UNL     1     101.034  17.225  18.380  1.00  0.00    -0.391 OA
ATOM     22  H5  UNL     1     100.797  16.555  19.010  1.00  0.00     0.210 HD
ENDBRANCH   5  21
BRANCH   4  23
HETATM   23  O4  UNL     1     102.233  14.843  16.413  1.00  0.00    -0.391 OA
ATOM     24  H4  UNL     1     101.791  14.351  17.096  1.00  0.00     0.210 HD
ENDBRANCH   4  23
BRANCH   8  25
HETATM   25  C12 UNL     1     101.407  19.374  13.949  1.00  0.00     0.098 C
HETATM   26  C13 UNL     1     102.479  19.924  13.049  1.00  0.00     0.014 C
ENDBRANCH   8  25
TORSDOF 6
ENDMDL