MODEL 1
REMARK VINA RESULT: -5.809614269      0.000      0.000
REMARK  6 active torsions:
REMARK  status: ('A' for Active; 'I' for Inactive)
REMARK    1  A    between atoms: C2_2  and  O2_4
REMARK    2  A    between atoms: O2_4  and  C3_5
REMARK    3  A    between atoms: C5_7  and  S1_8
REMARK    4  A    between atoms: C7_11  and  N1_12
REMARK       I    between atoms: N1_12  and  C8_14
REMARK    5  A    between atoms: C9_19  and  N4_20
REMARK    6  A    between atoms: C12_23  and  O4_24
ROOT
HETATM    1  C3  UNL     1     101.866  18.753  14.896  1.00  0.00     0.085 C
HETATM    2  C4  UNL     1     103.045  18.577  14.375  1.00  0.00     0.028 C
HETATM    3  C5  UNL     1     103.981  17.604  15.054  1.00  0.00     0.129 C
HETATM    4  C7  UNL     1     104.105  18.053  16.473  1.00  0.00     0.140 C
HETATM    5  C9  UNL     1     102.718  18.144  17.099  1.00  0.00     0.280 C
HETATM    6  C12 UNL     1     101.596  17.935  16.136  1.00  0.00     0.210 C
ENDROOT
BRANCH   4   7
HETATM    7  N1  UNL     1     105.003  17.303  17.299  1.00  0.00    -0.356 N
HETATM    8  C8  UNL     1     106.241  17.872  17.741  1.00  0.00     0.182 C
HETATM    9  N2  UNL     1     106.724  18.928  17.191  1.00  0.00    -0.374 N
HETATM   10  N3  UNL     1     106.988  17.289  18.804  1.00  0.00    -0.064 NA
ATOM     11  H22 UNL     1     106.189  19.346  16.430  1.00  0.00     0.158 HD
ATOM     12  H21 UNL     1     107.606  19.333  17.505  1.00  0.00     0.158 HD
ATOM     13  H1  UNL     1     104.759  16.352  17.576  1.00  0.00     0.162 HD
ENDBRANCH   4   7
BRANCH   3  14
HETATM   14  S1  UNL     1     105.507  17.637  14.147  1.00  0.00     0.021 S
HETATM   15  C6  UNL     1     106.086  19.228  13.738  1.00  0.00     0.128 C
HETATM   16  O3  UNL     1     105.454  16.598  12.830  1.00  0.00    -0.258 OA
ENDBRANCH   3  14
BRANCH   5  17
HETATM   17  N4  UNL     1     102.579  17.276  18.259  1.00  0.00     0.089 N
HETATM   18  C10 UNL     1     102.297  15.914  17.974  1.00  0.00     0.310 C
HETATM   19  C11 UNL     1     101.545  17.805  19.122  1.00  0.00     0.310 C
ENDBRANCH   5  17
BRANCH   6  20
HETATM   20  O4  UNL     1     101.296  16.628  15.843  1.00  0.00    -0.387 OA
ATOM     21  H4  UNL     1     102.067  16.073  15.841  1.00  0.00     0.210 HD
ENDBRANCH   6  20
BRANCH   1  22
HETATM   22  O2  UNL     1     100.864  19.583  14.447  1.00  0.00    -0.281 OA
BRANCH  22  23
HETATM   23  C2  UNL     1      99.922  19.389  13.513  1.00  0.00     0.259 C
HETATM   24  C1  UNL     1     100.188  19.824  12.097  1.00  0.00     0.126 C
HETATM   25  O1  UNL     1      98.845  18.857  13.802  1.00  0.00    -0.265 OA
ENDBRANCH  22  23
ENDBRANCH   1  22
TORSDOF 6
ENDMDL