MODEL 4
REMARK VINA RESULT: -6.371638705      4.193      6.968
REMARK  7 active torsions:
REMARK  status: ('A' for Active; 'I' for Inactive)
REMARK    1  A    between atoms: C2_2  and  C5_5
REMARK    2  A    between atoms: C5_5  and  C6_7
REMARK    3  A    between atoms: C6_7  and  O3_9
REMARK    4  A    between atoms: O3_9  and  C7_10
REMARK    5  A    between atoms: C7_10  and  C8_11
REMARK    6  A    between atoms: C13_17  and  N2_18
REMARK    7  A    between atoms: C15_23  and  O4_24
ROOT
HETATM    1  C8  UNL     1     104.114  18.501  15.329  1.00  0.00     0.062 C
HETATM    2  C9  UNL     1     105.213  18.998  14.430  1.00  0.00     0.124 C
HETATM    3  C10 UNL     1     106.199  19.752  15.205  1.00  0.00     0.068 C
HETATM    4  N1  UNL     1     106.990  20.340  15.808  1.00  0.00    -0.197 NA
HETATM    5  C11 UNL     1     104.776  19.855  13.323  1.00  0.00    -0.009 C
HETATM    6  C12 UNL     1     103.741  20.663  13.485  1.00  0.00    -0.002 C
HETATM    7  C13 UNL     1     103.014  20.716  14.765  1.00  0.00     0.136 C
HETATM    8  C15 UNL     1     102.931  19.383  15.457  1.00  0.00     0.152 C
ENDROOT
BRANCH   1   9
HETATM    9  C7  UNL     1     103.696  17.123  14.885  1.00  0.00     0.188 C
BRANCH   9  10
HETATM   10  O3  UNL     1     103.491  16.199  15.904  1.00  0.00    -0.315 OA
BRANCH  10  11
HETATM   11  C6  UNL     1     102.391  16.012  16.688  1.00  0.00     0.330 C
HETATM   12  O2  UNL     1     101.508  15.214  16.284  1.00  0.00    -0.256 OA
BRANCH  11  13
HETATM   13  C5  UNL     1     102.225  16.718  17.975  1.00  0.00     0.231 C
HETATM   14  O1  UNL     1     101.308  17.572  18.065  1.00  0.00    -0.286 OA
BRANCH  13  15
HETATM   15  C2  UNL     1     103.091  16.447  19.118  1.00  0.00     0.020 C
HETATM   16  C1  UNL     1     104.471  17.053  18.977  1.00  0.00     0.023 C
HETATM   17  C3  UNL     1     102.508  17.053  20.402  1.00  0.00     0.023 C
HETATM   18  C4  UNL     1     103.253  14.954  19.273  1.00  0.00     0.023 C
ENDBRANCH  13  15
ENDBRANCH  11  13
ENDBRANCH  10  11
ENDBRANCH   9  10
ENDBRANCH   1   9
BRANCH   8  19
HETATM   19  O4  UNL     1     101.716  18.778  15.145  1.00  0.00    -0.393 OA
ATOM     20  H4  UNL     1     101.046  18.862  15.814  1.00  0.00     0.210 HD
ENDBRANCH   8  19
BRANCH   7  21
HETATM   21  N2  UNL     1     101.701  21.230  14.564  1.00  0.00    -0.357 N
HETATM   22  C14 UNL     1     101.152  22.289  14.938  1.00  0.00     0.197 C
HETATM   23  N3  UNL     1      99.774  22.474  14.535  1.00  0.00    -0.067 NA
HETATM   24  N4  UNL     1     101.685  23.351  15.708  1.00  0.00    -0.067 NA
ATOM     25  H2  UNL     1     101.097  20.621  14.013  1.00  0.00     0.162 HD
ENDBRANCH   7  21
TORSDOF 7
ENDMDL