MODEL 1
REMARK VINA RESULT: -7.851489312      0.000      0.000
REMARK  5 active torsions:
REMARK  status: ('A' for Active; 'I' for Inactive)
REMARK    1  A    between atoms: C7_7  and  O1_9
REMARK    2  A    between atoms: C9_11  and  N1_12
REMARK       I    between atoms: N1_12  and  C10_14
REMARK    3  A    between atoms: C10_14  and  C11_16
REMARK    4  A    between atoms: C13_19  and  N3_20
REMARK    5  A    between atoms: C14_22  and  C15_24
ROOT
HETATM    1  C11 UNL     1     105.079  17.140  20.001  1.00  0.00     0.127 C
HETATM    2  C12 UNL     1     106.018  17.410  21.050  1.00  0.00     0.106 C
HETATM    3  N2  UNL     1     106.798  17.621  21.900  1.00  0.00    -0.191 NA
HETATM    4  C13 UNL     1     103.834  16.816  20.306  1.00  0.00     0.118 C
ENDROOT
BRANCH   1   5
HETATM    5  C10 UNL     1     105.513  17.227  18.607  1.00  0.00     0.264 C
HETATM    6  N1  UNL     1     104.570  17.323  17.557  1.00  0.00    -0.348 N
ATOM      7  H1  UNL     1     103.572  17.330  17.772  1.00  0.00     0.163 HD
HETATM    8  O2  UNL     1     106.769  17.216  18.369  1.00  0.00    -0.267 OA
BRANCH   6   9
HETATM    9  C9  UNL     1     104.999  17.408  16.206  1.00  0.00     0.127 C
HETATM   10  C4  UNL     1     105.080  18.785  15.654  1.00  0.00     0.035 C
HETATM   11  C3  UNL     1     103.727  19.435  15.630  1.00  0.00    -0.017 C
HETATM   12  C5  UNL     1     105.161  18.450  14.149  1.00  0.00     0.022 C
HETATM   13  C2  UNL     1     102.962  18.825  14.730  1.00  0.00    -0.080 C
HETATM   14  C1  UNL     1     101.554  19.094  14.334  1.00  0.00     0.043 C
HETATM   15  C6  UNL     1     103.793  17.746  14.147  1.00  0.00     0.051 C
HETATM   16  C7  UNL     1     104.033  16.733  15.239  1.00  0.00     0.082 C
HETATM   17  C8  UNL     1     102.726  16.453  15.933  1.00  0.00     0.049 C
BRANCH  16  18
HETATM   18  O1  UNL     1     104.554  15.549  14.742  1.00  0.00    -0.387 OA
ATOM     19  H1  UNL     1     104.105  15.267  13.954  1.00  0.00     0.210 HD
ENDBRANCH  16  18
ENDBRANCH   6   9
ENDBRANCH   1   5
BRANCH   4  20
HETATM   20  N3  UNL     1     103.365  16.719  21.622  1.00  0.00    -0.349 N
HETATM   21  C14 UNL     1     102.286  17.215  22.071  1.00  0.00     0.181 C
HETATM   22  N4  UNL     1     101.454  17.941  21.185  1.00  0.00    -0.077 NA
ATOM     23  H3  UNL     1     103.945  16.201  22.282  1.00  0.00     0.166 HD
BRANCH  21  24
HETATM   24  C15 UNL     1     101.912  17.046  23.457  1.00  0.00     0.295 C
HETATM   25  N5  UNL     1     102.600  16.092  24.273  1.00  0.00    -0.055 NA
HETATM   26  O3  UNL     1     100.996  17.697  24.010  1.00  0.00    -0.268 OA
ENDBRANCH  21  24
ENDBRANCH   4  20
TORSDOF 5
ENDMDL