MODEL 1
REMARK VINA RESULT: -6.067510907      0.000      0.000
REMARK  5 active torsions:
REMARK  status: ('A' for Active; 'I' for Inactive)
REMARK    1  A    between atoms: C2_2  and  N1_3
REMARK       I    between atoms: N1_3  and  C3_5
REMARK    2  A    between atoms: C3_5  and  C4_7
REMARK    3  A    between atoms: C6_11  and  N3_12
REMARK       I    between atoms: N3_12  and  C7_14
REMARK    4  A    between atoms: C7_14  and  C8_16
REMARK    5  A    between atoms: C8_16  and  N4_18
ROOT
HETATM    1  C4  UNL     1     102.993  18.134  14.596  1.00  0.00     0.198 C
HETATM    2  N2  UNL     1     104.326  18.183  15.148  1.00  0.00    -0.319 N
HETATM    3  C5  UNL     1     105.759  18.125  15.246  1.00  0.00     0.247 C
HETATM    4  O2  UNL     1     106.642  18.419  14.408  1.00  0.00    -0.271 OA
HETATM    5  C6  UNL     1     105.584  17.621  16.618  1.00  0.00     0.210 C
HETATM    6  C10 UNL     1     104.336  18.495  16.554  1.00  0.00     0.183 C
HETATM    7  S1  UNL     1     102.837  17.656  17.127  1.00  0.00    -0.129 SA
HETATM    8  C11 UNL     1     102.109  17.355  15.465  1.00  0.00     0.032 C
HETATM    9  C12 UNL     1     102.182  15.874  15.136  1.00  0.00     0.029 C
HETATM   10  C13 UNL     1     100.686  17.776  15.529  1.00  0.00     0.029 C
ENDROOT
BRANCH   5  11
HETATM   11  N3  UNL     1     106.466  18.156  17.620  1.00  0.00    -0.343 N
HETATM   12  C7  UNL     1     106.727  17.526  18.862  1.00  0.00     0.248 C
HETATM   13  O3  UNL     1     106.214  16.435  19.212  1.00  0.00    -0.271 OA
ATOM     14  H3  UNL     1     106.931  19.043  17.426  1.00  0.00     0.163 HD
BRANCH  12  15
HETATM   15  C8  UNL     1     107.657  18.167  19.827  1.00  0.00     0.270 C
HETATM   16  C9  UNL     1     107.194  17.794  21.217  1.00  0.00     0.050 C
BRANCH  15  17
HETATM   17  N4  UNL     1     109.026  17.853  19.578  1.00  0.00    -0.067 N
ATOM     18  H43 UNL     1     109.366  17.159  20.243  1.00  0.00     0.275 HD
ATOM     19  H42 UNL     1     109.125  17.319  18.714  1.00  0.00     0.275 HD
ATOM     20  H41 UNL     1     109.629  18.675  19.568  1.00  0.00     0.275 HD
ENDBRANCH  15  17
ENDBRANCH  12  15
ENDBRANCH   5  11
BRANCH   1  21
HETATM   21  C3  UNL     1     102.581  19.503  14.259  1.00  0.00     0.242 C
HETATM   22  N1  UNL     1     102.524  20.602  15.102  1.00  0.00    -0.360 N
ATOM     23  H1  UNL     1     102.791  20.504  16.081  1.00  0.00     0.162 HD
HETATM   24  O1  UNL     1     102.241  19.662  13.040  1.00  0.00    -0.271 OA
BRANCH  22  25
HETATM   25  C2  UNL     1     102.090  21.886  14.601  1.00  0.00     0.118 C
HETATM   26  C1  UNL     1     101.235  22.629  15.604  1.00  0.00     0.026 C
ENDBRANCH  22  25
ENDBRANCH   1  21
TORSDOF 5
ENDMDL