MODEL 1
REMARK VINA RESULT: -6.722586238      0.000      0.000
REMARK  5 active torsions:
REMARK  status: ('A' for Active; 'I' for Inactive)
REMARK    1  A    between atoms: C2_2  and  N1_3
REMARK    2  A    between atoms: C2_2  and  C12_22
REMARK       I    between atoms: N1_3  and  C3_5
REMARK       I    between atoms: C3_5  and  N2_7
REMARK    3  A    between atoms: N2_7  and  C4_9
REMARK    4  A    between atoms: N3_16  and  C9_17
REMARK    5  A    between atoms: C9_17  and  O3_20
ROOT
HETATM    1  C4  UNL     1     103.341  16.751  17.847  1.00  0.00     0.111 C
HETATM    2  C5  UNL     1     102.243  16.118  17.006  1.00  0.00     0.102 C
HETATM    3  S1  UNL     1     101.712  17.453  15.908  1.00  0.00    -0.141 SA
HETATM    4  C6  UNL     1     102.945  18.656  16.316  1.00  0.00     0.167 C
HETATM    5  C7  UNL     1     103.968  17.813  17.086  1.00  0.00     0.134 C
HETATM    6  C8  UNL     1     104.270  17.373  15.699  1.00  0.00     0.232 C
HETATM    7  O2  UNL     1     104.601  16.342  15.056  1.00  0.00    -0.273 OA
HETATM    8  N3  UNL     1     104.012  18.725  15.320  1.00  0.00    -0.306 N
ENDROOT
BRANCH   1   9
HETATM    9  N2  UNL     1     102.827  17.058  19.126  1.00  0.00    -0.337 N
HETATM   10  C3  UNL     1     103.624  16.718  20.331  1.00  0.00     0.321 C
HETATM   11  N1  UNL     1     103.023  16.875  21.546  1.00  0.00    -0.307 N
HETATM   12  O1  UNL     1     104.769  16.301  20.145  1.00  0.00    -0.247 OA
ATOM     13  H1  UNL     1     102.049  17.179  21.524  1.00  0.00     0.170 HD
ATOM     14  H2  UNL     1     101.917  17.509  19.221  1.00  0.00     0.164 HD
BRANCH  11  15
HETATM   15  C2  UNL     1     103.582  16.669  22.848  1.00  0.00     0.086 C
HETATM   16  C1  UNL     1     104.815  17.456  23.036  1.00  0.00     0.076 C
BRANCH  15  17
HETATM   17  C12 UNL     1     102.600  16.544  23.930  1.00  0.00     0.222 C
HETATM   18  O4  UNL     1     102.605  15.775  24.891  1.00  0.00    -0.643 OA
HETATM   19  O5  UNL     1     101.457  17.441  23.872  1.00  0.00    -0.643 OA
ENDBRANCH  15  17
ENDBRANCH  11  15
ENDBRANCH   1   9
BRANCH   8  20
HETATM   20  C9  UNL     1     104.675  19.607  14.449  1.00  0.00     0.129 C
HETATM   21  C10 UNL     1     105.291  20.774  15.172  1.00  0.00     0.070 C
HETATM   22  C11 UNL     1     103.777  20.121  13.336  1.00  0.00     0.070 C
BRANCH  20  23
HETATM   23  O3  UNL     1     105.765  18.960  13.822  1.00  0.00    -0.371 OA
ATOM     24  H3  UNL     1     106.550  19.492  13.885  1.00  0.00     0.212 HD
ENDBRANCH  20  23
ENDBRANCH   8  20
TORSDOF 5
ENDMDL