MODEL 4
REMARK VINA RESULT: -6.140986312      1.666      2.640
REMARK  5 active torsions:
REMARK  status: ('A' for Active; 'I' for Inactive)
REMARK    1  A    between atoms: C2_2  and  C3_3
REMARK    2  A    between atoms: C3_3  and  O1_4
REMARK    3  A    between atoms: C6_8  and  O2_9
REMARK    4  A    between atoms: C9_13  and  O3_14
REMARK    5  A    between atoms: C10_16  and  O4_17
ROOT
HETATM    1  C3  UNL     1     -12.196  17.100 -16.828  1.00  0.00     0.064 C
HETATM    2  C4  UNL     1     -12.239  15.708 -16.213  1.00  0.00     0.041 C
HETATM    3  C5  UNL     1     -12.968  15.964 -14.905  1.00  0.00     0.042 C
HETATM    4  C6  UNL     1     -14.130  16.762 -15.427  1.00  0.00     0.070 C
HETATM    5  C7  UNL     1     -14.837  17.580 -14.416  1.00  0.00     0.048 C
HETATM    6  C8  UNL     1     -15.617  16.687 -13.456  1.00  0.00     0.016 C
HETATM    7  C9  UNL     1     -15.689  18.595 -15.081  1.00  0.00     0.153 C
HETATM    8  C10 UNL     1     -15.628  18.699 -16.547  1.00  0.00     0.148 C
HETATM    9  C11 UNL     1     -14.396  18.263 -17.238  1.00  0.00     0.045 C
HETATM   10  C12 UNL     1     -13.371  17.797 -16.277  1.00  0.00     0.057 C
ENDROOT
BRANCH   1  11
HETATM   11  C2  UNL     1     -10.909  17.742 -16.292  1.00  0.00     0.034 C
HETATM   12  C1  UNL     1     -11.165  19.092 -15.695  1.00  0.00     0.008 C
ENDBRANCH   1  11
BRANCH   1  13
HETATM   13  O1  UNL     1     -12.167  16.973 -18.195  1.00  0.00    -0.389 OA
ATOM     14  H1  UNL     1     -12.422  16.101 -18.471  1.00  0.00     0.210 HD
ENDBRANCH   1  13
BRANCH   4  15
HETATM   15  O2  UNL     1     -14.933  15.973 -16.209  1.00  0.00    -0.389 OA
ATOM     16  H2  UNL     1     -15.073  16.384 -17.054  1.00  0.00     0.210 HD
ENDBRANCH   4  15
BRANCH   8  17
HETATM   17  O4  UNL     1     -16.728  18.036 -17.143  1.00  0.00    -0.393 OA
ATOM     18  H4  UNL     1     -16.492  17.151 -17.394  1.00  0.00     0.210 HD
ENDBRANCH   8  17
BRANCH   7  19
HETATM   19  O3  UNL     1     -17.028  18.296 -14.725  1.00  0.00    -0.393 OA
ATOM     20  H3  UNL     1     -17.383  19.080 -14.322  1.00  0.00     0.210 HD
ENDBRANCH   7  19
TORSDOF 5
ENDMDL