MODEL 1
REMARK VINA RESULT: -6.332741844      0.000      0.000
REMARK  4 active torsions:
REMARK  status: ('A' for Active; 'I' for Inactive)
REMARK    1  A    between atoms: O1_1  and  N1_3
REMARK    2  A    between atoms: C1_5  and  O2_6
REMARK    3  A    between atoms: C1_5  and  C2_8
REMARK    4  A    between atoms: C8_14  and  O3_15
ROOT
HETATM    1  C2  UNL     1     -14.311  16.972 -16.717  1.00  0.00     0.307 C
HETATM    2  C3  UNL     1     -14.329  18.418 -17.235  1.00  0.00     0.116 C
HETATM    3  C4  UNL     1     -13.117  18.630 -16.377  1.00  0.00     0.264 C
HETATM    4  C5  UNL     1     -13.219  19.709 -15.333  1.00  0.00     0.072 C
HETATM    5  C6  UNL     1     -12.786  19.159 -14.014  1.00  0.00     0.008 C
HETATM    6  C7  UNL     1     -11.452  18.534 -13.978  1.00  0.00     0.042 C
HETATM    7  C8  UNL     1     -11.114  17.669 -15.160  1.00  0.00     0.106 C
HETATM    8  C9  UNL     1     -10.814  18.442 -16.397  1.00  0.00     0.210 C
HETATM    9  O4  UNL     1     -11.973  18.670 -17.111  1.00  0.00    -0.349 OA
HETATM   10  C10 UNL     1     -12.232  16.653 -15.413  1.00  0.00     0.317 C
HETATM   11  N2  UNL     1     -13.393  17.379 -15.736  1.00  0.00     0.139 N
ENDROOT
BRANCH   1  12
HETATM   12  C1  UNL     1     -13.956  15.977 -17.720  1.00  0.00     0.170 C
HETATM   13  N1  UNL     1     -14.733  14.979 -17.943  1.00  0.00    -0.249 N
ATOM     14  H1  UNL     1     -15.599  14.895 -17.411  1.00  0.00     0.196 HD
BRANCH  13  15
HETATM   15  O1  UNL     1     -14.428  14.016 -18.886  1.00  0.00    -0.288 OA
ATOM     16  H1  UNL     1     -13.701  13.417 -18.772  1.00  0.00     0.244 HD
ENDBRANCH  13  15
BRANCH  12  17
HETATM   17  O2  UNL     1     -12.775  16.113 -18.431  1.00  0.00    -0.346 OA
ATOM     18  H2  UNL     1     -12.557  16.943 -18.839  1.00  0.00     0.219 HD
ENDBRANCH  12  17
ENDBRANCH   1  12
BRANCH   7  19
HETATM   19  O3  UNL     1      -9.983  16.921 -14.818  1.00  0.00    -0.386 OA
ATOM     20  H3  UNL     1     -10.285  16.069 -14.524  1.00  0.00     0.210 HD
ENDBRANCH   7  19
TORSDOF 4
ENDMDL