MODEL 4
REMARK VINA RESULT: -6.148782305      2.512      5.742
REMARK  4 active torsions:
REMARK  status: ('A' for Active; 'I' for Inactive)
REMARK    1  A    between atoms: C2_2  and  C4_4
REMARK    2  A    between atoms: C8_9  and  O1_10
REMARK    3  A    between atoms: C9_12  and  O2_13
REMARK    4  A    between atoms: N2_17  and  O3_18
ROOT
HETATM    1  C4  UNL     1     -16.414  17.910 -18.517  1.00  0.00     0.120 C
HETATM    2  C5  UNL     1     -15.894  18.355 -17.174  1.00  0.00     0.297 C
HETATM    3  N1  UNL     1     -15.041  17.274 -16.783  1.00  0.00     0.117 N
HETATM    4  C6  UNL     1     -13.907  17.648 -15.995  1.00  0.00     0.252 C
HETATM    5  C7  UNL     1     -13.784  19.130 -15.772  1.00  0.00     0.045 C
HETATM    6  C8  UNL     1     -12.593  17.154 -16.558  1.00  0.00     0.180 C
HETATM    7  C9  UNL     1     -12.637  15.720 -16.978  1.00  0.00     0.152 C
HETATM    8  C10 UNL     1     -13.924  15.412 -17.738  1.00  0.00     0.088 C
HETATM    9  C11 UNL     1     -14.563  16.731 -18.037  1.00  0.00     0.325 C
HETATM   10  N2  UNL     1     -15.765  16.646 -18.809  1.00  0.00    -0.160 NA
ENDROOT
BRANCH   1  11
HETATM   11  C2  UNL     1     -17.918  17.762 -18.527  1.00  0.00    -0.001 C
HETATM   12  C1  UNL     1     -18.553  18.549 -17.402  1.00  0.00     0.011 C
HETATM   13  C3  UNL     1     -18.469  18.340 -19.827  1.00  0.00     0.011 C
ENDBRANCH   1  11
BRANCH  10  14
HETATM   14  O3  UNL     1     -15.434  16.563 -20.114  1.00  0.00    -0.311 OA
ATOM     15  H3  UNL     1     -15.957  17.161 -20.635  1.00  0.00     0.237 HD
ENDBRANCH  10  14
BRANCH   6  16
HETATM   16  O1  UNL     1     -11.649  17.292 -15.515  1.00  0.00    -0.391 OA
ATOM     17  H1  UNL     1     -10.825  16.975 -15.865  1.00  0.00     0.210 HD
ENDBRANCH   6  16
BRANCH   7  18
HETATM   18  O2  UNL     1     -12.461  14.832 -15.926  1.00  0.00    -0.393 OA
ATOM     19  H2  UNL     1     -12.443  15.255 -15.076  1.00  0.00     0.210 HD
ENDBRANCH   7  18
TORSDOF 4
ENDMDL