MODEL 4
REMARK VINA RESULT: -5.775805145      1.927      3.953
REMARK  5 active torsions:
REMARK  status: ('A' for Active; 'I' for Inactive)
REMARK    1  A    between atoms: C2_2  and  O1_3
REMARK    2  A    between atoms: C9_12  and  O3_13
REMARK    3  A    between atoms: C10_15  and  C11_16
REMARK    4  A    between atoms: C11_16  and  O4_17
REMARK    5  A    between atoms: C11_16  and  O5_19
ROOT
HETATM    1  C1  UNL     1     -12.318  16.082 -15.546  1.00  0.00     0.046 C
HETATM    2  C2  UNL     1     -11.907  17.414 -16.069  1.00  0.00     0.065 C
HETATM    3  C3  UNL     1     -11.350  18.324 -14.981  1.00  0.00     0.041 C
HETATM    4  C4  UNL     1     -12.335  18.508 -13.889  1.00  0.00     0.044 C
HETATM    5  C5  UNL     1     -13.382  19.549 -14.159  1.00  0.00     0.092 A
HETATM    6  C6  UNL     1     -13.719  20.355 -12.915  1.00  0.00     0.049 C
HETATM    7  O2  UNL     1     -13.373  20.313 -15.294  1.00  0.00    -0.361 OA
HETATM    8  C7  UNL     1     -14.370  19.298 -15.089  1.00  0.00     0.115 A
HETATM    9  C8  UNL     1     -15.783  19.823 -14.808  1.00  0.00     0.052 C
HETATM   10  C9  UNL     1     -14.277  18.250 -16.125  1.00  0.00     0.167 C
HETATM   11  C10 UNL     1     -12.933  18.165 -16.818  1.00  0.00     0.106 C
ENDROOT
BRANCH  11  12
HETATM   12  C11 UNL     1     -13.107  17.715 -18.254  1.00  0.00     0.263 C
BRANCH  12  13
HETATM   13  O4  UNL     1     -12.108  18.298 -19.018  1.00  0.00    -0.371 OA
ATOM     14  H4  UNL     1     -11.900  17.711 -19.736  1.00  0.00     0.212 HD
ENDBRANCH  12  13
BRANCH  12  15
HETATM   15  O5  UNL     1     -13.013  16.329 -18.370  1.00  0.00    -0.371 OA
ATOM     16  H5  UNL     1     -13.038  15.906 -17.519  1.00  0.00     0.212 HD
ENDBRANCH  12  15
ENDBRANCH  11  12
BRANCH   2  17
HETATM   17  O1  UNL     1     -10.812  17.187 -16.933  1.00  0.00    -0.390 OA
ATOM     18  H1  UNL     1     -10.532  18.039 -17.244  1.00  0.00     0.210 HD
ENDBRANCH   2  17
BRANCH  10  19
HETATM   19  O3  UNL     1     -15.174  18.608 -17.166  1.00  0.00    -0.392 OA
ATOM     20  H3  UNL     1     -14.776  18.335 -17.985  1.00  0.00     0.210 HD
ENDBRANCH  10  19
TORSDOF 5
ENDMDL