MODEL 1
REMARK VINA RESULT: -6.359598217      0.000      0.000
REMARK  4 active torsions:
REMARK  status: ('A' for Active; 'I' for Inactive)
REMARK    1  A    between atoms: O1_1  and  C1_3
REMARK    2  A    between atoms: C1_3  and  C2_4
REMARK    3  A    between atoms: C2_4  and  O2_5
REMARK    4  A    between atoms: C5_12  and  O3_13
ROOT
HETATM    1  C2  UNL     1     -15.338  17.211 -18.177  1.00  0.00     0.132 C
HETATM    2  C3  UNL     1     -14.611  17.900 -17.040  1.00  0.00     0.084 C
HETATM    3  C4  UNL     1     -13.637  16.842 -16.582  1.00  0.00     0.139 C
HETATM    4  N1  UNL     1     -13.883  15.656 -17.326  1.00  0.00    -0.036 N
ATOM      5  H11 UNL     1     -13.617  14.790 -16.855  1.00  0.00     0.281 HD
ATOM      6  H12 UNL     1     -13.273  15.520 -18.132  1.00  0.00     0.281 HD
HETATM    7  C5  UNL     1     -15.315  15.771 -17.646  1.00  0.00     0.356 C
HETATM    8  C6  UNL     1     -13.744  16.696 -15.099  1.00  0.00     0.023 C
HETATM    9  C7  UNL     1     -12.630  15.789 -14.635  1.00  0.00     0.012 C
HETATM   10  C8  UNL     1     -11.391  16.575 -15.069  1.00  0.00    -0.009 C
HETATM   11  C9  UNL     1     -11.138  16.384 -16.570  1.00  0.00     0.012 C
HETATM   12  C10 UNL     1     -12.242  17.409 -16.779  1.00  0.00     0.027 C
HETATM   13  C11 UNL     1     -11.873  17.956 -15.412  1.00  0.00    -0.004 C
HETATM   14  C12 UNL     1     -13.185  18.062 -14.665  1.00  0.00     0.012 C
ENDROOT
BRANCH   1  15
HETATM   15  C1  UNL     1     -16.763  17.701 -18.299  1.00  0.00     0.206 C
BRANCH  15  16
HETATM   16  O1  UNL     1     -17.252  17.485 -19.564  1.00  0.00    -0.398 OA
ATOM     17  H1  UNL     1     -18.191  17.345 -19.547  1.00  0.00     0.209 HD
ENDBRANCH  15  16
ENDBRANCH   1  15
BRANCH   1  18
HETATM   18  O2  UNL     1     -14.640  17.270 -19.369  1.00  0.00    -0.383 OA
ATOM     19  H2  UNL     1     -13.763  17.619 -19.271  1.00  0.00     0.210 HD
ENDBRANCH   1  18
BRANCH   7  20
HETATM   20  O3  UNL     1     -15.725  14.861 -18.576  1.00  0.00    -0.367 OA
ATOM     21  H3  UNL     1     -15.275  14.956 -19.407  1.00  0.00     0.212 HD
ENDBRANCH   7  20
TORSDOF 4
ENDMDL