MODEL 1
REMARK VINA RESULT: -5.462849197      0.000      0.000
REMARK  6 active torsions:
REMARK  status: ('A' for Active; 'I' for Inactive)
REMARK    1  A    between atoms: C2_2  and  C5_5
REMARK    2  A    between atoms: C5_5  and  N1_8
REMARK    3  A    between atoms: C9_10  and  O1_11
REMARK    4  A    between atoms: C10_13  and  O2_14
REMARK    5  A    between atoms: C11_16  and  C12_17
REMARK    6  A    between atoms: C12_17  and  O3_18
ROOT
HETATM    1  N1  UNL     1     -13.828  17.674 -15.823  1.00  0.00    -0.372 N
HETATM    2  C8  UNL     1     -12.509  17.707 -15.360  1.00  0.00     0.093 C
HETATM    3  C9  UNL     1     -11.587  17.520 -16.561  1.00  0.00     0.187 C
HETATM    4  C10 UNL     1     -12.481  17.416 -17.746  1.00  0.00     0.176 C
HETATM    5  C11 UNL     1     -13.866  17.191 -17.142  1.00  0.00     0.139 C
ENDROOT
BRANCH   1   6
HETATM    6  C5  UNL     1     -14.821  18.512 -15.323  1.00  0.00     0.031 C
HETATM    7  C6  UNL     1     -15.945  18.756 -16.355  1.00  0.00     0.039 C
HETATM    8  C7  UNL     1     -14.296  19.925 -15.026  1.00  0.00     0.039 C
BRANCH   6   9
HETATM    9  C2  UNL     1     -15.544  18.007 -14.094  1.00  0.00    -0.027 C
HETATM   10  C1  UNL     1     -17.045  18.301 -14.223  1.00  0.00     0.017 C
HETATM   11  C3  UNL     1     -15.397  16.547 -13.827  1.00  0.00     0.017 C
HETATM   12  C4  UNL     1     -15.094  18.721 -12.835  1.00  0.00     0.017 C
ENDBRANCH   6   9
ENDBRANCH   1   6
BRANCH   5  13
HETATM   13  C12 UNL     1     -14.081  15.670 -17.128  1.00  0.00     0.192 C
BRANCH  13  14
HETATM   14  O3  UNL     1     -15.385  15.335 -17.491  1.00  0.00    -0.399 OA
ATOM     15  H3  UNL     1     -15.923  15.153 -16.729  1.00  0.00     0.209 HD
ENDBRANCH  13  14
ENDBRANCH   5  13
BRANCH   3  16
HETATM   16  O1  UNL     1     -10.757  18.647 -16.747  1.00  0.00    -0.388 OA
ATOM     17  H1  UNL     1     -10.369  18.648 -17.614  1.00  0.00     0.210 HD
ENDBRANCH   3  16
BRANCH   4  18
HETATM   18  O2  UNL     1     -12.151  16.382 -18.611  1.00  0.00    -0.390 OA
ATOM     19  H2  UNL     1     -11.960  16.667 -19.496  1.00  0.00     0.210 HD
ENDBRANCH   4  18
TORSDOF 6
ENDMDL