MODEL 3
REMARK VINA RESULT: -6.275565238      2.832      4.188
REMARK  7 active torsions:
REMARK  status: ('A' for Active; 'I' for Inactive)
REMARK    1  A    between atoms: C2_2  and  C3_3
REMARK    2  A    between atoms: C3_3  and  C4_4
REMARK    3  A    between atoms: C5_5  and  C6_6
REMARK    4  A    between atoms: C6_6  and  O1_7
REMARK    5  A    between atoms: C9_11  and  O2_12
REMARK    6  A    between atoms: C12_16  and  N1_17
REMARK    7  A    between atoms: C13_21  and  O3_22
ROOT
HETATM    1  C6  UNL     1     -14.597  16.690 -16.464  1.00  0.00     0.157 C
HETATM    2  C7  UNL     1     -13.602  16.320 -15.417  1.00  0.00     0.064 C
HETATM    3  C8  UNL     1     -12.428  15.774 -16.205  1.00  0.00     0.050 C
HETATM    4  C9  UNL     1     -11.290  16.749 -16.044  1.00  0.00     0.125 C
HETATM    5  C10 UNL     1     -11.571  18.073 -16.632  1.00  0.00     0.035 C
HETATM    6  C11 UNL     1     -12.918  18.317 -17.174  1.00  0.00     0.048 C
HETATM    7  C12 UNL     1     -13.695  17.120 -17.613  1.00  0.00     0.191 C
HETATM    8  C13 UNL     1     -12.829  15.856 -17.671  1.00  0.00     0.164 C
ENDROOT
BRANCH   1   9
HETATM    9  C5  UNL     1     -15.507  17.735 -16.060  1.00  0.00    -0.065 C
HETATM   10  C4  UNL     1     -16.273  18.592 -15.709  1.00  0.00    -0.100 C
BRANCH  10  11
HETATM   11  C3  UNL     1     -17.230  19.632 -15.263  1.00  0.00     0.120 C
BRANCH  11  12
HETATM   12  C2  UNL     1     -18.175  18.977 -14.338  1.00  0.00    -0.025 C
HETATM   13  C1  UNL     1     -17.916  19.002 -13.043  1.00  0.00     0.008 C
ENDBRANCH  11  12
ENDBRANCH  10  11
ENDBRANCH   1   9
BRANCH   1  14
HETATM   14  O1  UNL     1     -15.238  15.527 -16.883  1.00  0.00    -0.375 OA
ATOM     15  H1  UNL     1     -14.970  15.236 -17.746  1.00  0.00     0.211 HD
ENDBRANCH   1  14
BRANCH   7  16
HETATM   16  N1  UNL     1     -14.411  17.346 -18.830  1.00  0.00    -0.064 N
ATOM     17  H13 UNL     1     -13.799  17.738 -19.546  1.00  0.00     0.275 HD
ATOM     18  H12 UNL     1     -14.651  16.464 -19.281  1.00  0.00     0.275 HD
ATOM     19  H11 UNL     1     -15.240  17.927 -18.702  1.00  0.00     0.275 HD
ENDBRANCH   7  16
BRANCH   8  20
HETATM   20  O3  UNL     1     -11.755  16.007 -18.512  1.00  0.00    -0.392 OA
ATOM     21  H3  UNL     1     -11.835  15.499 -19.311  1.00  0.00     0.210 HD
ENDBRANCH   8  20
BRANCH   4  22
HETATM   22  O2  UNL     1     -10.083  16.198 -16.537  1.00  0.00    -0.395 OA
ATOM     23  H2  UNL     1     -10.042  15.265 -16.360  1.00  0.00     0.210 HD
ENDBRANCH   4  22
TORSDOF 7
ENDMDL