MODEL 2
REMARK VINA RESULT: -6.338057221      2.589      3.623
REMARK  4 active torsions:
REMARK  status: ('A' for Active; 'I' for Inactive)
REMARK    1  A    between atoms: C1_2  and  C2_4
REMARK    2  A    between atoms: C4_6  and  O3_7
REMARK    3  A    between atoms: C5_9  and  O4_10
REMARK    4  A    between atoms: C11_17  and  O5_18
ROOT
HETATM    1  C2  UNL     1     -14.105  17.275 -15.155  1.00  0.00     0.124 C
HETATM    2  C3  UNL     1     -12.605  17.238 -15.273  1.00  0.00     0.052 C
HETATM    3  C4  UNL     1     -12.121  17.127 -16.684  1.00  0.00     0.148 C
HETATM    4  C5  UNL     1     -12.735  18.173 -17.546  1.00  0.00     0.153 C
HETATM    5  C6  UNL     1     -14.221  18.263 -17.466  1.00  0.00     0.052 C
HETATM    6  C7  UNL     1     -14.817  17.241 -18.392  1.00  0.00     0.010 C
HETATM    7  C8  UNL     1     -16.311  17.322 -18.497  1.00  0.00     0.001 C
HETATM    8  C9  UNL     1     -16.871  18.259 -17.460  1.00  0.00     0.003 C
HETATM    9  C10 UNL     1     -16.257  17.864 -16.127  1.00  0.00     0.039 C
HETATM   10  C11 UNL     1     -14.773  18.214 -16.078  1.00  0.00     0.077 C
ENDROOT
BRANCH   1  11
HETATM   11  C1  UNL     1     -14.410  17.626 -13.741  1.00  0.00     0.180 C
HETATM   12  O1  UNL     1     -14.025  18.647 -13.164  1.00  0.00    -0.648 OA
HETATM   13  O2  UNL     1     -15.195  16.728 -13.015  1.00  0.00    -0.648 OA
ENDBRANCH   1  11
BRANCH  10  14
HETATM   14  O5  UNL     1     -14.668  19.517 -15.548  1.00  0.00    -0.388 OA
ATOM     15  H5  UNL     1     -15.537  19.816 -15.304  1.00  0.00     0.210 HD
ENDBRANCH  10  14
BRANCH   3  16
HETATM   16  O3  UNL     1     -10.740  17.289 -16.682  1.00  0.00    -0.393 OA
ATOM     17  H3  UNL     1     -10.393  16.881 -17.467  1.00  0.00     0.210 HD
ENDBRANCH   3  16
BRANCH   4  18
HETATM   18  O4  UNL     1     -12.369  17.912 -18.872  1.00  0.00    -0.393 OA
ATOM     19  H4  UNL     1     -11.480  18.222 -18.998  1.00  0.00     0.210 HD
ENDBRANCH   4  18
TORSDOF 4
ENDMDL