MODEL 4
REMARK VINA RESULT: -5.943535604      2.189      3.898
REMARK  5 active torsions:
REMARK  status: ('A' for Active; 'I' for Inactive)
REMARK    1  A    between atoms: C2_2  and  O1_3
REMARK    2  A    between atoms: C6_8  and  O2_9
REMARK    3  A    between atoms: C9_13  and  C11_15
REMARK    4  A    between atoms: C11_15  and  O3_16
REMARK    5  A    between atoms: C12_18  and  O4_19
ROOT
HETATM    1  C1  UNL     1     -13.602  18.976 -13.707  1.00  0.00     0.049 C
HETATM    2  C2  UNL     1     -14.553  18.209 -14.638  1.00  0.00     0.081 C
HETATM    3  C3  UNL     1     -15.779  19.072 -14.884  1.00  0.00     0.045 C
HETATM    4  C4  UNL     1     -16.648  18.319 -15.838  1.00  0.00    -0.004 C
HETATM    5  C5  UNL     1     -17.862  19.091 -16.303  1.00  0.00     0.037 C
HETATM    6  C6  UNL     1     -18.090  18.629 -17.738  1.00  0.00     0.118 C
HETATM    7  C7  UNL     1     -16.895  17.743 -18.090  1.00  0.00     0.037 C
HETATM    8  C8  UNL     1     -15.862  18.234 -17.148  1.00  0.00     0.005 C
HETATM    9  C9  UNL     1     -14.616  17.455 -17.047  1.00  0.00     0.010 C
HETATM   10  C10 UNL     1     -13.780  17.801 -18.297  1.00  0.00     0.020 C
HETATM   11  C12 UNL     1     -13.798  17.888 -15.872  1.00  0.00     0.162 C
ENDROOT
BRANCH   9  12
HETATM   12  C11 UNL     1     -14.787  15.962 -17.136  1.00  0.00     0.176 C
BRANCH  12  13
HETATM   13  O3  UNL     1     -13.674  15.268 -17.487  1.00  0.00    -0.400 OA
ATOM     14  H3  UNL     1     -13.660  14.947 -18.381  1.00  0.00     0.209 HD
ENDBRANCH  12  13
ENDBRANCH   9  12
BRANCH  11  15
HETATM   15  O4  UNL     1     -12.803  16.963 -15.542  1.00  0.00    -0.392 OA
ATOM     16  H4  UNL     1     -12.066  17.105 -16.124  1.00  0.00     0.210 HD
ENDBRANCH  11  15
BRANCH   2  17
HETATM   17  O1  UNL     1     -14.970  17.096 -13.913  1.00  0.00    -0.388 OA
ATOM     18  H1  UNL     1     -14.748  17.282 -13.008  1.00  0.00     0.210 HD
ENDBRANCH   2  17
BRANCH   6  19
HETATM   19  O2  UNL     1     -19.289  17.942 -17.859  1.00  0.00    -0.396 OA
ATOM     20  H2  UNL     1     -20.024  18.488 -17.606  1.00  0.00     0.210 HD
ENDBRANCH   6  19
TORSDOF 5
ENDMDL