MODEL 5
REMARK VINA RESULT: -6.280396516      2.800      4.172
REMARK  6 active torsions:
REMARK  status: ('A' for Active; 'I' for Inactive)
REMARK    1  A    between atoms: O1_1  and  C1_3
REMARK    2  A    between atoms: C1_3  and  C2_4
REMARK    3  A    between atoms: C5_7  and  O2_8
REMARK    4  A    between atoms: C6_10  and  C7_11
REMARK    5  A    between atoms: C8_12  and  C9_13
REMARK    6  A    between atoms: C9_13  and  O3_14
ROOT
HETATM    1  C2  UNL     1     -16.906  18.365 -16.407  1.00  0.00     0.027 C
HETATM    2  C3  UNL     1     -18.205  18.538 -17.180  1.00  0.00     0.010 C
HETATM    3  C4  UNL     1     -17.942  17.721 -18.408  1.00  0.00     0.033 C
HETATM    4  C5  UNL     1     -16.438  17.576 -18.537  1.00  0.00     0.134 C
HETATM    5  C6  UNL     1     -15.916  18.578 -17.541  1.00  0.00     0.100 C
ENDROOT
BRANCH   5   6
HETATM    6  C7  UNL     1     -14.561  18.251 -17.177  1.00  0.00    -0.096 C
HETATM    7  C8  UNL     1     -13.429  17.999 -16.869  1.00  0.00    -0.068 C
BRANCH   7   8
HETATM    8  C9  UNL     1     -12.045  17.716 -16.488  1.00  0.00     0.121 C
HETATM    9  C10 UNL     1     -11.734  16.219 -16.631  1.00  0.00     0.051 C
HETATM   10  C11 UNL     1     -10.339  16.230 -15.992  1.00  0.00     0.004 C
HETATM   11  C12 UNL     1     -10.577  17.032 -14.753  1.00  0.00     0.004 C
HETATM   12  C13 UNL     1     -11.815  17.881 -15.003  1.00  0.00     0.051 C
BRANCH   8  13
HETATM   13  O3  UNL     1     -11.123  18.387 -17.251  1.00  0.00    -0.378 OA
ATOM     14  H3  UNL     1     -11.365  19.287 -17.430  1.00  0.00     0.211 HD
ENDBRANCH   8  13
ENDBRANCH   7   8
ENDBRANCH   5   6
BRANCH   1  15
HETATM   15  C1  UNL     1     -16.755  19.390 -15.321  1.00  0.00     0.170 C
BRANCH  15  16
HETATM   16  O1  UNL     1     -17.866  20.234 -15.387  1.00  0.00    -0.400 OA
ATOM     17  H1  UNL     1     -17.944  20.530 -16.287  1.00  0.00     0.209 HD
ENDBRANCH  15  16
ENDBRANCH   1  15
BRANCH   4  18
HETATM   18  O2  UNL     1     -16.084  16.263 -18.149  1.00  0.00    -0.394 OA
ATOM     19  H2  UNL     1     -15.967  15.741 -18.934  1.00  0.00     0.210 HD
ENDBRANCH   4  18
TORSDOF 6
ENDMDL