MODEL 4
REMARK VINA RESULT: -6.639630034      2.952      6.194
REMARK  3 active torsions:
REMARK  status: ('A' for Active; 'I' for Inactive)
REMARK    1  A    between atoms: C5_7  and  C6_8
REMARK    2  A    between atoms: C6_8  and  C7_9
REMARK    3  A    between atoms: C7_9  and  C8_10
REMARK       I    between atoms: C8_10  and  N2_12
ROOT
HETATM    1  C6  UNL     1      -3.652   2.953  11.465  1.00  0.00     0.068 C
ENDROOT
BRANCH   1   2
HETATM    2  C5  UNL     1      -3.495   4.414  11.536  1.00  0.00     0.032 A
HETATM    3  C3  UNL     1      -2.237   4.935  11.837  1.00  0.00     0.028 A
HETATM    4  N1  UNL     1      -2.091   6.273  11.883  1.00  0.00    -0.360 N
HETATM    5  C4  UNL     1      -1.088   4.020  12.096  1.00  0.00     0.070 C
HETATM    6  C2  UNL     1      -3.142   7.092  11.641  1.00  0.00     0.028 A
ATOM      7  H1  UNL     1      -1.180   6.674  12.102  1.00  0.00     0.165 HD
HETATM    8  C1  UNL     1      -2.955   8.536  11.698  1.00  0.00     0.070 C
HETATM    9  C13 UNL     1      -4.388   6.600  11.344  1.00  0.00     0.028 A
HETATM   10  N4  UNL     1      -4.532   5.273  11.299  1.00  0.00    -0.360 N
HETATM   11  C14 UNL     1      -5.491   7.509  11.092  1.00  0.00     0.070 C
ATOM     12  H4  UNL     1      -5.450   4.886  11.079  1.00  0.00     0.165 HD
ENDBRANCH   1   2
BRANCH   1  13
HETATM   13  C7  UNL     1      -4.888   2.386  12.066  1.00  0.00     0.109 C
BRANCH  13  14
HETATM   14  C8  UNL     1      -4.605   1.471  13.183  1.00  0.00     0.226 C
HETATM   15  O1  UNL     1      -3.989   0.369  12.979  1.00  0.00    -0.273 OA
HETATM   16  N2  UNL     1      -5.015   1.801  14.532  1.00  0.00    -0.293 N
HETATM   17  C9  UNL     1      -4.751   0.947  15.602  1.00  0.00     0.143 C
HETATM   18  C11 UNL     1      -5.691   2.994  14.822  1.00  0.00     0.100 C
HETATM   19  N3  UNL     1      -3.973  -0.092  15.641  1.00  0.00    -0.380 N
HETATM   20  S1  UNL     1      -5.709   1.548  16.985  1.00  0.00    -0.092 SA
ATOM     21  H32 UNL     1      -3.426  -0.436  14.851  1.00  0.00     0.158 HD
ATOM     22  H31 UNL     1      -3.779  -0.717  16.424  1.00  0.00     0.158 HD
HETATM   23  C10 UNL     1      -6.497   2.912  16.065  1.00  0.00     0.107 C
HETATM   24  C12 UNL     1      -4.724   4.158  14.918  1.00  0.00     0.034 C
ENDBRANCH  13  14
ENDBRANCH   1  13
TORSDOF 3
ENDMDL