MODEL 4
REMARK VINA RESULT: -6.013718464      2.148      5.118
REMARK  4 active torsions:
REMARK  status: ('A' for Active; 'I' for Inactive)
REMARK    1  A    between atoms: C3_3  and  N1_4
REMARK    2  A    between atoms: N1_4  and  C4_6
REMARK    3  A    between atoms: C5_9  and  C6_10
REMARK    4  A    between atoms: C12_18  and  N4_19
ROOT
HETATM    1  C1  UNL     1      -2.903  -3.090  11.465  1.00  0.00     0.014 C
HETATM    2  C2  UNL     1      -3.656  -2.151  11.636  1.00  0.00    -0.098 C
HETATM    3  C3  UNL     1      -4.580  -1.037  11.848  1.00  0.00     0.215 C
ENDROOT
BRANCH   3   4
HETATM    4  N1  UNL     1      -3.993  -0.051  12.735  1.00  0.00    -0.360 N
ATOM      5  H1  UNL     1      -3.504  -0.333  13.584  1.00  0.00     0.162 HD
BRANCH   4   6
HETATM    6  C4  UNL     1      -4.110   1.218  12.410  1.00  0.00     0.145 A
HETATM    7  N2  UNL     1      -3.664   2.262  13.101  1.00  0.00    -0.336 N
HETATM    8  C5  UNL     1      -3.870   3.472  12.625  1.00  0.00     0.055 A
ATOM      9  H2  UNL     1      -3.171   2.129  13.984  1.00  0.00     0.168 HD
HETATM   10  C15 UNL     1      -4.541   3.562  11.432  1.00  0.00     0.083 A
HETATM   11  S1  UNL     1      -4.842   1.925  11.054  1.00  0.00    -0.064 SA
BRANCH   8  12
HETATM   12  C6  UNL     1      -3.301   4.700  13.266  1.00  0.00     0.041 A
HETATM   13  C7  UNL     1      -4.002   5.345  14.284  1.00  0.00    -0.044 A
HETATM   14  C8  UNL     1      -5.225   4.795  14.898  1.00  0.00     0.049 C
HETATM   15  C9  UNL     1      -3.548   6.549  14.836  1.00  0.00     0.032 A
HETATM   16  C10 UNL     1      -2.386   7.104  14.364  1.00  0.00     0.007 A
HETATM   17  C11 UNL     1      -1.897   8.392  14.953  1.00  0.00     0.068 C
HETATM   18  N3  UNL     1      -1.735   6.477  13.399  1.00  0.00    -0.346 N
HETATM   19  C12 UNL     1      -2.145   5.291  12.823  1.00  0.00     0.116 A
ATOM     20  H3  UNL     1      -0.872   6.899  13.057  1.00  0.00     0.167 HD
BRANCH  19  21
HETATM   21  N4  UNL     1      -1.340   4.805  11.757  1.00  0.00    -0.375 N
HETATM   22  C13 UNL     1      -0.483   3.674  11.962  1.00  0.00     0.150 C
HETATM   23  C14 UNL     1      -1.464   5.453  10.468  1.00  0.00     0.150 C
ENDBRANCH  19  21
ENDBRANCH   8  12
ENDBRANCH   4   6
ENDBRANCH   3   4
TORSDOF 4
ENDMDL