MODEL 1
REMARK VINA RESULT: -6.501094194      0.000      0.000
REMARK  4 active torsions:
REMARK  status: ('A' for Active; 'I' for Inactive)
REMARK    1  A    between atoms: C2_2  and  C3_3
REMARK    2  A    between atoms: C4_5  and  N1_6
REMARK       I    between atoms: N1_6  and  C5_8
REMARK    3  A    between atoms: C5_8  and  C6_10
REMARK    4  A    between atoms: C6_10  and  C7_11
ROOT
HETATM    1  N1  UNL     1      -4.003   4.545  13.052  1.00  0.00    -0.307 N
ATOM      2  H1  UNL     1      -3.067   4.899  13.249  1.00  0.00     0.171 HD
HETATM    3  C5  UNL     1      -4.658   4.971  11.892  1.00  0.00     0.229 C
HETATM    4  O1  UNL     1      -4.991   4.159  10.997  1.00  0.00    -0.273 OA
ENDROOT
BRANCH   1   5
HETATM    5  C4  UNL     1      -4.554   3.701  13.899  1.00  0.00     0.151 A
HETATM    6  S1  UNL     1      -5.871   3.945  14.951  1.00  0.00    -0.057 SA
HETATM    7  C3  UNL     1      -5.923   2.402  15.659  1.00  0.00     0.008 A
HETATM    8  C11 UNL     1      -4.894   1.756  15.032  1.00  0.00     0.020 A
HETATM    9  N3  UNL     1      -4.207   2.436  14.136  1.00  0.00    -0.339 N
HETATM   10  C12 UNL     1      -4.550   0.304  15.353  1.00  0.00     0.069 C
ATOM     11  H3  UNL     1      -3.430   2.005  13.637  1.00  0.00     0.168 HD
BRANCH   7  12
HETATM   12  C2  UNL     1      -6.873   1.912  16.704  1.00  0.00     0.043 C
HETATM   13  C1  UNL     1      -6.308   2.086  18.099  1.00  0.00     0.010 C
ENDBRANCH   7  12
ENDBRANCH   1   5
BRANCH   3  14
HETATM   14  C6  UNL     1      -4.965   6.405  11.714  1.00  0.00     0.162 C
BRANCH  14  15
HETATM   15  C7  UNL     1      -5.775   6.631  10.489  1.00  0.00     0.043 A
HETATM   16  C8  UNL     1      -7.017   7.222  10.379  1.00  0.00     0.061 A
HETATM   17  C9  UNL     1      -7.386   7.216   9.039  1.00  0.00     0.074 A
HETATM   18  C10 UNL     1      -8.666   7.760   8.466  1.00  0.00     0.079 C
HETATM   19  O2  UNL     1      -6.390   6.643   8.410  1.00  0.00    -0.243 OA
HETATM   20  N2  UNL     1      -5.444   6.296   9.232  1.00  0.00    -0.265 N
ATOM     21  H2  UNL     1      -4.576   5.835   8.960  1.00  0.00     0.194 HD
ENDBRANCH  14  15
ENDBRANCH   3  14
TORSDOF 4
ENDMDL