MODEL 3
REMARK VINA RESULT: -6.397544138      1.642      2.062
REMARK  5 active torsions:
REMARK  status: ('A' for Active; 'I' for Inactive)
REMARK    1  A    between atoms: C4_4  and  C5_5
REMARK    2  A    between atoms: C6_6  and  C7_7
REMARK       I    between atoms: C7_7  and  N1_9
REMARK    3  A    between atoms: N1_9  and  C8_11
REMARK    4  A    between atoms: C8_11  and  C10_13
REMARK    5  A    between atoms: C10_13  and  C11_14
ROOT
HETATM    1  C1  UNL     1      -2.111   9.894  12.068  1.00  0.00     0.068 C
HETATM    2  C2  UNL     1      -2.448   8.534  11.522  1.00  0.00     0.006 A
HETATM    3  C3  UNL     1      -3.061   7.571  12.304  1.00  0.00     0.047 A
HETATM    4  C4  UNL     1      -3.377   6.328  11.829  1.00  0.00     0.042 A
HETATM    5  C14 UNL     1      -3.073   6.019  10.517  1.00  0.00     0.085 A
HETATM    6  C15 UNL     1      -3.394   4.713   9.983  1.00  0.00     0.103 C
HETATM    7  N2  UNL     1      -3.661   3.657   9.570  1.00  0.00    -0.191 NA
HETATM    8  C16 UNL     1      -2.461   6.991   9.748  1.00  0.00     0.028 A
HETATM    9  C17 UNL     1      -2.145   6.626   8.334  1.00  0.00     0.070 C
HETATM   10  N3  UNL     1      -2.161   8.210  10.247  1.00  0.00    -0.362 N
ATOM     11  H3  UNL     1      -1.709   8.899   9.647  1.00  0.00     0.165 HD
ENDROOT
BRANCH   4  12
HETATM   12  C5  UNL     1      -4.019   5.318  12.644  1.00  0.00    -0.055 C
HETATM   13  C6  UNL     1      -4.540   4.475  13.339  1.00  0.00    -0.000 C
BRANCH  13  14
HETATM   14  C7  UNL     1      -5.166   3.498  14.168  1.00  0.00     0.297 C
HETATM   15  O1  UNL     1      -6.345   3.689  14.542  1.00  0.00    -0.258 OA
HETATM   16  N1  UNL     1      -4.452   2.345  14.552  1.00  0.00    -0.346 N
ATOM     17  H1  UNL     1      -3.492   2.238  14.222  1.00  0.00     0.163 HD
BRANCH  16  18
HETATM   18  C8  UNL     1      -5.012   1.307  15.391  1.00  0.00     0.081 C
HETATM   19  C9  UNL     1      -4.400   0.003  15.029  1.00  0.00     0.032 C
BRANCH  18  20
HETATM   20  C10 UNL     1      -4.917   1.661  16.843  1.00  0.00     0.028 C
BRANCH  20  21
HETATM   21  C11 UNL     1      -6.074   1.236  17.667  1.00  0.00    -0.021 C
HETATM   22  C12 UNL     1      -7.329   1.160  16.809  1.00  0.00     0.009 C
HETATM   23  C13 UNL     1      -6.335   2.312  18.707  1.00  0.00     0.009 C
ENDBRANCH  20  21
ENDBRANCH  18  20
ENDBRANCH  16  18
ENDBRANCH  13  14
ENDBRANCH   4  12
TORSDOF 5
ENDMDL