MODEL 4
REMARK VINA RESULT: -5.849252705      2.521      5.810
REMARK  4 active torsions:
REMARK  status: ('A' for Active; 'I' for Inactive)
REMARK    1  A    between atoms: C2_2  and  C3_3
REMARK    2  A    between atoms: C3_3  and  N1_4
REMARK    3  A    between atoms: C5_7  and  C6_8
REMARK    4  A    between atoms: C6_8  and  O2_10
ROOT
HETATM    1  N1  UNL     1      -3.340   5.252  14.191  1.00  0.00    -0.364 N
ATOM      2  H1  UNL     1      -3.227   6.005  14.870  1.00  0.00     0.165 HD
HETATM    3  C4  UNL     1      -3.011   5.563  13.031  1.00  0.00     0.065 A
HETATM    4  C5  UNL     1      -3.062   4.750  11.952  1.00  0.00     0.089 A
HETATM    5  C8  UNL     1      -2.695   5.285  10.694  1.00  0.00     0.025 A
HETATM    6  C9  UNL     1      -2.747   4.414   9.504  1.00  0.00     0.069 C
HETATM    7  N2  UNL     1      -2.306   6.543  10.548  1.00  0.00    -0.344 N
ATOM      8  H2  UNL     1      -2.049   6.893   9.626  1.00  0.00     0.167 HD
HETATM    9  C10 UNL     1      -2.250   7.370  11.634  1.00  0.00     0.118 A
HETATM   10  N3  UNL     1      -1.854   8.643  11.477  1.00  0.00    -0.346 N
ATOM     11  H3  UNL     1      -1.606   8.957  10.539  1.00  0.00     0.167 HD
HETATM   12  C11 UNL     1      -1.767   9.522  12.482  1.00  0.00     0.007 A
HETATM   13  C12 UNL     1      -1.316  10.938  12.244  1.00  0.00     0.068 C
HETATM   14  C13 UNL     1      -2.106   9.075  13.723  1.00  0.00     0.032 A
HETATM   15  C14 UNL     1      -2.536   7.748  13.988  1.00  0.00    -0.044 A
HETATM   16  C15 UNL     1      -2.875   7.368  15.355  1.00  0.00     0.049 C
HETATM   17  C16 UNL     1      -2.592   6.924  12.890  1.00  0.00     0.042 A
ENDROOT
BRANCH   1  18
HETATM   18  C3  UNL     1      -3.836   4.063  14.736  1.00  0.00     0.087 C
BRANCH  18  19
HETATM   19  C2  UNL     1      -5.308   4.054  15.060  1.00  0.00     0.007 C
HETATM   20  C1  UNL     1      -5.969   5.192  15.033  1.00  0.00     0.012 C
ENDBRANCH  18  19
ENDBRANCH   1  18
BRANCH   4  21
HETATM   21  C6  UNL     1      -3.428   3.350  11.975  1.00  0.00     0.297 C
HETATM   22  O1  UNL     1      -2.679   2.384  12.219  1.00  0.00    -0.259 OA
BRANCH  21  23
HETATM   23  O2  UNL     1      -4.772   2.972  11.708  1.00  0.00    -0.322 OA
HETATM   24  C7  UNL     1      -5.090   1.672  11.337  1.00  0.00     0.213 C
ENDBRANCH  21  23
ENDBRANCH   4  21
TORSDOF 4
ENDMDL