MODEL 1
REMARK VINA RESULT: -6.867762000      0.000      0.000
REMARK  4 active torsions:
REMARK  status: ('A' for Active; 'I' for Inactive)
REMARK    1  A    between atoms: C2_2  and  N1_3
REMARK    2  A    between atoms: N1_3  and  C3_4
REMARK    3  A    between atoms: N1_3  and  C12_20
REMARK    4  A    between atoms: C5_6  and  N2_7
REMARK       I    between atoms: N2_7  and  C6_8
ROOT
HETATM    1  C3  UNL     1      -4.136   3.898  13.616  1.00  0.00     0.108 A
HETATM    2  C4  UNL     1      -4.594   3.396  14.817  1.00  0.00     0.095 A
HETATM    3  C5  UNL     1      -4.790   2.022  15.018  1.00  0.00     0.145 A
HETATM    4  C8  UNL     1      -4.482   1.217  13.913  1.00  0.00     0.127 A
HETATM    5  N3  UNL     1      -4.529  -0.105  13.710  1.00  0.00    -0.334 N
ATOM      6  H3  UNL     1      -4.828  -0.795  14.398  1.00  0.00     0.168 HD
HETATM    7  C9  UNL     1      -4.119  -0.385  12.452  1.00  0.00     0.122 A
HETATM    8  C10 UNL     1      -4.024  -1.743  11.833  1.00  0.00     0.098 C
HETATM    9  O2  UNL     1      -3.832   0.769  11.914  1.00  0.00    -0.279 OA
HETATM   10  C11 UNL     1      -4.028   1.771  12.739  1.00  0.00     0.181 A
HETATM   11  N4  UNL     1      -3.861   3.107  12.606  1.00  0.00    -0.321 N
ATOM     12  H4  UNL     1      -3.525   3.497  11.726  1.00  0.00     0.169 HD
ENDROOT
BRANCH   1  13
HETATM   13  N1  UNL     1      -3.953   5.308  13.535  1.00  0.00    -0.363 N
BRANCH  13  14
HETATM   14  C2  UNL     1      -4.882   6.092  12.805  1.00  0.00     0.120 C
HETATM   15  C1  UNL     1      -4.591   6.366  11.378  1.00  0.00     0.026 C
ENDBRANCH  13  14
BRANCH  13  16
HETATM   16  C12 UNL     1      -2.815   5.841  14.230  1.00  0.00     0.077 C
HETATM   17  C13 UNL     1      -2.914   7.283  14.604  1.00  0.00     0.032 C
HETATM   18  C14 UNL     1      -1.527   5.697  13.413  1.00  0.00     0.032 C
ENDBRANCH  13  16
ENDBRANCH   1  13
BRANCH   3  19
HETATM   19  N2  UNL     1      -5.203   1.583  16.044  1.00  0.00    -0.368 NA
HETATM   20  C6  UNL     1      -5.714   1.061  17.125  1.00  0.00     0.288 C
HETATM   21  C7  UNL     1      -6.187   1.813  18.360  1.00  0.00     0.135 C
HETATM   22  O1  UNL     1      -5.874  -0.210  17.247  1.00  0.00    -0.258 OA
ENDBRANCH   3  19
TORSDOF 4
ENDMDL