MODEL 4
REMARK VINA RESULT: -6.053964349      1.131      2.569
REMARK  6 active torsions:
REMARK  status: ('A' for Active; 'I' for Inactive)
REMARK    1  A    between atoms: C2_2  and  O1_3
REMARK    2  A    between atoms: O1_3  and  C3_4
REMARK    3  A    between atoms: C3_4  and  O2_5
REMARK    4  A    between atoms: O2_5  and  C4_6
REMARK    5  A    between atoms: C4_6  and  N1_8
REMARK    6  A    between atoms: N1_8  and  C5_10
ROOT
HETATM    1  C5  UNL     1      -3.638   3.950  13.433  1.00  0.00     0.101 C
HETATM    2  C6  UNL     1      -2.501   3.674  12.498  1.00  0.00     0.043 C
HETATM    3  C7  UNL     1      -1.293   4.365  13.134  1.00  0.00     0.175 C
HETATM    4  O3  UNL     1      -1.563   5.722  13.039  1.00  0.00    -0.384 OA
HETATM    5  C8  UNL     1      -2.788   5.858  12.336  1.00  0.00     0.139 C
HETATM    6  C9  UNL     1      -2.624   4.697  11.371  1.00  0.00    -0.013 C
HETATM    7  C10 UNL     1      -1.275   4.901  10.688  1.00  0.00     0.018 C
HETATM    8  C11 UNL     1      -3.674   4.464  10.402  1.00  0.00     0.018 C
HETATM    9  C12 UNL     1      -3.856   5.414  13.282  1.00  0.00     0.000 C
HETATM   10  C13 UNL     1      -3.579   6.164  14.599  1.00  0.00     0.019 C
HETATM   11  C14 UNL     1      -5.247   5.805  12.892  1.00  0.00     0.019 C
ENDROOT
BRANCH   1  12
HETATM   12  N1  UNL     1      -4.804   3.135  13.243  1.00  0.00    -0.355 N
ATOM     13  H1  UNL     1      -5.726   3.572  13.262  1.00  0.00     0.162 HD
BRANCH  12  14
HETATM   14  C4  UNL     1      -4.705   1.753  13.033  1.00  0.00     0.212 C
HETATM   15  S1  UNL     1      -4.916   1.128  11.562  1.00  0.00    -0.033 SA
BRANCH  14  16
HETATM   16  O2  UNL     1      -4.428   0.940  14.104  1.00  0.00    -0.301 OA
BRANCH  16  17
HETATM   17  C3  UNL     1      -4.826   1.141  15.421  1.00  0.00     0.347 C
BRANCH  17  18
HETATM   18  O1  UNL     1      -5.354  -0.010  15.999  1.00  0.00    -0.367 OA
BRANCH  18  19
HETATM   19  C2  UNL     1      -5.968   0.348  17.202  1.00  0.00     0.166 C
HETATM   20  C1  UNL     1      -7.213   1.146  16.977  1.00  0.00     0.033 C
ENDBRANCH  18  19
ENDBRANCH  17  18
ENDBRANCH  16  17
ENDBRANCH  14  16
ENDBRANCH  12  14
ENDBRANCH   1  12
TORSDOF 6
ENDMDL