MODEL 4
REMARK VINA RESULT: -6.726213982      1.581      1.884
REMARK  3 active torsions:
REMARK  status: ('A' for Active; 'I' for Inactive)
REMARK       I    between atoms: N3_9  and  C5_11
REMARK    1  A    between atoms: C5_11  and  C6_13
REMARK    2  A    between atoms: C6_13  and  C7_14
REMARK    3  A    between atoms: N4_17  and  C10_18
ROOT
HETATM    1  C1  UNL     1      -3.537   4.925   8.289  1.00  0.00     0.089 C
HETATM    2  C2  UNL     1      -3.638   4.471   9.700  1.00  0.00     0.082 A
HETATM    3  N1  UNL     1      -4.271   3.345  10.097  1.00  0.00    -0.329 N
ATOM      4  H1  UNL     1      -4.748   2.682   9.487  1.00  0.00     0.168 HD
HETATM    5  C3  UNL     1      -4.162   3.249  11.445  1.00  0.00     0.168 A
HETATM    6  N2  UNL     1      -4.481   2.501  12.520  1.00  0.00    -0.172 N
ATOM      7  H2  UNL     1      -5.009   1.629  12.523  1.00  0.00     0.186 HD
HETATM    8  C4  UNL     1      -3.965   3.136  13.588  1.00  0.00     0.691 A
HETATM    9  N3  UNL     1      -4.045   2.752  14.811  1.00  0.00    -0.159 N
ATOM     10  H3  UNL     1      -3.616   3.309  15.549  1.00  0.00     0.187 HD
HETATM   11  C5  UNL     1      -4.732   1.552  15.137  1.00  0.00     0.236 C
HETATM   12  O1  UNL     1      -4.213   0.472  14.739  1.00  0.00    -0.273 OA
HETATM   13  N4  UNL     1      -3.325   4.273  13.189  1.00  0.00    -0.160 N
HETATM   14  C13 UNL     1      -3.439   4.360  11.839  1.00  0.00     0.172 A
HETATM   15  N5  UNL     1      -3.120   5.107  10.767  1.00  0.00    -0.324 N
HETATM   16  C14 UNL     1      -2.358   6.360  10.792  1.00  0.00     0.159 C
ENDROOT
BRANCH  13  17
HETATM   17  C10 UNL     1      -2.637   5.246  13.979  1.00  0.00     0.101 C
HETATM   18  C11 UNL     1      -3.555   6.005  14.909  1.00  0.00     0.033 C
HETATM   19  C12 UNL     1      -1.626   4.526  14.877  1.00  0.00     0.033 C
ENDBRANCH  13  17
BRANCH  11  20
HETATM   20  C6  UNL     1      -5.982   1.512  15.894  1.00  0.00     0.107 C
BRANCH  20  21
HETATM   21  C7  UNL     1      -5.983   2.545  16.984  1.00  0.00    -0.014 C
HETATM   22  C8  UNL     1      -6.279   1.864  18.304  1.00  0.00     0.010 C
HETATM   23  C9  UNL     1      -6.935   3.669  16.737  1.00  0.00     0.010 C
ENDBRANCH  20  21
ENDBRANCH  11  20
TORSDOF 3
ENDMDL