MODEL 3
REMARK VINA RESULT: -6.210587988      1.854      3.128
REMARK  7 active torsions:
REMARK  status: ('A' for Active; 'I' for Inactive)
REMARK    1  A    between atoms: C2_2  and  C3_3
REMARK    2  A    between atoms: C4_4  and  C5_5
REMARK    3  A    between atoms: C5_5  and  O1_6
REMARK    4  A    between atoms: C7_9  and  O2_10
REMARK    5  A    between atoms: O2_10  and  C8_11
REMARK    6  A    between atoms: C8_11  and  C11_14
REMARK    7  A    between atoms: C11_14  and  O4_16
ROOT
HETATM    1  C5  UNL     1      -2.446   5.028  12.038  1.00  0.00     0.146 C
HETATM    2  C6  UNL     1      -2.459   3.661  12.666  1.00  0.00     0.088 C
HETATM    3  C7  UNL     1      -3.897   3.179  12.703  1.00  0.00     0.130 C
HETATM    4  C13 UNL     1      -4.284   2.975  11.247  1.00  0.00     0.059 C
HETATM    5  C14 UNL     1      -4.398   4.345  10.656  1.00  0.00    -0.018 C
HETATM    6  C15 UNL     1      -3.517   5.249  11.064  1.00  0.00    -0.041 C
HETATM    7  C16 UNL     1      -3.638   6.612  10.468  1.00  0.00     0.047 C
ENDROOT
BRANCH   3   8
HETATM    8  O2  UNL     1      -4.152   2.160  13.522  1.00  0.00    -0.365 OA
BRANCH   8   9
HETATM    9  C8  UNL     1      -4.582   2.339  14.779  1.00  0.00     0.141 C
HETATM   10  C9  UNL     1      -3.799   3.402  15.556  1.00  0.00     0.057 C
HETATM   11  C10 UNL     1      -5.999   2.880  14.709  1.00  0.00     0.057 C
BRANCH   9  12
HETATM   12  C11 UNL     1      -4.665   1.105  15.598  1.00  0.00     0.292 C
HETATM   13  O3  UNL     1      -3.595   0.547  15.955  1.00  0.00    -0.262 OA
BRANCH  12  14
HETATM   14  O4  UNL     1      -5.852   0.513  16.003  1.00  0.00    -0.324 OA
HETATM   15  C12 UNL     1      -6.203   0.395  17.381  1.00  0.00     0.213 C
ENDBRANCH  12  14
ENDBRANCH   9  12
ENDBRANCH   8   9
ENDBRANCH   3   8
BRANCH   1  16
HETATM   16  C4  UNL     1      -2.466   6.047  13.115  1.00  0.00    -0.063 C
HETATM   17  C3  UNL     1      -2.503   6.865  13.985  1.00  0.00    -0.103 C
BRANCH  17  18
HETATM   18  C2  UNL     1      -2.572   7.859  15.060  1.00  0.00     0.089 C
HETATM   19  C1  UNL     1      -1.287   8.660  15.078  1.00  0.00     0.018 C
ENDBRANCH  17  18
ENDBRANCH   1  16
BRANCH   1  20
HETATM   20  O1  UNL     1      -1.200   5.205  11.394  1.00  0.00    -0.373 OA
ATOM     21  H1  UNL     1      -1.401   5.191  10.465  1.00  0.00     0.212 HD
ENDBRANCH   1  20
TORSDOF 7
ENDMDL