MODEL 2
REMARK VINA RESULT: -6.104035320      2.091      4.252
REMARK  3 active torsions:
REMARK  status: ('A' for Active; 'I' for Inactive)
REMARK    1  A    between atoms: C2_2  and  C3_3
REMARK    2  A    between atoms: C3_3  and  N1_4
REMARK       I    between atoms: N1_4  and  C4_6
REMARK       I    between atoms: C4_6  and  N2_8
REMARK    3  A    between atoms: N2_8  and  C6_10
ROOT
HETATM    1  C6  UNL     1      -3.588   5.040  11.973  1.00  0.00     0.056 A
HETATM    2  C7  UNL     1      -3.187   6.173  12.699  1.00  0.00     0.055 A
HETATM    3  C8  UNL     1      -3.259   6.182  14.066  1.00  0.00     0.009 A
HETATM    4  C9  UNL     1      -2.826   7.380  14.808  1.00  0.00     0.068 C
HETATM    5  N3  UNL     1      -3.711   5.122  14.738  1.00  0.00    -0.344 N
ATOM      6  H3  UNL     1      -3.754   5.155  15.757  1.00  0.00     0.167 HD
HETATM    7  C10 UNL     1      -4.113   4.002  14.091  1.00  0.00     0.136 A
HETATM    8  C11 UNL     1      -4.048   3.966  12.693  1.00  0.00     0.060 A
HETATM    9  C12 UNL     1      -4.510   2.725  12.338  1.00  0.00     0.038 A
HETATM   10  C13 UNL     1      -4.631   2.184  10.972  1.00  0.00     0.071 C
HETATM   11  N4  UNL     1      -4.823   2.089  13.505  1.00  0.00    -0.301 N
ATOM     12  H4  UNL     1      -5.195   1.141  13.554  1.00  0.00     0.187 HD
HETATM   13  N5  UNL     1      -4.595   2.830  14.541  1.00  0.00    -0.280 N
HETATM   14  C14 UNL     1      -4.792   2.533  15.966  1.00  0.00     0.179 C
ENDROOT
BRANCH   1  15
HETATM   15  N2  UNL     1      -3.508   5.056  10.564  1.00  0.00    -0.303 N
HETATM   16  C4  UNL     1      -4.530   5.592   9.727  1.00  0.00     0.322 C
HETATM   17  N1  UNL     1      -5.731   6.136  10.293  1.00  0.00    -0.343 N
HETATM   18  O1  UNL     1      -4.342   5.569   8.487  1.00  0.00    -0.247 OA
ATOM     19  H1  UNL     1      -5.868   6.152  11.304  1.00  0.00     0.164 HD
HETATM   20  C5  UNL     1      -2.325   4.535   9.934  1.00  0.00     0.161 C
BRANCH  17  21
HETATM   21  C3  UNL     1      -6.736   6.657   9.411  1.00  0.00     0.124 C
BRANCH  21  22
HETATM   22  C2  UNL     1      -7.483   7.797  10.026  1.00  0.00     0.015 C
HETATM   23  C1  UNL     1      -7.431   7.759  11.547  1.00  0.00     0.006 C
ENDBRANCH  21  22
ENDBRANCH  17  21
ENDBRANCH   1  15
TORSDOF 3
ENDMDL