MODEL 3
REMARK VINA RESULT: -6.432794353      2.218      2.650
REMARK  7 active torsions:
REMARK  status: ('A' for Active; 'I' for Inactive)
REMARK    1  A    between atoms: C3_4  and  C4_5
REMARK    2  A    between atoms: C9_11  and  O2_12
REMARK    3  A    between atoms: N1_14  and  C10_15
REMARK    4  A    between atoms: C10_15  and  C11_16
REMARK    5  A    between atoms: C11_16  and  O3_17
REMARK    6  A    between atoms: C11_16  and  C12_19
REMARK    7  A    between atoms: C12_19  and  N2_20
ROOT
HETATM    1  O1  UNL     1      -4.914   3.621  10.818  1.00  0.00    -0.266 OA
HETATM    2  C1  UNL     1      -3.731   4.037  11.071  1.00  0.00     0.266 A
HETATM    3  C2  UNL     1      -3.115   4.822  10.045  1.00  0.00     0.069 A
HETATM    4  C3  UNL     1      -3.711   5.104   8.915  1.00  0.00     0.002 C
HETATM    5  S1  UNL     1      -1.471   5.442  10.316  1.00  0.00    -0.092 SA
HETATM    6  C8  UNL     1      -1.047   4.826  11.963  1.00  0.00     0.106 A
HETATM    7  C9  UNL     1      -1.883   4.101  12.662  1.00  0.00     0.151 A
HETATM    8  N1  UNL     1      -3.170   3.684  12.311  1.00  0.00    -0.291 N
ENDROOT
BRANCH   8   9
HETATM    9  C10 UNL     1      -3.956   2.874  13.227  1.00  0.00     0.167 C
BRANCH   9  10
HETATM   10  C11 UNL     1      -4.739   3.713  14.209  1.00  0.00     0.164 C
BRANCH  10  11
HETATM   11  O3  UNL     1      -3.964   3.970  15.335  1.00  0.00    -0.392 OA
ATOM     12  H3  UNL     1      -4.401   4.606  15.890  1.00  0.00     0.210 HD
ENDBRANCH  10  11
BRANCH  10  13
HETATM   13  C12 UNL     1      -5.948   2.936  14.708  1.00  0.00     0.305 C
BRANCH  13  14
HETATM   14  N2  UNL     1      -5.716   2.463  16.036  1.00  0.00     0.090 N
HETATM   15  C13 UNL     1      -6.785   2.722  16.965  1.00  0.00     0.272 C
HETATM   16  C14 UNL     1      -6.326   1.844  18.141  1.00  0.00     0.032 C
HETATM   17  C15 UNL     1      -6.077   0.531  17.387  1.00  0.00     0.032 C
HETATM   18  C16 UNL     1      -5.493   1.042  16.084  1.00  0.00     0.272 C
ENDBRANCH  13  14
ENDBRANCH  10  13
ENDBRANCH   9  10
ENDBRANCH   8   9
BRANCH   7  19
HETATM   19  O2  UNL     1      -1.408   3.700  13.920  1.00  0.00    -0.346 OA
ATOM     20  H2  UNL     1      -1.877   2.971  14.311  1.00  0.00     0.219 HD
ENDBRANCH   7  19
BRANCH   4  21
HETATM   21  C4  UNL     1      -3.103   5.911   7.834  1.00  0.00     0.010 C
HETATM   22  C5  UNL     1      -3.918   7.204   7.675  1.00  0.00     0.008 C
HETATM   23  C6  UNL     1      -4.627   6.612   6.473  1.00  0.00     0.001 C
HETATM   24  C7  UNL     1      -3.536   5.555   6.437  1.00  0.00     0.008 C
ENDBRANCH   4  21
TORSDOF 7
ENDMDL