MODEL 4
REMARK VINA RESULT: -6.555875468      1.230      1.599
REMARK  6 active torsions:
REMARK  status: ('A' for Active; 'I' for Inactive)
REMARK    1  A    between atoms: C4_5  and  O1_6
REMARK    2  A    between atoms: O1_6  and  C5_7
REMARK    3  A    between atoms: C5_7  and  C6_8
REMARK    4  A    between atoms: C6_8  and  O2_9
REMARK    5  A    between atoms: C6_8  and  C7_11
REMARK    6  A    between atoms: C7_11  and  N1_12
ROOT
HETATM    1  N1  UNL     1      -3.379   4.392  13.355  1.00  0.00     0.091 N
HETATM    2  C8  UNL     1      -3.727   4.635  14.758  1.00  0.00     0.273 C
HETATM    3  C9  UNL     1      -3.702   3.342  15.482  1.00  0.00     0.040 C
HETATM    4  C10 UNL     1      -4.946   2.535  15.120  1.00  0.00    -0.034 C
HETATM    5  C11 UNL     1      -4.704   1.142  15.620  1.00  0.00     0.037 C
HETATM    6  C12 UNL     1      -5.536   0.677  16.748  1.00  0.00     0.233 C
HETATM    7  N2  UNL     1      -6.080   1.740  17.577  1.00  0.00    -0.075 N
ATOM      8  H21 UNL     1      -5.375   2.311  18.044  1.00  0.00     0.277 HD
ATOM      9  H22 UNL     1      -6.540   1.416  18.427  1.00  0.00     0.277 HD
HETATM   10  C13 UNL     1      -6.952   2.485  16.666  1.00  0.00     0.233 C
HETATM   11  C14 UNL     1      -6.126   3.239  15.659  1.00  0.00     0.037 C
HETATM   12  C15 UNL     1      -5.005   2.547  13.604  1.00  0.00     0.040 C
HETATM   13  C16 UNL     1      -3.757   3.045  12.958  1.00  0.00     0.273 C
ENDROOT
BRANCH   1  14
HETATM   14  C7  UNL     1      -1.927   4.459  13.301  1.00  0.00     0.306 C
BRANCH  14  15
HETATM   15  C6  UNL     1      -1.414   3.777  12.043  1.00  0.00     0.170 C
BRANCH  15  16
HETATM   16  C5  UNL     1      -0.963   4.867  11.063  1.00  0.00     0.211 C
BRANCH  16  17
HETATM   17  O1  UNL     1       0.363   5.203  11.262  1.00  0.00    -0.328 OA
BRANCH  17  18
HETATM   18  C4  UNL     1       1.426   4.903  10.380  1.00  0.00     0.186 A
HETATM   19  S1  UNL     1       2.673   5.933   9.810  1.00  0.00    -0.057 SA
HETATM   20  C3  UNL     1       3.503   4.809   8.825  1.00  0.00     0.078 A
HETATM   21  C2  UNL     1       2.747   3.675   9.002  1.00  0.00     0.014 A
HETATM   22  C1  UNL     1       3.151   2.394   8.287  1.00  0.00     0.068 C
HETATM   23  N3  UNL     1       1.716   3.763   9.788  1.00  0.00    -0.335 N
ATOM     24  H3  UNL     1       1.127   2.945   9.947  1.00  0.00     0.168 HD
ENDBRANCH  17  18
ENDBRANCH  16  17
ENDBRANCH  15  16
BRANCH  15  25
HETATM   25  O2  UNL     1      -0.322   2.975  12.350  1.00  0.00    -0.392 OA
ATOM     26  H2  UNL     1      -0.592   2.065  12.303  1.00  0.00     0.210 HD
ENDBRANCH  15  25
ENDBRANCH  14  15
ENDBRANCH   1  14
TORSDOF 6
ENDMDL