MODEL 4
REMARK VINA RESULT: -6.544372599      1.699      2.128
REMARK  7 active torsions:
REMARK  status: ('A' for Active; 'I' for Inactive)
REMARK    1  A    between atoms: O1_2  and  C2_3
REMARK    2  A    between atoms: C2_3  and  C3_5
REMARK    3  A    between atoms: C3_5  and  N1_6
REMARK    4  A    between atoms: C3_5  and  C10_23
REMARK       I    between atoms: N1_6  and  C4_8
REMARK    5  A    between atoms: C4_8  and  C5_10
REMARK    6  A    between atoms: C9_15  and  N2_16
REMARK    7  A    between atoms: N2_16  and  N3_18
ROOT
HETATM    1  C5  UNL     1      -1.793   5.622  13.798  1.00  0.00     0.163 C
HETATM    2  S1  UNL     1      -2.982   7.019  13.727  1.00  0.00    -0.152 SA
HETATM    3  C6  UNL     1      -2.531   7.927  12.197  1.00  0.00     0.075 C
HETATM    4  C7  UNL     1      -1.044   8.027  12.127  1.00  0.00     0.012 C
HETATM    5  C8  UNL     1      -0.317   6.732  12.200  1.00  0.00     0.029 C
HETATM    6  C9  UNL     1      -1.192   5.531  12.403  1.00  0.00     0.123 C
ENDROOT
BRANCH   1   7
HETATM    7  C4  UNL     1      -2.510   4.401  14.172  1.00  0.00     0.234 C
HETATM    8  N1  UNL     1      -3.796   4.055  13.674  1.00  0.00    -0.346 N
ATOM      9  H1  UNL     1      -4.255   4.686  13.017  1.00  0.00     0.163 HD
HETATM   10  O3  UNL     1      -1.957   3.614  14.983  1.00  0.00    -0.272 OA
BRANCH   8  11
HETATM   11  C3  UNL     1      -4.465   2.860  14.061  1.00  0.00     0.188 C
BRANCH  11  12
HETATM   12  C2  UNL     1      -4.602   1.882  12.952  1.00  0.00     0.281 C
HETATM   13  O2  UNL     1      -5.529   2.067  12.125  1.00  0.00    -0.263 OA
BRANCH  12  14
HETATM   14  O1  UNL     1      -3.780   0.799  12.781  1.00  0.00    -0.325 OA
HETATM   15  C1  UNL     1      -4.200  -0.543  12.729  1.00  0.00     0.213 C
ENDBRANCH  12  14
ENDBRANCH  11  12
BRANCH  11  16
HETATM   16  C10 UNL     1      -5.833   3.082  14.640  1.00  0.00     0.018 C
HETATM   17  C11 UNL     1      -6.058   4.386  15.336  1.00  0.00     0.007 C
HETATM   18  C12 UNL     1      -6.776   3.629  16.434  1.00  0.00     0.001 C
HETATM   19  C13 UNL     1      -6.006   2.395  15.995  1.00  0.00     0.007 C
ENDBRANCH  11  16
ENDBRANCH   8  11
ENDBRANCH   1   7
BRANCH   6  20
HETATM   20  N2  UNL     1      -0.342   4.354  12.383  1.00  0.00    -0.316 N
ATOM     21  H2  UNL     1      -0.607   3.497  12.868  1.00  0.00     0.182 HD
BRANCH  20  22
HETATM   22  N3  UNL     1       0.715   4.438  11.754  1.00  0.00    -0.253 N
HETATM   23  N4  UNL     1       1.863   4.143  11.365  1.00  0.00    -0.331 N
ATOM     24  H42 UNL     1       1.989   3.307  11.936  1.00  0.00     0.178 HD
ATOM     25  H41 UNL     1       2.738   4.212  10.845  1.00  0.00     0.178 HD
ATOM     26  H3  UNL     1       0.540   5.279  11.205  1.00  0.00     0.207 HD
ENDBRANCH  20  22
ENDBRANCH   6  20
TORSDOF 7
ENDMDL