MODEL 3
REMARK VINA RESULT: -7.731623489      1.164      1.936
REMARK  9 active torsions:
REMARK  status: ('A' for Active; 'I' for Inactive)
REMARK    1  A    between atoms: C3_3  and  C4_4
REMARK    2  A    between atoms: C5_5  and  O1_6
REMARK    3  A    between atoms: C6_8  and  O2_9
REMARK    4  A    between atoms: O2_9  and  C7_10
REMARK    5  A    between atoms: C7_10  and  C8_12
REMARK    6  A    between atoms: C9_15  and  C10_16
REMARK    7  A    between atoms: C10_16  and  O7_18
REMARK    8  A    between atoms: O7_18  and  C11_19
REMARK    9  A    between atoms: C11_19  and  C12_20
ROOT
HETATM    1  C4  UNL     1      -4.156   5.596  13.595  1.00  0.00     0.055 C
HETATM    2  C5  UNL     1      -4.109   4.681  12.431  1.00  0.00     0.157 C
HETATM    3  C6  UNL     1      -4.137   3.498  13.377  1.00  0.00     0.176 C
HETATM    4  C9  UNL     1      -4.605   4.424  14.473  1.00  0.00     0.128 C
ENDROOT
BRANCH   4   5
HETATM    5  C10 UNL     1      -6.076   4.498  14.650  1.00  0.00     0.266 C
HETATM    6  O6  UNL     1      -6.716   5.452  14.140  1.00  0.00    -0.265 OA
BRANCH   5   7
HETATM    7  O7  UNL     1      -6.792   3.548  15.360  1.00  0.00    -0.320 OA
BRANCH   7   8
HETATM    8  C11 UNL     1      -6.804   3.531  16.794  1.00  0.00     0.187 C
BRANCH   8   9
HETATM    9  C12 UNL     1      -6.446   2.145  17.278  1.00  0.00    -0.029 C
HETATM   10  C13 UNL     1      -7.498   1.157  16.878  1.00  0.00     0.016 C
HETATM   11  C14 UNL     1      -5.084   1.711  16.800  1.00  0.00     0.016 C
HETATM   12  C15 UNL     1      -6.386   2.187  18.800  1.00  0.00     0.016 C
ENDBRANCH   8   9
ENDBRANCH   7   8
ENDBRANCH   5   7
ENDBRANCH   4   5
BRANCH   1  13
HETATM   13  C3  UNL     1      -2.911   6.147  14.143  1.00  0.00    -0.023 C
HETATM   14  C2  UNL     1      -2.740   7.413  14.403  1.00  0.00    -0.034 C
HETATM   15  C1  UNL     1      -1.437   7.885  14.960  1.00  0.00     0.036 C
ENDBRANCH   1  13
BRANCH   3  16
HETATM   16  O2  UNL     1      -5.039   2.482  13.065  1.00  0.00    -0.304 OA
BRANCH  16  17
HETATM   17  C7  UNL     1      -4.772   1.445  12.182  1.00  0.00     0.360 C
HETATM   18  O3  UNL     1      -4.905   1.691  10.957  1.00  0.00    -0.252 OA
BRANCH  17  19
HETATM   19  C8  UNL     1      -4.352   0.115  12.660  1.00  0.00     0.277 C
HETATM   20  O4  UNL     1      -4.036  -0.804  11.892  1.00  0.00    -0.640 OA
HETATM   21  O5  UNL     1      -4.317  -0.089  14.025  1.00  0.00    -0.640 OA
ENDBRANCH  17  19
ENDBRANCH  16  17
ENDBRANCH   3  16
BRANCH   2  22
HETATM   22  O1  UNL     1      -5.223   4.760  11.592  1.00  0.00    -0.392 OA
ATOM     23  H1  UNL     1      -5.918   4.150  11.806  1.00  0.00     0.210 HD
ENDBRANCH   2  22
TORSDOF 9
ENDMDL