MODEL 5
REMARK VINA RESULT: -6.571975765      2.322      2.977
REMARK  8 active torsions:
REMARK  status: ('A' for Active; 'I' for Inactive)
REMARK    1  A    between atoms: C1_2  and  O2_3
REMARK    2  A    between atoms: C1_2  and  O4_16
REMARK    3  A    between atoms: O2_3  and  C2_4
REMARK    4  A    between atoms: C2_4  and  C3_5
REMARK    5  A    between atoms: C3_5  and  O3_6
REMARK    6  A    between atoms: C3_5  and  C4_8
REMARK    7  A    between atoms: O4_16  and  C9_17
REMARK    8  A    between atoms: C9_17  and  C10_18
ROOT
HETATM    1  O1  UNL     1      -4.769   2.304  10.179  1.00  0.00    -0.230 OA
HETATM    2  C1  UNL     1      -4.583   3.297  10.905  1.00  0.00     0.406 C
ENDROOT
BRANCH   2   3
HETATM    3  O2  UNL     1      -3.771   3.066  12.026  1.00  0.00    -0.296 OA
BRANCH   3   4
HETATM    4  C2  UNL     1      -4.222   2.178  13.058  1.00  0.00     0.213 C
BRANCH   4   5
HETATM    5  C3  UNL     1      -4.519   2.918  14.323  1.00  0.00     0.148 C
BRANCH   5   6
HETATM    6  O3  UNL     1      -3.350   3.306  14.981  1.00  0.00    -0.393 OA
ATOM      7  H3  UNL     1      -2.960   4.073  14.579  1.00  0.00     0.210 HD
ENDBRANCH   5   6
BRANCH   5   8
HETATM    8  C4  UNL     1      -5.344   2.062  15.225  1.00  0.00     0.042 C
HETATM    9  C5  UNL     1      -6.260   2.846  16.108  1.00  0.00     0.010 C
HETATM   10  C6  UNL     1      -7.105   1.844  16.904  1.00  0.00     0.028 C
HETATM   11  C7  UNL     1      -6.158   1.041  17.757  1.00  0.00     0.232 C
HETATM   12  N1  UNL     1      -5.333   0.263  16.820  1.00  0.00    -0.075 N
HETATM   13  C8  UNL     1      -4.477   1.181  16.122  1.00  0.00     0.239 C
ATOM     14  H12 UNL     1      -4.817  -0.489  17.276  1.00  0.00     0.277 HD
ATOM     15  H11 UNL     1      -5.888  -0.316  16.191  1.00  0.00     0.277 HD
ENDBRANCH   5   8
ENDBRANCH   4   5
ENDBRANCH   3   4
ENDBRANCH   2   3
BRANCH   2  16
HETATM   16  O4  UNL     1      -5.136   4.469  10.596  1.00  0.00    -0.295 OA
BRANCH  16  17
HETATM   17  C9  UNL     1      -4.761   5.761  10.413  1.00  0.00     0.223 C
BRANCH  17  18
HETATM   18  C10 UNL     1      -5.102   6.738  11.450  1.00  0.00     0.181 C
HETATM   19  C11 UNL     1      -4.616   6.326  12.828  1.00  0.00     0.044 C
HETATM   20  C12 UNL     1      -3.153   6.432  13.028  1.00  0.00     0.004 C
HETATM   21  C13 UNL     1      -2.558   7.724  12.528  1.00  0.00     0.030 C
HETATM   22  C14 UNL     1      -3.084   8.064  11.131  1.00  0.00     0.273 C
HETATM   23  N2  UNL     1      -4.485   8.052  11.187  1.00  0.00     0.100 N
HETATM   24  C15 UNL     1      -5.161   8.556  10.016  1.00  0.00     0.273 C
HETATM   25  C16 UNL     1      -6.571   8.000  10.177  1.00  0.00     0.033 C
HETATM   26  C17 UNL     1      -6.517   7.200  11.476  1.00  0.00     0.045 C
ENDBRANCH  17  18
ENDBRANCH  16  17
ENDBRANCH   2  16
TORSDOF 8
ENDMDL