MODEL 2
REMARK VINA RESULT: -6.659417529      1.065      1.591
REMARK  6 active torsions:
REMARK  status: ('A' for Active; 'I' for Inactive)
REMARK    1  A    between atoms: C2_2  and  C3_3
REMARK    2  A    between atoms: C4_10  and  C5_11
REMARK    3  A    between atoms: C7_15  and  N5_16
REMARK    4  A    between atoms: N5_16  and  C8_18
REMARK    5  A    between atoms: C8_18  and  C9_19
REMARK    6  A    between atoms: N7_25  and  C13_27
ROOT
HETATM    1  C5  UNL     1      -3.651   4.214  12.960  1.00  0.00     0.070 A
HETATM    2  C6  UNL     1      -3.884   5.174  13.927  1.00  0.00     0.125 A
HETATM    3  N4  UNL     1      -4.772   5.042  14.928  1.00  0.00    -0.201 N
ATOM      4  H4  UNL     1      -4.909   5.782  15.618  1.00  0.00     0.183 HD
HETATM    5  C7  UNL     1      -5.471   3.895  14.983  1.00  0.00     0.679 A
HETATM    6  N6  UNL     1      -5.269   2.927  14.050  1.00  0.00    -0.176 N
ATOM      7  H6  UNL     1      -5.811   2.065  14.114  1.00  0.00     0.186 HD
HETATM    8  C12 UNL     1      -4.384   3.057  13.049  1.00  0.00     0.132 A
HETATM    9  N7  UNL     1      -4.195   2.137  12.167  1.00  0.00    -0.371 N
ATOM     10  H7  UNL     1      -3.504   2.313  11.437  1.00  0.00     0.161 HD
ENDROOT
BRANCH   1  11
HETATM   11  C4  UNL     1      -2.668   4.449  11.914  1.00  0.00     0.138 A
HETATM   12  N3  UNL     1      -3.072   4.998  10.759  1.00  0.00    -0.270 N
HETATM   13  N2  UNL     1      -2.225   5.241   9.761  1.00  0.00    -0.240 N
ATOM     14  H3  UNL     1      -4.056   5.237  10.643  1.00  0.00     0.190 HD
HETATM   15  N1  UNL     1      -0.944   4.928   9.914  1.00  0.00    -0.275 N
ATOM     16  H2  UNL     1      -2.555   5.661   8.892  1.00  0.00     0.208 HD
HETATM   17  C3  UNL     1      -0.484   4.376  11.046  1.00  0.00     0.098 A
ATOM     18  H1  UNL     1      -0.293   5.112   9.151  1.00  0.00     0.189 HD
HETATM   19  N8  UNL     1      -1.364   4.146  12.031  1.00  0.00    -0.329 N
ATOM     20  H8  UNL     1      -1.032   3.727  12.900  1.00  0.00     0.168 HD
BRANCH  17  21
HETATM   21  C2  UNL     1       0.950   4.050  11.158  1.00  0.00     0.073 C
HETATM   22  C1  UNL     1       1.628   3.993   9.803  1.00  0.00     0.013 C
ENDBRANCH  17  21
ENDBRANCH   1  11
BRANCH   9  23
HETATM   23  C13 UNL     1      -4.889   0.885  12.142  1.00  0.00     0.075 C
HETATM   24  C14 UNL     1      -4.120  -0.250  12.760  1.00  0.00     0.031 C
HETATM   25  C15 UNL     1      -5.171   0.536  10.693  1.00  0.00     0.031 C
ENDBRANCH   9  23
BRANCH   5  26
HETATM   26  N5  UNL     1      -6.321   3.728  15.913  1.00  0.00    -0.226 N
ATOM     27  H5  UNL     1      -6.671   4.569  16.372  1.00  0.00     0.177 HD
BRANCH  26  28
HETATM   28  C8  UNL     1      -6.835   2.483  16.379  1.00  0.00     0.142 C
BRANCH  28  29
HETATM   29  C9  UNL     1      -5.916   1.847  17.412  1.00  0.00    -0.004 C
HETATM   30  C10 UNL     1      -6.416   2.213  18.805  1.00  0.00     0.011 C
HETATM   31  C11 UNL     1      -5.962   0.337  17.319  1.00  0.00     0.011 C
ENDBRANCH  28  29
ENDBRANCH  26  28
ENDBRANCH   5  26
TORSDOF 6
ENDMDL