MODEL 1
REMARK VINA RESULT: -8.001312796      0.000      0.000
REMARK  5 active torsions:
REMARK  status: ('A' for Active; 'I' for Inactive)
REMARK    1  A    between atoms: C1_2  and  C2_3
REMARK       I    between atoms: C1_2  and  N4_19
REMARK    2  A    between atoms: C2_3  and  S1_4
REMARK    3  A    between atoms: S1_4  and  C3_5
REMARK    4  A    between atoms: C4_8  and  C5_9
REMARK    5  A    between atoms: N4_19  and  C11_21
ROOT
HETATM    1  C3  UNL     1      -5.210   6.286  11.593  1.00  0.00     0.160 A
HETATM    2  N1  UNL     1      -6.281   7.118  11.435  1.00  0.00    -0.324 N
ATOM      3  H1  UNL     1      -6.843   7.506  12.193  1.00  0.00     0.169 HD
HETATM    4  C4  UNL     1      -6.477   7.342  10.136  1.00  0.00     0.102 A
HETATM    5  N2  UNL     1      -5.528   6.647   9.490  1.00  0.00    -0.287 N
ATOM      6  H2  UNL     1      -5.415   6.616   8.476  1.00  0.00     0.188 HD
HETATM    7  N3  UNL     1      -4.755   6.004  10.362  1.00  0.00    -0.278 N
ATOM      8  H3  UNL     1      -3.960   5.404  10.135  1.00  0.00     0.189 HD
ENDROOT
BRANCH   1   9
HETATM    9  S1  UNL     1      -4.481   5.658  13.091  1.00  0.00    -0.083 SA
BRANCH   9  10
HETATM   10  C2  UNL     1      -4.307   3.856  13.032  1.00  0.00     0.185 C
BRANCH  10  11
HETATM   11  C1  UNL     1      -4.174   3.359  14.418  1.00  0.00     0.228 C
HETATM   12  O1  UNL     1      -3.061   3.396  15.018  1.00  0.00    -0.273 OA
HETATM   13  N4  UNL     1      -5.291   2.838  15.085  1.00  0.00    -0.347 N
ATOM     14  H4  UNL     1      -6.182   2.811  14.589  1.00  0.00     0.163 HD
BRANCH  13  15
HETATM   15  C11 UNL     1      -5.249   2.329  16.457  1.00  0.00     0.186 C
HETATM   16  C12 UNL     1      -6.629   2.380  17.061  1.00  0.00     0.062 C
HETATM   17  C13 UNL     1      -7.146   0.949  17.096  1.00  0.00     0.181 C
HETATM   18  O2  UNL     1      -6.238   0.205  16.272  1.00  0.00    -0.320 OA
HETATM   19  C14 UNL     1      -4.994   0.853  16.355  1.00  0.00     0.281 C
HETATM   20  O3  UNL     1      -3.870   0.327  16.347  1.00  0.00    -0.263 OA
ENDBRANCH  13  15
ENDBRANCH  10  11
ENDBRANCH   9  10
ENDBRANCH   1   9
BRANCH   4  21
HETATM   21  C5  UNL     1      -7.488   8.179   9.441  1.00  0.00     0.055 C
HETATM   22  C6  UNL     1      -8.158   7.351   8.360  1.00  0.00     0.012 C
HETATM   23  C7  UNL     1      -9.384   8.069   7.846  1.00  0.00     0.001 C
HETATM   24  C8  UNL     1      -9.180   9.567   7.825  1.00  0.00     0.000 C
HETATM   25  C9  UNL     1      -7.723   9.944   7.757  1.00  0.00     0.001 C
HETATM   26  C10 UNL     1      -6.859   9.369   8.814  1.00  0.00     0.012 C
ENDBRANCH   4  21
TORSDOF 5
ENDMDL