MODEL 1
REMARK VINA RESULT: -6.008533479      0.000      0.000
REMARK  9 active torsions:
REMARK  status: ('A' for Active; 'I' for Inactive)
REMARK    1  A    between atoms: C2_3  and  C3_4
REMARK    2  A    between atoms: C2_3  and  C8_16
REMARK    3  A    between atoms: C3_4  and  O1_5
REMARK    4  A    between atoms: O1_5  and  C4_6
REMARK    5  A    between atoms: C4_6  and  N2_8
REMARK    6  A    between atoms: N2_8  and  C5_10
REMARK    7  A    between atoms: C8_16  and  N4_17
REMARK    8  A    between atoms: C12_21  and  C13_22
REMARK    9  A    between atoms: C13_22  and  O2_23
ROOT
HETATM    1  N1  UNL     1      -5.532   1.636  11.350  1.00  0.00    -0.197 NA
HETATM    2  C1  UNL     1      -4.767   2.195  11.993  1.00  0.00     0.068 C
HETATM    3  C2  UNL     1      -3.790   2.929  12.798  1.00  0.00     0.145 C
ENDROOT
BRANCH   3   4
HETATM    4  C3  UNL     1      -3.552   4.286  12.130  1.00  0.00     0.199 C
BRANCH   4   5
HETATM    5  O1  UNL     1      -2.427   4.230  11.272  1.00  0.00    -0.326 OA
BRANCH   5   6
HETATM    6  C4  UNL     1      -1.203   4.558  11.812  1.00  0.00     0.216 C
HETATM    7  S1  UNL     1      -1.024   5.992  12.610  1.00  0.00    -0.033 SA
BRANCH   6   8
HETATM    8  N2  UNL     1      -0.055   3.734  11.732  1.00  0.00    -0.308 N
ATOM      9  H2  UNL     1      -0.023   2.824  12.193  1.00  0.00     0.171 HD
BRANCH   8  10
HETATM   10  C5  UNL     1       0.969   4.186  11.039  1.00  0.00     0.150 A
HETATM   11  N3  UNL     1       2.219   4.378  11.460  1.00  0.00    -0.346 N
HETATM   12  C6  UNL     1       3.101   4.839  10.615  1.00  0.00     0.097 A
ATOM     13  H3  UNL     1       2.481   4.170  12.423  1.00  0.00     0.167 HD
HETATM   14  C7  UNL     1       2.684   5.099   9.335  1.00  0.00     0.070 A
HETATM   15  S2  UNL     1       1.036   4.669   9.403  1.00  0.00    -0.064 SA
ENDBRANCH   8  10
ENDBRANCH   6   8
ENDBRANCH   5   6
ENDBRANCH   4   5
ENDBRANCH   3   4
BRANCH   3  16
HETATM   16  C8  UNL     1      -4.273   3.204  14.181  1.00  0.00     0.294 C
BRANCH  16  17
HETATM   17  N4  UNL     1      -5.058   2.174  14.782  1.00  0.00     0.096 N
HETATM   18  C9  UNL     1      -6.318   2.807  15.206  1.00  0.00     0.273 C
HETATM   19  C10 UNL     1      -6.678   2.167  16.515  1.00  0.00     0.032 C
HETATM   20  C11 UNL     1      -5.344   1.893  17.129  1.00  0.00     0.040 C
HETATM   21  C12 UNL     1      -4.494   1.553  15.930  1.00  0.00     0.246 C
BRANCH  21  22
HETATM   22  C13 UNL     1      -4.541   0.037  15.766  1.00  0.00     0.199 C
BRANCH  22  23
HETATM   23  O2  UNL     1      -4.794  -0.310  14.434  1.00  0.00    -0.399 OA
ATOM     24  H2  UNL     1      -5.329  -1.094  14.387  1.00  0.00     0.209 HD
ENDBRANCH  22  23
ENDBRANCH  21  22
ENDBRANCH  16  17
ENDBRANCH   3  16
TORSDOF 9
ENDMDL