MODEL 1
REMARK VINA RESULT: -5.981784754      0.000      0.000
REMARK  7 active torsions:
REMARK  status: ('A' for Active; 'I' for Inactive)
REMARK       I    between atoms: C2_2  and  N1_4
REMARK    1  A    between atoms: N2_7  and  C5_8
REMARK    2  A    between atoms: C9_12  and  S1_13
REMARK    3  A    between atoms: S1_13  and  S2_14
REMARK    4  A    between atoms: S2_14  and  C10_15
REMARK    5  A    between atoms: C10_15  and  O2_16
REMARK    6  A    between atoms: C10_15  and  C11_18
REMARK    7  A    between atoms: C11_18  and  O3_19
ROOT
HETATM    1  C5  UNL     1      -4.219   3.766  12.885  1.00  0.00     0.018 C
HETATM    2  C6  UNL     1      -4.691   2.933  11.973  1.00  0.00    -0.001 C
HETATM    3  C7  UNL     1      -4.073   3.193  10.650  1.00  0.00     0.030 C
HETATM    4  C8  UNL     1      -3.583   4.610  10.764  1.00  0.00     0.026 C
HETATM    5  C9  UNL     1      -3.219   4.692  12.252  1.00  0.00     0.108 C
ENDROOT
BRANCH   1   6
HETATM    6  N2  UNL     1      -4.594   3.791  14.250  1.00  0.00    -0.380 N
HETATM    7  C4  UNL     1      -5.915   4.134  14.722  1.00  0.00     0.142 C
HETATM    8  C3  UNL     1      -6.325   3.322  15.926  1.00  0.00     0.145 C
HETATM    9  N1  UNL     1      -5.483   2.183  16.158  1.00  0.00    -0.349 N
HETATM   10  C2  UNL     1      -6.080   1.013  16.759  1.00  0.00     0.215 C
HETATM   11  C13 UNL     1      -4.082   2.120  15.835  1.00  0.00     0.145 C
HETATM   12  C1  UNL     1      -7.504   0.949  17.137  1.00  0.00     0.117 C
HETATM   13  O1  UNL     1      -5.383  -0.031  16.990  1.00  0.00    -0.274 OA
HETATM   14  C12 UNL     1      -3.630   3.453  15.297  1.00  0.00     0.142 C
ENDBRANCH   1   6
BRANCH   5  15
HETATM   15  S1  UNL     1      -3.335   6.345  12.916  1.00  0.00    -0.084 SA
BRANCH  15  16
HETATM   16  S2  UNL     1      -4.042   7.685  11.438  1.00  0.00    -0.063 SA
BRANCH  16  17
HETATM   17  C10 UNL     1      -5.815   7.528  11.183  1.00  0.00     0.213 C
BRANCH  17  18
HETATM   18  O2  UNL     1      -6.371   6.544  11.993  1.00  0.00    -0.382 OA
ATOM     19  H2  UNL     1      -7.144   6.156  11.600  1.00  0.00     0.211 HD
ENDBRANCH  17  18
BRANCH  17  20
HETATM   20  C11 UNL     1      -6.137   7.207   9.723  1.00  0.00     0.207 C
BRANCH  20  21
HETATM   21  O3  UNL     1      -6.721   5.946   9.615  1.00  0.00    -0.397 OA
ATOM     22  H3  UNL     1      -6.829   5.705   8.702  1.00  0.00     0.209 HD
ENDBRANCH  20  21
ENDBRANCH  17  20
ENDBRANCH  16  17
ENDBRANCH  15  16
ENDBRANCH   5  15
TORSDOF 7
ENDMDL