MODEL 4
REMARK VINA RESULT: -6.555937474      4.332      7.906
REMARK  6 active torsions:
REMARK  status: ('A' for Active; 'I' for Inactive)
REMARK    1  A    between atoms: C2_4  and  O1_5
REMARK    2  A    between atoms: C2_4  and  C8_14
REMARK    3  A    between atoms: O1_5  and  C3_6
REMARK    4  A    between atoms: C3_6  and  C4_7
REMARK       I    between atoms: C4_7  and  N2_9
REMARK    5  A    between atoms: N2_9  and  C5_11
REMARK    6  A    between atoms: C13_19  and  C14_20
ROOT
HETATM    1  C8  UNL     1      -4.451   5.016  11.748  1.00  0.00     0.205 C
HETATM    2  C9  UNL     1      -5.256   5.467  12.946  1.00  0.00     0.051 C
HETATM    3  C10 UNL     1      -4.584   4.877  14.182  1.00  0.00    -0.027 C
HETATM    4  C11 UNL     1      -5.512   5.206  15.347  1.00  0.00     0.016 C
HETATM    5  C12 UNL     1      -3.307   5.668  14.401  1.00  0.00     0.016 C
HETATM    6  C13 UNL     1      -4.297   3.421  14.046  1.00  0.00     0.137 C
HETATM    7  C16 UNL     1      -4.595   2.851  12.713  1.00  0.00     0.124 C
HETATM    8  N3  UNL     1      -4.686   1.567  12.615  1.00  0.00    -0.383 N
ATOM      9  H31 UNL     1      -4.892   1.173  11.696  1.00  0.00     0.158 HD
ATOM     10  H32 UNL     1      -4.554   0.992  13.447  1.00  0.00     0.158 HD
HETATM   11  O4  UNL     1      -4.779   3.644  11.566  1.00  0.00    -0.325 OA
ENDROOT
BRANCH   1  12
HETATM   12  C2  UNL     1      -4.740   5.831  10.573  1.00  0.00     0.144 C
HETATM   13  N1  UNL     1      -3.813   6.581  10.081  1.00  0.00    -0.377 N
HETATM   14  C1  UNL     1      -2.499   6.643  10.653  1.00  0.00     0.148 C
ATOM     15  H1  UNL     1      -4.021   7.148   9.259  1.00  0.00     0.160 HD
BRANCH  12  16
HETATM   16  O1  UNL     1      -5.968   5.865   9.923  1.00  0.00    -0.328 OA
BRANCH  16  17
HETATM   17  C3  UNL     1      -6.728   7.030   9.901  1.00  0.00     0.279 C
BRANCH  17  18
HETATM   18  C4  UNL     1      -7.523   7.217   8.679  1.00  0.00     0.242 C
HETATM   19  O2  UNL     1      -7.839   6.246   7.911  1.00  0.00    -0.271 OA
HETATM   20  N2  UNL     1      -7.987   8.499   8.284  1.00  0.00    -0.355 N
ATOM     21  H2  UNL     1      -7.757   9.303   8.868  1.00  0.00     0.162 HD
BRANCH  20  22
HETATM   22  C5  UNL     1      -8.773   8.715   7.086  1.00  0.00     0.076 C
HETATM   23  C6  UNL     1      -8.092   9.602   6.097  1.00  0.00     0.032 C
HETATM   24  C7  UNL     1     -10.130   9.311   7.411  1.00  0.00     0.032 C
ENDBRANCH  20  22
ENDBRANCH  17  18
ENDBRANCH  16  17
ENDBRANCH  12  16
ENDBRANCH   1  12
BRANCH   6  25
HETATM   25  C14 UNL     1      -4.862   2.587  15.144  1.00  0.00     0.135 C
HETATM   26  C15 UNL     1      -4.034   2.016  16.238  1.00  0.00     0.091 C
HETATM   27  O3  UNL     1      -6.055   2.358  15.152  1.00  0.00    -0.297 OA
ENDBRANCH   6  25
TORSDOF 6
ENDMDL