MODEL 1
REMARK VINA RESULT: -8.149754141      0.000      0.000
REMARK  5 active torsions:
REMARK  status: ('A' for Active; 'I' for Inactive)
REMARK    1  A    between atoms: O1_2  and  C2_3
REMARK    2  A    between atoms: C11_15  and  O4_16
REMARK    3  A    between atoms: C15_20  and  S1_21
REMARK    4  A    between atoms: S1_21  and  C16_22
REMARK    5  A    between atoms: C18_25  and  O6_26
ROOT
HETATM    1  C2  UNL     1      34.237  13.070  24.731  1.00  0.00     0.112 A
HETATM    2  C3  UNL     1      33.283  12.560  23.921  1.00  0.00     0.017 A
HETATM    3  C4  UNL     1      33.381  12.677  22.526  1.00  0.00    -0.011 A
HETATM    4  C5  UNL     1      34.438  13.307  21.933  1.00  0.00     0.100 A
HETATM    5  O2  UNL     1      34.533  13.415  20.644  1.00  0.00    -0.273 OA
HETATM    6  C6  UNL     1      35.519  13.996  20.039  1.00  0.00     0.306 A
HETATM    7  O3  UNL     1      35.551  14.068  18.754  1.00  0.00    -0.258 OA
HETATM    8  C7  UNL     1      36.539  14.542  20.755  1.00  0.00     0.093 A
HETATM    9 BR1  UNL     1      38.028  15.420  19.959  1.00  0.00    -0.044 Br
HETATM   10  C8  UNL     1      36.521  14.476  22.142  1.00  0.00    -0.023 A
HETATM   11  C9  UNL     1      37.658  15.002  22.924  1.00  0.00     0.051 C
HETATM   12  C10 UNL     1      35.462  13.859  22.759  1.00  0.00     0.042 A
HETATM   13  C11 UNL     1      35.328  13.725  24.111  1.00  0.00     0.115 A
HETATM   14  C13 UNL     1      32.313  12.070  21.686  1.00  0.00     0.043 C
HETATM   15  C14 UNL     1      32.189  10.648  22.216  1.00  0.00     0.023 C
HETATM   16  C15 UNL     1      31.653  10.694  23.606  1.00  0.00     0.089 C
HETATM   17  C18 UNL     1      32.065  11.884  24.420  1.00  0.00     0.171 C
ENDROOT
BRANCH  16  18
HETATM   18  S1  UNL     1      32.138   9.133  24.407  1.00  0.00    -0.085 SA
BRANCH  18  19
HETATM   19  C16 UNL     1      30.975   7.843  24.065  1.00  0.00     0.182 C
HETATM   20  C17 UNL     1      30.904   6.546  24.775  1.00  0.00     0.104 C
HETATM   21  O5  UNL     1      30.146   8.017  23.167  1.00  0.00    -0.286 OA
ENDBRANCH  18  19
ENDBRANCH  16  18
BRANCH  17  22
HETATM   22  O6  UNL     1      32.081  11.503  25.732  1.00  0.00    -0.385 OA
HETATM   23  C19 UNL     1      30.854  11.768  26.338  1.00  0.00     0.202 C
ENDBRANCH  17  22
BRANCH   1  24
HETATM   24  O1  UNL     1      34.251  13.010  26.110  1.00  0.00    -0.352 OA
HETATM   25  C1  UNL     1      33.642  13.980  26.942  1.00  0.00     0.210 C
ENDBRANCH   1  24
BRANCH  13  26
HETATM   26  O4  UNL     1      36.305  14.256  24.975  1.00  0.00    -0.352 OA
HETATM   27  C12 UNL     1      36.058  15.608  25.469  1.00  0.00     0.210 C
ENDBRANCH  13  26
TORSDOF 5
ENDMDL