MODEL 5
REMARK VINA RESULT: -8.769960992      3.145      6.711
REMARK  5 active torsions:
REMARK  status: ('A' for Active; 'I' for Inactive)
REMARK    1  A    between atoms: C4_4  and  C5_5
REMARK    2  A    between atoms: C17_19  and  O3_20
REMARK    3  A    between atoms: C20_24  and  O4_25
REMARK    4  A    between atoms: O4_25  and  C21_26
REMARK    5  A    between atoms: C21_26  and  C22_28
ROOT
HETATM    1  C5  UNL     1      33.561  13.426  24.643  1.00  0.00     0.168 C
HETATM    2  C6  UNL     1      34.288  13.222  23.382  1.00  0.00     0.052 C
HETATM    3  C7  UNL     1      35.339  14.214  23.108  1.00  0.00    -0.004 C
HETATM    4  C8  UNL     1      34.831  15.478  22.542  1.00  0.00     0.021 C
HETATM    5  C9  UNL     1      36.446  13.561  22.196  1.00  0.00     0.052 C
HETATM    6  C10 UNL     1      37.505  14.499  22.552  1.00  0.00    -0.038 C
HETATM    7  C11 UNL     1      37.471  14.518  24.030  1.00  0.00    -0.029 C
HETATM    8  C12 UNL     1      36.181  14.368  24.324  1.00  0.00     0.033 C
HETATM    9  C13 UNL     1      35.474  14.459  25.623  1.00  0.00     0.291 C
HETATM   10  O1  UNL     1      35.919  15.310  26.387  1.00  0.00    -0.260 OA
HETATM   11  O2  UNL     1      34.419  13.582  25.783  1.00  0.00    -0.307 OA
HETATM   12  C14 UNL     1      38.600  14.624  24.968  1.00  0.00     0.012 C
HETATM   13  C15 UNL     1      38.540  14.085  26.324  1.00  0.00     0.023 C
HETATM   14  C16 UNL     1      39.647  13.658  24.327  1.00  0.00     0.023 C
HETATM   15  C17 UNL     1      39.154  15.987  24.800  1.00  0.00     0.180 C
HETATM   16  C18 UNL     1      39.550  16.402  23.458  1.00  0.00     0.006 C
HETATM   17  C19 UNL     1      39.408  15.879  22.250  1.00  0.00     0.008 C
HETATM   18  C20 UNL     1      38.755  14.612  21.830  1.00  0.00     0.184 C
ENDROOT
BRANCH   1  19
HETATM   19  C4  UNL     1      32.644  12.265  24.846  1.00  0.00    -0.004 A
HETATM   20  C3  UNL     1      32.108  11.469  23.856  1.00  0.00     0.044 A
HETATM   21  C2  UNL     1      31.322  10.520  24.465  1.00  0.00     0.049 A
HETATM   22  C1  UNL     1      30.547   9.445  23.752  1.00  0.00     0.076 C
HETATM   23  O6  UNL     1      31.377  10.728  25.763  1.00  0.00    -0.327 OA
HETATM   24  C25 UNL     1      32.150  11.754  26.032  1.00  0.00     0.151 A
ENDBRANCH   1  19
BRANCH  18  25
HETATM   25  O4  UNL     1      38.343  14.877  20.457  1.00  0.00    -0.307 OA
BRANCH  25  26
HETATM   26  C21 UNL     1      39.169  14.729  19.382  1.00  0.00     0.263 C
HETATM   27  O5  UNL     1      39.279  15.691  18.577  1.00  0.00    -0.265 OA
BRANCH  26  28
HETATM   28  C22 UNL     1      39.951  13.490  19.107  1.00  0.00     0.077 C
HETATM   29  C23 UNL     1      39.143  12.285  19.600  1.00  0.00     0.020 C
HETATM   30  C24 UNL     1      41.295  13.517  19.816  1.00  0.00     0.020 C
ENDBRANCH  26  28
ENDBRANCH  25  26
ENDBRANCH  18  25
BRANCH  15  31
HETATM   31  O3  UNL     1      40.263  16.085  25.667  1.00  0.00    -0.274 OA
HETATM   32 CL1  UNL     1      41.676  16.557  24.890  1.00  0.00     0.062 Cl
ENDBRANCH  15  31
TORSDOF 5
ENDMDL