MODEL 2
REMARK VINA RESULT: -7.876470526      1.065      1.114
REMARK  6 active torsions:
REMARK  status: ('A' for Active; 'I' for Inactive)
REMARK    1  A    between atoms: C11_11  and  O1_12
REMARK    2  A    between atoms: O1_12  and  C12_13
REMARK    3  A    between atoms: C19_22  and  O4_23
REMARK    4  A    between atoms: C21_25  and  O5_26
REMARK    5  A    between atoms: O5_26  and  C22_27
REMARK    6  A    between atoms: C22_27  and  C23_29
ROOT
HETATM    1  C1  UNL     1      35.705  12.024  23.718  1.00  0.00     0.015 C
HETATM    2  C2  UNL     1      34.988  13.069  23.372  1.00  0.00    -0.075 C
HETATM    3  C3  UNL     1      33.529  12.758  23.398  1.00  0.00     0.039 C
HETATM    4  C4  UNL     1      32.825  12.705  24.643  1.00  0.00    -0.004 C
HETATM    5  C5  UNL     1      32.275  11.262  24.778  1.00  0.00     0.005 C
HETATM    6  C6  UNL     1      31.179  11.164  25.761  1.00  0.00     0.001 C
HETATM    7  C7  UNL     1      31.650  11.678  27.111  1.00  0.00     0.005 C
HETATM    8  C8  UNL     1      32.108  13.107  26.820  1.00  0.00    -0.012 C
HETATM    9  C9  UNL     1      32.080  13.863  28.065  1.00  0.00     0.010 C
HETATM   10  C10 UNL     1      33.364  13.055  25.975  1.00  0.00     0.023 C
HETATM   11  C11 UNL     1      34.249  14.198  26.126  1.00  0.00     0.139 C
HETATM   12  C14 UNL     1      34.518  15.130  25.005  1.00  0.00     0.071 C
HETATM   13  C15 UNL     1      35.791  15.122  24.278  1.00  0.00     0.074 C
HETATM   14  C16 UNL     1      36.069  16.555  23.760  1.00  0.00     0.047 C
HETATM   15  O3  UNL     1      36.891  14.760  24.963  1.00  0.00    -0.368 OA
HETATM   16  C17 UNL     1      38.086  14.770  24.350  1.00  0.00     0.177 C
HETATM   17  C18 UNL     1      38.832  16.061  24.628  1.00  0.00     0.046 C
HETATM   18  C19 UNL     1      38.092  14.366  22.954  1.00  0.00     0.104 C
HETATM   19  C21 UNL     1      36.956  14.140  22.286  1.00  0.00     0.099 C
HETATM   20  C24 UNL     1      35.696  14.312  23.011  1.00  0.00     0.108 C
ENDROOT
BRANCH  19  21
HETATM   21  O5  UNL     1      37.112  13.767  20.977  1.00  0.00    -0.279 OA
BRANCH  21  22
HETATM   22  C22 UNL     1      36.604  14.324  19.855  1.00  0.00     0.277 C
HETATM   23  O6  UNL     1      35.634  13.782  19.286  1.00  0.00    -0.264 OA
BRANCH  22  24
HETATM   24  C23 UNL     1      37.196  15.598  19.282  1.00  0.00     0.226 C
HETATM   25 CL1  UNL     1      38.932  15.334  19.078  1.00  0.00    -0.120 Cl
ENDBRANCH  22  24
ENDBRANCH  21  22
ENDBRANCH  19  21
BRANCH  18  26
HETATM   26  O4  UNL     1      39.335  14.219  22.325  1.00  0.00    -0.355 OA
HETATM   27  C20 UNL     1      40.100  13.091  22.732  1.00  0.00     0.209 C
ENDBRANCH  18  26
BRANCH  11  28
HETATM   28  O1  UNL     1      35.457  13.987  26.781  1.00  0.00    -0.316 OA
BRANCH  28  29
HETATM   29  C12 UNL     1      35.938  14.328  27.976  1.00  0.00     0.255 C
HETATM   30  C13 UNL     1      35.919  15.697  28.547  1.00  0.00     0.126 C
HETATM   31  O2  UNL     1      36.441  13.435  28.653  1.00  0.00    -0.266 OA
ENDBRANCH  28  29
ENDBRANCH  11  28
TORSDOF 6
ENDMDL