MODEL 5
REMARK VINA RESULT: -6.889997299      2.605      5.373
REMARK  6 active torsions:
REMARK  status: ('A' for Active; 'I' for Inactive)
REMARK    1  A    between atoms: C6_6  and  C7_8
REMARK    2  A    between atoms: C18_22  and  C20_24
REMARK    3  A    between atoms: C20_24  and  C21_25
REMARK    4  A    between atoms: C21_25  and  C22_26
REMARK    5  A    between atoms: C22_26  and  O5_28
REMARK    6  A    between atoms: C24_30  and  C25_31
ROOT
HETATM    1  C1  UNL     1      41.325  15.983  22.323  1.00  0.00     0.020 C
HETATM    2  C2  UNL     1      40.097  15.596  21.918  1.00  0.00    -0.052 C
HETATM    3  C3  UNL     1      39.043  16.290  22.598  1.00  0.00     0.007 C
HETATM    4  C4  UNL     1      37.615  16.247  22.483  1.00  0.00     0.007 C
HETATM    5  C5  UNL     1      36.763  15.053  22.623  1.00  0.00    -0.037 C
HETATM    6  C6  UNL     1      36.328  14.719  23.979  1.00  0.00     0.149 C
HETATM    7 CL1  UNL     1      36.093  16.211  25.016  1.00  0.00    -0.102 Cl
HETATM    8  C8  UNL     1      37.515  14.079  24.768  1.00  0.00     0.049 C
HETATM    9  C9  UNL     1      38.059  12.852  24.124  1.00  0.00     0.086 C
HETATM   10  C10 UNL     1      39.470  12.928  23.660  1.00  0.00     0.155 C
HETATM   11  O3  UNL     1      40.181  13.433  24.527  1.00  0.00    -0.293 OA
HETATM   12  C11 UNL     1      40.090  12.523  22.427  1.00  0.00    -0.009 C
HETATM   13  C12 UNL     1      41.588  12.174  22.632  1.00  0.00     0.052 C
HETATM   14  C13 UNL     1      39.863  13.171  21.108  1.00  0.00    -0.034 C
HETATM   15  C14 UNL     1      38.516  12.732  20.557  1.00  0.00     0.005 C
HETATM   16  C15 UNL     1      37.583  13.582  19.911  1.00  0.00    -0.021 C
HETATM   17  C16 UNL     1      36.820  14.759  20.237  1.00  0.00     0.016 C
HETATM   18  C17 UNL     1      36.179  15.190  18.929  1.00  0.00     0.015 C
HETATM   19  C18 UNL     1      35.845  14.774  21.415  1.00  0.00    -0.011 C
HETATM   20  C19 UNL     1      35.168  13.486  21.365  1.00  0.00     0.021 C
HETATM   21  C24 UNL     1      40.180  14.585  20.871  1.00  0.00     0.112 C
ENDROOT
BRANCH  19  22
HETATM   22  C20 UNL     1      34.884  15.912  21.406  1.00  0.00     0.024 C
BRANCH  22  23
HETATM   23  C21 UNL     1      33.723  15.899  20.489  1.00  0.00     0.112 C
BRANCH  23  24
HETATM   24  C22 UNL     1      33.455  17.334  20.070  1.00  0.00     0.258 C
HETATM   25  O4  UNL     1      32.774  18.128  20.735  1.00  0.00    -0.265 OA
BRANCH  24  26
HETATM   26  O5  UNL     1      34.020  17.726  18.881  1.00  0.00    -0.326 OA
HETATM   27  C23 UNL     1      33.375  18.554  17.937  1.00  0.00     0.213 C
ENDBRANCH  24  26
ENDBRANCH  23  24
ENDBRANCH  22  23
ENDBRANCH  19  22
BRANCH   6  28
HETATM   28  C7  UNL     1      35.128  13.983  24.299  1.00  0.00     0.202 C
HETATM   29  O1  UNL     1      34.040  14.650  24.487  1.00  0.00    -0.646 OA
HETATM   30  O2  UNL     1      34.916  12.631  24.448  1.00  0.00    -0.646 OA
ENDBRANCH   6  28
BRANCH  21  31
HETATM   31  C25 UNL     1      41.500  14.736  20.079  1.00  0.00     0.245 C
HETATM   32  O6  UNL     1      41.512  14.747  18.882  1.00  0.00    -0.306 OA
ENDBRANCH  21  31
TORSDOF 6
ENDMDL