MODEL 1
REMARK VINA RESULT: -9.708894530      0.000      0.000
REMARK  5 active torsions:
REMARK  status: ('A' for Active; 'I' for Inactive)
REMARK    1  A    between atoms: O1_2  and  C2_3
REMARK    2  A    between atoms: C2_3  and  C3_5
REMARK    3  A    between atoms: C4_6  and  C5_7
REMARK    4  A    between atoms: C11_13  and  C13_15
REMARK    5  A    between atoms: C21_24  and  N1_25
ROOT
HETATM    1  C5  UNL     1      38.824  14.716  22.257  1.00  0.00     0.025 C
HETATM    2  C6  UNL     1      37.582  14.802  23.124  1.00  0.00     0.026 C
HETATM    3  C7  UNL     1      36.301  14.543  22.419  1.00  0.00     0.007 C
HETATM    4  C8  UNL     1      35.445  15.809  22.573  1.00  0.00     0.023 C
HETATM    5  C9  UNL     1      36.439  14.157  21.007  1.00  0.00    -0.072 C
HETATM    6  C10 UNL     1      37.504  14.441  20.263  1.00  0.00    -0.009 C
HETATM    7  C11 UNL     1      38.642  15.196  20.872  1.00  0.00    -0.001 C
HETATM    8  C12 UNL     1      38.386  16.643  20.684  1.00  0.00     0.025 C
HETATM    9  C15 UNL     1      35.349  13.396  20.317  1.00  0.00     0.035 C
HETATM   10  C16 UNL     1      34.044  13.482  21.028  1.00  0.00     0.016 C
HETATM   11  C17 UNL     1      34.112  13.392  22.517  1.00  0.00     0.049 C
HETATM   12  C18 UNL     1      33.425  12.133  22.929  1.00  0.00    -0.043 A
HETATM   13  C19 UNL     1      32.062  12.074  22.676  1.00  0.00     0.011 A
HETATM   14  C20 UNL     1      31.371  10.939  23.034  1.00  0.00     0.037 A
HETATM   15  C21 UNL     1      32.034   9.889  23.630  1.00  0.00     0.103 A
HETATM   16  C22 UNL     1      33.409   9.988  23.868  1.00  0.00     0.046 A
HETATM   17  C23 UNL     1      34.102  11.102  23.521  1.00  0.00    -0.025 A
HETATM   18  C24 UNL     1      35.563  11.277  23.742  1.00  0.00     0.207 C
HETATM   19  O5  UNL     1      36.086  12.184  22.833  1.00  0.00    -0.380 OA
HETATM   20  C25 UNL     1      35.487  13.428  23.091  1.00  0.00     0.142 C
ENDROOT
BRANCH   1  21
HETATM   21  C4  UNL     1      39.944  15.263  23.021  1.00  0.00    -0.015 C
HETATM   22  C3  UNL     1      39.913  15.852  24.195  1.00  0.00     0.078 C
BRANCH  22  23
HETATM   23  C2  UNL     1      41.147  16.349  24.830  1.00  0.00     0.282 C
HETATM   24  O2  UNL     1      41.747  15.585  25.613  1.00  0.00    -0.260 OA
BRANCH  23  25
HETATM   25  O1  UNL     1      41.665  17.608  24.601  1.00  0.00    -0.323 OA
HETATM   26  C1  UNL     1      42.973  17.831  24.119  1.00  0.00     0.213 C
ENDBRANCH  23  25
ENDBRANCH  22  23
ENDBRANCH   1  21
BRANCH   7  27
HETATM   27  C13 UNL     1      39.856  14.802  20.077  1.00  0.00    -0.001 C
HETATM   28  C14 UNL     1      39.962  15.080  18.787  1.00  0.00     0.081 C
HETATM   29 CL1  UNL     1      41.390  14.606  17.896  1.00  0.00    -0.097 Cl
ENDBRANCH   7  27
BRANCH  15  30
HETATM   30  N1  UNL     1      31.324   8.715  24.000  1.00  0.00    -0.116 N
HETATM   31  O3  UNL     1      31.695   7.977  24.931  1.00  0.00    -0.532 OA
HETATM   32  O4  UNL     1      30.191   8.385  23.306  1.00  0.00    -0.532 OA
ENDBRANCH  15  30
TORSDOF 5
ENDMDL