MODEL 5
REMARK VINA RESULT: -7.976893461      3.806      6.657
REMARK  5 active torsions:
REMARK  status: ('A' for Active; 'I' for Inactive)
REMARK    1  A    between atoms: C2_2  and  O1_3
REMARK    2  A    between atoms: O1_3  and  C3_4
REMARK    3  A    between atoms: C3_4  and  C4_6
REMARK    4  A    between atoms: C5_7  and  C6_8
REMARK    5  A    between atoms: C15_20  and  C16_21
ROOT
HETATM    1  C4  UNL     1      33.683  13.182  25.932  1.00  0.00     0.060 A
HETATM    2  C5  UNL     1      34.166  14.236  26.653  1.00  0.00     0.004 A
HETATM    3  S1  UNL     1      35.116  15.104  25.518  1.00  0.00    -0.096 SA
HETATM    4  C12 UNL     1      34.875  14.109  24.161  1.00  0.00     0.002 A
HETATM    5  C13 UNL     1      34.054  13.113  24.619  1.00  0.00    -0.026 A
HETATM    6  C14 UNL     1      33.571  11.985  23.730  1.00  0.00     0.053 C
HETATM    7  C15 UNL     1      32.895  12.489  22.502  1.00  0.00     0.059 C
HETATM    8  C18 UNL     1      33.768  13.218  21.577  1.00  0.00     0.132 C
HETATM    9  O3  UNL     1      34.017  12.716  20.496  1.00  0.00    -0.298 OA
HETATM   10  C19 UNL     1      34.413  14.529  21.785  1.00  0.00     0.095 C
HETATM   11  C20 UNL     1      35.482  14.367  22.819  1.00  0.00     0.022 C
HETATM   12  C21 UNL     1      36.533  13.372  22.450  1.00  0.00     0.019 C
HETATM   13  C22 UNL     1      37.320  13.858  21.269  1.00  0.00     0.027 C
HETATM   14  C23 UNL     1      37.649  15.315  21.295  1.00  0.00     0.167 C
HETATM   15  O4  UNL     1      36.516  16.097  21.618  1.00  0.00    -0.390 OA
HETATM   16  C24 UNL     1      36.179  15.727  22.911  1.00  0.00     0.182 C
ENDROOT
BRANCH   2  17
HETATM   17  C6  UNL     1      33.952  14.605  28.109  1.00  0.00     0.033 C
HETATM   18  C7  UNL     1      34.509  15.989  28.360  1.00  0.00     0.040 C
HETATM   19  C8  UNL     1      35.995  15.925  28.659  1.00  0.00     0.276 C
HETATM   20  N1  UNL     1      36.221  15.282  29.941  1.00  0.00     0.117 N
HETATM   21  C9  UNL     1      37.580  14.867  30.081  1.00  0.00     0.313 C
HETATM   22  C10 UNL     1      35.277  14.246  30.208  1.00  0.00     0.405 C
HETATM   23  F1  UNL     1      34.257  14.640  31.035  1.00  0.00    -0.216 F
HETATM   24  C11 UNL     1      34.765  13.633  28.921  1.00  0.00     0.079 C
ENDBRANCH   2  17
BRANCH   1  25
HETATM   25  C3  UNL     1      32.786  12.162  26.577  1.00  0.00     0.294 C
HETATM   26  O2  UNL     1      31.547  12.316  26.637  1.00  0.00    -0.259 OA
BRANCH  25  27
HETATM   27  O1  UNL     1      33.300  11.004  27.133  1.00  0.00    -0.318 OA
BRANCH  27  28
HETATM   28  C2  UNL     1      32.630   9.776  27.091  1.00  0.00     0.174 C
HETATM   29  C1  UNL     1      33.008   9.042  25.842  1.00  0.00     0.034 C
ENDBRANCH  27  28
ENDBRANCH  25  27
ENDBRANCH   1  25
BRANCH   7  30
HETATM   30  C16 UNL     1      32.336  11.285  21.770  1.00  0.00     0.008 C
HETATM   31  C17 UNL     1      31.386  10.489  22.614  1.00  0.00     0.006 C
ENDBRANCH   7  30
TORSDOF 5
ENDMDL