MODEL 1
REMARK VINA RESULT: -8.977850411      0.000      0.000
REMARK  6 active torsions:
REMARK  status: ('A' for Active; 'I' for Inactive)
REMARK    1  A    between atoms: C2_2  and  C3_4
REMARK    2  A    between atoms: C3_4  and  C4_5
REMARK    3  A    between atoms: C3_4  and  C18_23
REMARK    4  A    between atoms: C4_5  and  C5_6
REMARK    5  A    between atoms: C18_23  and  O6_25
REMARK    6  A    between atoms: O6_25  and  C19_26
ROOT
HETATM    1  C5  UNL     1      38.424  15.052  22.040  1.00  0.00     0.011 C
HETATM    2  C6  UNL     1      37.298  14.531  21.128  1.00  0.00     0.017 C
HETATM    3  C7  UNL     1      37.760  13.647  20.013  1.00  0.00     0.018 C
HETATM    4  C8  UNL     1      38.911  12.753  20.371  1.00  0.00     0.115 C
HETATM    5  C9  UNL     1      40.144  13.548  20.145  1.00  0.00     0.266 C
HETATM    6  O1  UNL     1      40.929  13.110  19.290  1.00  0.00    -0.265 OA
HETATM    7  O2  UNL     1      40.459  14.700  20.802  1.00  0.00    -0.315 OA
HETATM    8  C10 UNL     1      39.508  15.693  21.258  1.00  0.00     0.140 C
HETATM    9  C11 UNL     1      39.114  16.498  20.075  1.00  0.00     0.041 C
HETATM   10  C12 UNL     1      38.818  12.533  21.862  1.00  0.00     0.144 C
HETATM   11  O3  UNL     1      39.804  11.654  22.313  1.00  0.00    -0.354 OA
HETATM   12  C13 UNL     1      40.823  12.393  22.855  1.00  0.00     0.267 C
HETATM   13  O4  UNL     1      41.154  12.097  24.174  1.00  0.00    -0.355 OA
HETATM   14  C14 UNL     1      40.296  13.068  24.627  1.00  0.00     0.130 C
HETATM   15  C15 UNL     1      40.853  13.941  25.712  1.00  0.00     0.040 C
HETATM   16  C16 UNL     1      40.254  13.743  23.247  1.00  0.00     0.077 C
HETATM   17  C17 UNL     1      38.892  13.738  22.706  1.00  0.00     0.041 C
ENDROOT
BRANCH   1  18
HETATM   18  C4  UNL     1      37.828  15.822  23.173  1.00  0.00     0.005 C
BRANCH  18  19
HETATM   19  C3  UNL     1      36.599  15.451  23.838  1.00  0.00     0.053 C
BRANCH  19  20
HETATM   20  C2  UNL     1      35.448  16.078  23.737  1.00  0.00     0.024 C
HETATM   21  C1  UNL     1      34.728  16.541  24.932  1.00  0.00     0.063 C
HETATM   22 CL1  UNL     1      34.704  16.383  22.199  1.00  0.00    -0.088 Cl
ENDBRANCH  19  20
BRANCH  19  23
HETATM   23  C18 UNL     1      36.539  14.217  24.631  1.00  0.00     0.294 C
HETATM   24  O5  UNL     1      37.054  14.069  25.773  1.00  0.00    -0.259 OA
BRANCH  23  25
HETATM   25  O6  UNL     1      35.909  13.045  24.239  1.00  0.00    -0.312 OA
BRANCH  25  26
HETATM   26  C19 UNL     1      34.609  12.877  23.851  1.00  0.00     0.132 C
HETATM   27  C20 UNL     1      33.772  11.920  24.616  1.00  0.00     0.032 C
HETATM   28  C21 UNL     1      32.357  11.983  24.070  1.00  0.00     0.002 C
HETATM   29  C22 UNL     1      32.302  11.785  22.582  1.00  0.00     0.000 C
HETATM   30  C23 UNL     1      33.244  12.709  21.841  1.00  0.00     0.002 C
HETATM   31  C24 UNL     1      34.623  12.445  22.395  1.00  0.00     0.032 C
ENDBRANCH  25  26
ENDBRANCH  23  25
ENDBRANCH  19  23
ENDBRANCH  18  19
ENDBRANCH   1  18
TORSDOF 6
ENDMDL