MODEL 5
REMARK VINA RESULT: -8.719712191      1.189      1.557
REMARK  7 active torsions:
REMARK  status: ('A' for Active; 'I' for Inactive)
REMARK    1  A    between atoms: C9_9  and  O1_10
REMARK    2  A    between atoms: O1_10  and  C10_11
REMARK    3  A    between atoms: C10_11  and  C11_13
REMARK    4  A    between atoms: C13_16  and  O4_17
REMARK    5  A    between atoms: O4_17  and  C14_18
REMARK    6  A    between atoms: C14_18  and  O6_20
REMARK    7  A    between atoms: O6_20  and  C15_21
ROOT
HETATM    1  C1  UNL     1      40.851  15.746  21.479  1.00  0.00     0.022 C
HETATM    2  C2  UNL     1      39.560  15.892  21.332  1.00  0.00    -0.020 C
HETATM    3  C3  UNL     1      38.659  16.153  22.476  1.00  0.00     0.056 C
HETATM    4  C4  UNL     1      37.396  15.362  22.481  1.00  0.00    -0.007 C
HETATM    5  C5  UNL     1      36.311  16.227  23.102  1.00  0.00     0.021 C
HETATM    6  C6  UNL     1      36.970  15.101  21.080  1.00  0.00    -0.059 C
HETATM    7  C7  UNL     1      36.157  14.100  20.759  1.00  0.00    -0.050 C
HETATM    8  C8  UNL     1      35.804  13.940  19.324  1.00  0.00     0.046 C
HETATM    9  C9  UNL     1      35.634  13.197  21.793  1.00  0.00     0.172 C
HETATM   10  C18 UNL     1      36.345  13.159  23.087  1.00  0.00     0.091 C
HETATM   11  C19 UNL     1      36.914  11.831  23.397  1.00  0.00     0.098 C
HETATM   12  F1  UNL     1      36.124  10.741  23.688  1.00  0.00    -0.211 F
HETATM   13  C20 UNL     1      38.220  11.852  23.354  1.00  0.00     0.012 C
HETATM   14  C21 UNL     1      38.649  13.225  23.004  1.00  0.00     0.041 C
HETATM   15  C22 UNL     1      37.477  14.101  23.289  1.00  0.00    -0.017 C
HETATM   16  C23 UNL     1      37.566  14.510  24.744  1.00  0.00     0.017 C
HETATM   17  C24 UNL     1      37.476  16.001  19.999  1.00  0.00     0.118 C
HETATM   18  C25 UNL     1      38.973  15.799  20.007  1.00  0.00     0.158 C
HETATM   19  O7  UNL     1      39.620  15.575  18.965  1.00  0.00    -0.292 OA
ENDROOT
BRANCH   9  20
HETATM   20  O1  UNL     1      34.235  13.323  22.000  1.00  0.00    -0.307 OA
BRANCH  20  21
HETATM   21  C10 UNL     1      33.312  12.330  21.819  1.00  0.00     0.292 C
HETATM   22  O2  UNL     1      33.320  11.825  20.666  1.00  0.00    -0.260 OA
BRANCH  21  23
HETATM   23  C11 UNL     1      32.390  11.881  22.859  1.00  0.00     0.044 C
HETATM   24  C12 UNL     1      32.528  12.078  24.155  1.00  0.00     0.151 C
HETATM   25  O3  UNL     1      31.455  11.506  24.805  1.00  0.00    -0.331 OA
HETATM   26  C13 UNL     1      30.967  10.458  23.999  1.00  0.00     0.281 C
HETATM   27  C17 UNL     1      31.123  11.102  22.618  1.00  0.00     0.108 C
BRANCH  26  28
HETATM   28  O4  UNL     1      31.856   9.370  24.119  1.00  0.00    -0.266 OA
BRANCH  28  29
HETATM   29  C14 UNL     1      31.370   8.065  24.114  1.00  0.00     0.408 C
HETATM   30  O5  UNL     1      30.731   7.698  23.105  1.00  0.00    -0.229 OA
BRANCH  29  31
HETATM   31  O6  UNL     1      31.559   7.187  25.147  1.00  0.00    -0.298 OA
BRANCH  31  32
HETATM   32  C15 UNL     1      30.527   6.416  25.754  1.00  0.00     0.176 C
HETATM   33  C16 UNL     1      30.567   4.971  25.368  1.00  0.00     0.034 C
ENDBRANCH  31  32
ENDBRANCH  29  31
ENDBRANCH  28  29
ENDBRANCH  26  28
ENDBRANCH  21  23
ENDBRANCH  20  21
ENDBRANCH   9  20
TORSDOF 7
ENDMDL