MODEL 3
REMARK VINA RESULT: -8.875684519      0.873      2.222
REMARK  5 active torsions:
REMARK  status: ('A' for Active; 'I' for Inactive)
REMARK    1  A    between atoms: O1_2  and  C2_3
REMARK    2  A    between atoms: C7_8  and  O2_9
REMARK    3  A    between atoms: C10_13  and  C11_14
REMARK    4  A    between atoms: C11_14  and  C12_15
REMARK    5  A    between atoms: C15_21  and  C16_22
ROOT
HETATM    1  C12 UNL     1      40.021  14.615  19.202  1.00  0.00    -0.024 A
HETATM    2  C13 UNL     1      38.898  15.364  18.950  1.00  0.00     0.031 A
HETATM    3  C14 UNL     1      37.964  15.588  19.922  1.00  0.00     0.117 A
HETATM    4  N1  UNL     1      38.108  15.079  21.170  1.00  0.00    -0.266 N
HETATM    5  N2  UNL     1      37.386  15.139  22.255  1.00  0.00    -0.296 N
ATOM      6  H2  UNL     1      36.502  15.640  22.324  1.00  0.00     0.187 HD
HETATM    7  C15 UNL     1      37.942  14.467  23.264  1.00  0.00     0.049 A
HETATM    8  C19 UNL     1      39.111  13.940  22.773  1.00  0.00     0.064 A
HETATM    9 BR1  UNL     1      40.330  12.881  23.772  1.00  0.00    -0.046 Br
HETATM   10  C20 UNL     1      39.199  14.335  21.456  1.00  0.00     0.082 A
HETATM   11  C21 UNL     1      40.159  14.093  20.496  1.00  0.00    -0.021 A
HETATM   12  C22 UNL     1      41.333  13.269  20.901  1.00  0.00     0.051 C
ENDROOT
BRANCH   1  13
HETATM   13  C11 UNL     1      41.080  14.332  18.284  1.00  0.00     0.053 C
BRANCH  13  14
HETATM   14  C10 UNL     1      41.929  15.182  17.782  1.00  0.00     0.127 A
HETATM   15  C9  UNL     1      42.250  16.528  18.203  1.00  0.00     0.218 A
HETATM   16  C5  UNL     1      43.279  17.016  17.265  1.00  0.00     0.054 A
HETATM   17  O3  UNL     1      41.800  17.211  19.153  1.00  0.00    -0.284 OA
HETATM   18  C4  UNL     1      43.534  16.011  16.361  1.00  0.00     0.093 A
HETATM   19  C6  UNL     1      43.920  18.234  17.225  1.00  0.00     0.058 A
HETATM   20  C3  UNL     1      44.489  16.269  15.376  1.00  0.00     0.077 A
HETATM   21  O4  UNL     1      42.745  14.914  16.648  1.00  0.00    -0.306 OA
HETATM   22  C2  UNL     1      45.137  17.480  15.323  1.00  0.00     0.104 A
HETATM   23  C7  UNL     1      44.860  18.470  16.244  1.00  0.00     0.102 A
BRANCH  22  24
HETATM   24  O1  UNL     1      46.094  17.769  14.354  1.00  0.00    -0.353 OA
HETATM   25  C1  UNL     1      46.068  17.003  13.163  1.00  0.00     0.210 C
ENDBRANCH  22  24
BRANCH  23  26
HETATM   26  O2  UNL     1      45.525  19.677  16.171  1.00  0.00    -0.353 OA
HETATM   27  C8  UNL     1      44.868  20.926  16.126  1.00  0.00     0.210 C
ENDBRANCH  23  26
ENDBRANCH  13  14
ENDBRANCH   1  13
BRANCH   7  28
HETATM   28  C16 UNL     1      37.355  14.352  24.619  1.00  0.00     0.030 C
HETATM   29  C17 UNL     1      37.611  15.624  25.396  1.00  0.00     0.016 C
HETATM   30  C18 UNL     1      35.844  14.226  24.497  1.00  0.00     0.016 C
ENDBRANCH   7  28
TORSDOF 5
ENDMDL