MODEL 2
REMARK VINA RESULT: -8.436105719      9.505     12.400
REMARK  4 active torsions:
REMARK  status: ('A' for Active; 'I' for Inactive)
REMARK    1  A    between atoms: C2_2  and  O1_3
REMARK    2  A    between atoms: O1_3  and  C3_4
REMARK    3  A    between atoms: C3_4  and  C4_6
REMARK    4  A    between atoms: C11_14  and  O3_15
ROOT
HETATM    1  C4  UNL     1      32.223  10.962  23.418  1.00  0.00     0.088 A
HETATM    2  S1  UNL     1      32.541  11.726  21.929  1.00  0.00    -0.065 SA
HETATM    3  C5  UNL     1      33.663  12.885  22.454  1.00  0.00     0.082 A
HETATM    4  C6  UNL     1      33.774  12.655  23.807  1.00  0.00    -0.012 A
HETATM    5  C7  UNL     1      33.014  11.643  24.305  1.00  0.00    -0.029 A
HETATM    6  C8  UNL     1      32.969  11.211  25.764  1.00  0.00     0.050 C
HETATM    7  C9  UNL     1      34.662  13.420  24.746  1.00  0.00     0.037 C
HETATM    8  C10 UNL     1      33.962  14.524  25.468  1.00  0.00     0.042 C
HETATM    9  C11 UNL     1      35.125  15.302  26.041  1.00  0.00     0.126 C
HETATM   10  C13 UNL     1      36.392  14.696  25.411  1.00  0.00     0.029 C
HETATM   11  C14 UNL     1      37.442  15.704  25.133  1.00  0.00     0.040 C
HETATM   12  C15 UNL     1      37.778  15.802  23.662  1.00  0.00     0.123 C
HETATM   13  C16 UNL     1      38.626  14.617  23.178  1.00  0.00     0.038 C
HETATM   14  C17 UNL     1      38.193  13.467  24.001  1.00  0.00     0.013 A
HETATM   15  C18 UNL     1      37.695  12.167  23.751  1.00  0.00     0.092 A
HETATM   16 CL1  UNL     1      38.546  11.206  22.493  1.00  0.00    -0.124 Cl
HETATM   17  C19 UNL     1      36.788  13.210  23.408  1.00  0.00     0.022 A
HETATM   18  C20 UNL     1      35.850  14.049  24.113  1.00  0.00     0.011 C
HETATM   19  C21 UNL     1      35.531  15.266  23.250  1.00  0.00     0.177 C
HETATM   20  O4  UNL     1      36.648  16.026  22.978  1.00  0.00    -0.374 OA
HETATM   21  C22 UNL     1      35.064  14.833  21.875  1.00  0.00     0.013 C
HETATM   22  C23 UNL     1      35.506  15.588  20.699  1.00  0.00     0.066 C
HETATM   23  N1  UNL     1      34.291  13.841  21.597  1.00  0.00    -0.355 N
ATOM     24  H1  UNL     1      34.095  13.718  20.603  1.00  0.00     0.166 HD
ENDROOT
BRANCH   1  25
HETATM   25  C3  UNL     1      31.306   9.825  23.691  1.00  0.00     0.300 C
HETATM   26  O2  UNL     1      30.092  10.148  23.867  1.00  0.00    -0.259 OA
BRANCH  25  27
HETATM   27  O1  UNL     1      31.706   8.524  23.755  1.00  0.00    -0.317 OA
BRANCH  27  28
HETATM   28  C2  UNL     1      30.697   7.514  23.640  1.00  0.00     0.174 C
HETATM   29  C1  UNL     1      30.895   6.568  24.789  1.00  0.00     0.034 C
ENDBRANCH  27  28
ENDBRANCH  25  27
ENDBRANCH   1  25
BRANCH   9  30
HETATM   30  O3  UNL     1      35.053  16.654  25.882  1.00  0.00    -0.390 OA
HETATM   31  C12 UNL     1      33.883  17.128  26.452  1.00  0.00     0.202 C
ENDBRANCH   9  30
TORSDOF 4
ENDMDL