MODEL 1
REMARK VINA RESULT: -5.650877684      0.000      0.000
REMARK  0 active torsions:
REMARK  status: ('A' for Active; 'I' for Inactive)
ROOT
HETATM    1  C1  UNL     1      14.186   4.216  16.654  1.00  0.00     0.000 C
HETATM    2  C2  UNL     1      14.564   3.031  17.463  1.00  0.00     0.000 C
HETATM    3  C3  UNL     1      14.404   1.703  16.811  1.00  0.00     0.002 C
HETATM    4  C4  UNL     1      15.590   0.787  17.134  1.00  0.00     0.021 C
HETATM    5  C5  UNL     1      16.247   0.351  15.831  1.00  0.00     0.139 C
HETATM    6  N1  UNL     1      16.253   1.476  14.897  1.00  0.00    -0.341 N
ATOM      7  H1  UNL     1      15.785   1.440  13.992  1.00  0.00     0.179 HD
HETATM    8  N2  UNL     1      16.861   2.465  15.283  1.00  0.00    -0.341 N
ATOM      9  H2  UNL     1      17.297   2.400  16.203  1.00  0.00     0.179 HD
HETATM   10  C6  UNL     1      17.028   3.686  14.592  1.00  0.00     0.139 C
HETATM   11  C7  UNL     1      16.197   4.807  15.242  1.00  0.00     0.021 C
HETATM   12  C8  UNL     1      14.767   4.332  15.297  1.00  0.00     0.002 C
ENDROOT
TORSDOF 0
ENDMDL