MODEL 5
REMARK VINA RESULT: -3.374150228      5.285      6.519
REMARK  0 active torsions:
REMARK  status: ('A' for Active; 'I' for Inactive)
ROOT
HETATM    1  C1  UNL     1      18.322   0.122  10.658  1.00  0.00     0.038 C
HETATM    2  C2  UNL     1      17.419  -0.130  11.825  1.00  0.00     0.234 C
HETATM    3  N1  UNL     1      16.187   0.609  11.658  1.00  0.00    -0.066 N
ATOM      4  H11 UNL     1      15.398   0.102  12.058  1.00  0.00     0.278 HD
ATOM      5  H12 UNL     1      15.896   0.621  10.681  1.00  0.00     0.278 HD
HETATM    6  C3  UNL     1      16.272   1.955  12.197  1.00  0.00     0.317 C
HETATM    7  S1  UNL     1      17.298   3.000  11.099  1.00  0.00    -0.070 SA
HETATM    8  S2  UNL     1      19.329   2.529  11.565  1.00  0.00    -0.096 SA
HETATM    9  C4  UNL     1      19.610   0.807  11.045  1.00  0.00     0.088 C
ENDROOT
TORSDOF 0
ENDMDL