MODEL 4
REMARK VINA RESULT: -5.443929380      2.001      2.844
REMARK  0 active torsions:
REMARK  status: ('A' for Active; 'I' for Inactive)
ROOT
HETATM    1  N1  UNL     1      16.864  -0.408  15.820  1.00  0.00    -0.195 NA
HETATM    2  C1  UNL     1      16.423   0.660  15.884  1.00  0.00     0.092 C
HETATM    3  C2  UNL     1      15.847   2.025  15.945  1.00  0.00     0.291 C
HETATM    4  C3  UNL     1      15.624   2.594  14.571  1.00  0.00     0.048 C
HETATM    5  C4  UNL     1      16.512   3.764  14.259  1.00  0.00     0.003 C
HETATM    6  C5  UNL     1      16.264   4.965  15.094  1.00  0.00     0.000 C
HETATM    7  C6  UNL     1      14.893   5.080  15.660  1.00  0.00     0.002 C
HETATM    8  C7  UNL     1      14.709   4.335  16.961  1.00  0.00     0.027 C
HETATM    9  C8  UNL     1      13.859   3.105  16.778  1.00  0.00     0.234 C
HETATM   10  N2  UNL     1      14.600   1.892  16.677  1.00  0.00    -0.059 N
ATOM     11  H21 UNL     1      14.767   1.496  17.601  1.00  0.00     0.278 HD
ATOM     12  H22 UNL     1      14.025   1.153  16.275  1.00  0.00     0.278 HD
ENDROOT
TORSDOF 0
ENDMDL