MODEL 2
REMARK VINA RESULT: -3.786918233      2.340      3.253
REMARK  0 active torsions:
REMARK  status: ('A' for Active; 'I' for Inactive)
ROOT
HETATM    1  C1  UNL     1      14.441   3.614  14.313  1.00  0.00     0.051 C
HETATM    2  C2  UNL     1      15.077   3.859  15.685  1.00  0.00     0.077 C
HETATM    3  C3  UNL     1      15.409   5.320  15.817  1.00  0.00     0.051 C
HETATM    4  N1  UNL     1      14.158   3.447  16.697  1.00  0.00    -0.404 N
ATOM      5  H1  UNL     1      13.178   3.733  16.695  1.00  0.00     0.154 HD
HETATM    6  C4  UNL     1      14.708   2.605  17.709  1.00  0.00     0.126 C
HETATM    7  C5  UNL     1      14.593   1.119  17.341  1.00  0.00     0.105 C
HETATM    8  S1  UNL     1      15.964   0.850  16.145  1.00  0.00    -0.093 SA
HETATM    9  S2  UNL     1      16.610   2.859  15.698  1.00  0.00    -0.067 SA
ENDROOT
TORSDOF 0
ENDMDL