MODEL 1
REMARK VINA RESULT: -3.247782869      0.000      0.000
REMARK  0 active torsions:
REMARK  status: ('A' for Active; 'I' for Inactive)
ROOT
HETATM    1  S1  UNL     1      13.969   1.115  17.337  1.00  0.00    -0.080 SA
HETATM    2  C1  UNL     1      15.153   2.471  16.969  1.00  0.00     0.132 C
HETATM    3  C2  UNL     1      14.372   3.670  16.667  1.00  0.00     0.038 C
HETATM    4  C3  UNL     1      15.081   4.689  15.863  1.00  0.00     0.088 C
HETATM    5  S2  UNL     1      15.989   3.866  14.529  1.00  0.00    -0.096 SA
HETATM    6  S3  UNL     1      16.038   1.930  15.482  1.00  0.00    -0.081 SA
ENDROOT
TORSDOF 0
ENDMDL