MODEL 3
REMARK VINA RESULT: -3.963613767      4.671      6.128
REMARK  1 active torsions:
REMARK  status: ('A' for Active; 'I' for Inactive)
REMARK    1  A    between atoms: O1_1  and  C1_3
ROOT
HETATM    1  C1  UNL     1      16.574   1.757  11.166  1.00  0.00     0.128 C
HETATM    2  C2  UNL     1      17.108   0.396  10.880  1.00  0.00     0.033 C
HETATM    3  C3  UNL     1      18.480   0.144  11.443  1.00  0.00     0.013 C
HETATM    4  C4  UNL     1      19.480   0.924  10.627  1.00  0.00     0.086 C
HETATM    5  S1  UNL     1      19.890   2.511  11.343  1.00  0.00    -0.098 SA
HETATM    6  S2  UNL     1      18.362   3.297  12.540  1.00  0.00    -0.095 SA
HETATM    7  C5  UNL     1      16.859   2.270  12.533  1.00  0.00     0.117 C
ENDROOT
BRANCH   1   8
HETATM    8  O1  UNL     1      15.167   1.686  11.042  1.00  0.00    -0.395 OA
ATOM      9  H1  UNL     1      14.803   1.828  11.908  1.00  0.00     0.210 HD
ENDBRANCH   1   8
TORSDOF 1
ENDMDL