MODEL 3
REMARK VINA RESULT: -4.196159094      1.211      2.076
REMARK  0 active torsions:
REMARK  status: ('A' for Active; 'I' for Inactive)
ROOT
HETATM    1  C1  UNL     1      14.932   0.473  17.480  1.00  0.00     0.168 C
HETATM    2  C2  UNL     1      16.001   0.894  16.459  1.00  0.00     0.034 C
HETATM    3  C3  UNL     1      15.843   2.350  16.499  1.00  0.00     0.027 C
HETATM    4  C4  UNL     1      16.115   3.116  15.250  1.00  0.00     0.081 C
HETATM    5  S1  UNL     1      15.162   4.645  15.668  1.00  0.00    -0.166 SA
HETATM    6  C5  UNL     1      14.177   3.918  17.050  1.00  0.00     0.106 C
HETATM    7  C6  UNL     1      14.319   2.471  16.685  1.00  0.00     0.135 C
HETATM    8  O1  UNL     1      14.119   1.574  17.691  1.00  0.00    -0.385 OA
ENDROOT
TORSDOF 0
ENDMDL