MODEL 2
REMARK VINA RESULT: -6.163414899      2.252      3.054
REMARK  1 active torsions:
REMARK  status: ('A' for Active; 'I' for Inactive)
REMARK    1  A    between atoms: C8_9  and  O1_10
ROOT
HETATM    1  N1  UNL     1      15.179  -0.465  17.572  1.00  0.00    -0.197 NA
HETATM    2  C1  UNL     1      15.181   0.589  17.083  1.00  0.00     0.066 C
HETATM    3  C2  UNL     1      15.164   1.915  16.482  1.00  0.00     0.121 C
HETATM    4  C3  UNL     1      16.472   2.157  15.786  1.00  0.00     0.022 C
HETATM    5  C4  UNL     1      16.579   3.480  15.122  1.00  0.00     0.001 C
HETATM    6  C5  UNL     1      15.276   4.164  14.859  1.00  0.00     0.000 C
HETATM    7  C6  UNL     1      14.711   4.881  16.042  1.00  0.00     0.002 C
HETATM    8  C7  UNL     1      14.019   3.991  17.027  1.00  0.00     0.033 C
HETATM    9  C8  UNL     1      15.005   2.979  17.544  1.00  0.00     0.135 C
ENDROOT
BRANCH   9  10
HETATM   10  O1  UNL     1      14.651   2.446  18.774  1.00  0.00    -0.394 OA
ATOM     11  H1  UNL     1      13.817   1.994  18.743  1.00  0.00     0.210 HD
ENDBRANCH   9  10
TORSDOF 1
ENDMDL