MODEL 4
REMARK VINA RESULT: -4.539954995      5.468      6.294
REMARK  1 active torsions:
REMARK  status: ('A' for Active; 'I' for Inactive)
REMARK    1  A    between atoms: O1_1  and  C1_3
ROOT
HETATM    1  C1  UNL     1      16.576   1.482  11.209  1.00  0.00     0.269 C
HETATM    2  C2  UNL     1      16.849   0.197  10.513  1.00  0.00     0.062 C
HETATM    3  C3  UNL     1      18.217  -0.330  10.616  1.00  0.00     0.015 C
HETATM    4  C4  UNL     1      19.256   0.548  11.197  1.00  0.00     0.081 C
HETATM    5  S1  UNL     1      18.963   2.445  11.045  1.00  0.00    -0.141 SA
HETATM    6  C5  UNL     1      20.131   3.887  11.172  1.00  0.00     0.091 A
HETATM    7  C6  UNL     1      19.411   3.724  12.502  1.00  0.00     0.091 A
HETATM    8  O2  UNL     1      17.171   2.516  10.447  1.00  0.00    -0.310 OA
ENDROOT
BRANCH   1   9
HETATM    9  O1  UNL     1      15.209   1.707  11.312  1.00  0.00    -0.370 OA
ATOM     10  H1  UNL     1      14.741   1.258  10.617  1.00  0.00     0.212 HD
ENDBRANCH   1   9
TORSDOF 1
ENDMDL