MODEL 4
REMARK VINA RESULT: -5.545299247      1.121      1.260
REMARK  1 active torsions:
REMARK  status: ('A' for Active; 'I' for Inactive)
REMARK    1  A    between atoms: N2_3  and  C2_5
ROOT
HETATM    1  N1  UNL     1      15.191  -0.123  17.308  1.00  0.00    -0.172 NA
HETATM    2  C1  UNL     1      15.899   0.606  16.765  1.00  0.00     0.183 C
HETATM    3  N2  UNL     1      16.760   1.477  16.103  1.00  0.00    -0.283 N
ATOM      4  H2  UNL     1      17.766   1.320  16.148  1.00  0.00     0.179 HD
ENDROOT
BRANCH   3   5
HETATM    5  C2  UNL     1      16.253   2.586  15.364  1.00  0.00     0.086 C
HETATM    6  N3  UNL     1      16.849   2.728  14.226  1.00  0.00    -0.379 N
HETATM    7  C3  UNL     1      16.557   3.759  13.257  1.00  0.00     0.121 C
ATOM      8  H3  UNL     1      17.584   2.059  13.994  1.00  0.00     0.160 HD
HETATM    9  C4  UNL     1      16.839   5.106  13.871  1.00  0.00     0.020 C
HETATM   10  C5  UNL     1      16.152   5.365  15.156  1.00  0.00     0.002 C
HETATM   11  C6  UNL     1      14.871   4.633  15.360  1.00  0.00     0.007 C
HETATM   12  C7  UNL     1      15.175   3.321  16.045  1.00  0.00     0.077 C
ENDBRANCH   3   5
TORSDOF 1
ENDMDL