MODEL 5
REMARK VINA RESULT: -2.976799253      1.178      2.937
REMARK  0 active torsions:
REMARK  status: ('A' for Active; 'I' for Inactive)
ROOT
HETATM    1  S1  UNL     1      14.128   0.921  17.442  1.00  0.00    -0.080 SA
HETATM    2  C1  UNL     1      15.207   2.294  16.870  1.00  0.00     0.132 C
HETATM    3  C2  UNL     1      14.338   3.387  16.435  1.00  0.00     0.038 C
HETATM    4  C3  UNL     1      14.959   4.337  15.486  1.00  0.00     0.088 C
HETATM    5  S2  UNL     1      15.898   3.409  14.247  1.00  0.00    -0.096 SA
HETATM    6  S3  UNL     1      16.100   1.623  15.442  1.00  0.00    -0.081 SA
ENDROOT
TORSDOF 0
ENDMDL