MODEL 4
REMARK VINA RESULT: -3.146525342      2.382      3.222
REMARK  0 active torsions:
REMARK  status: ('A' for Active; 'I' for Inactive)
ROOT
HETATM    1  C1  UNL     1      19.328   0.369  10.923  1.00  0.00     0.134 C
HETATM    2  C2  UNL     1      19.535   1.741  11.437  1.00  0.00     0.104 C
HETATM    3  S1  UNL     1      18.074   2.775  11.491  1.00  0.00    -0.084 SA
HETATM    4  S2  UNL     1      16.508   1.642  12.447  1.00  0.00    -0.007 SA
HETATM    5  S3  UNL     1      16.816  -0.296  11.545  1.00  0.00     0.020 SA
HETATM    6  N1  UNL     1      18.070   0.092  10.330  1.00  0.00    -0.167 NA
ENDROOT
TORSDOF 0
ENDMDL