MODEL 4
REMARK VINA RESULT: -4.486341406      4.777      5.991
REMARK  0 active torsions:
REMARK  status: ('A' for Active; 'I' for Inactive)
ROOT
HETATM    1  N1  UNL     1      15.935   2.530  13.986  1.00  0.00    -0.374 N
ATOM      2  H11 UNL     1      16.196   3.495  14.189  1.00  0.00     0.158 HD
ATOM      3  H12 UNL     1      15.247   1.860  14.329  1.00  0.00     0.158 HD
HETATM    4  C1  UNL     1      16.670   1.990  13.036  1.00  0.00     0.175 C
HETATM    5  O1  UNL     1      16.309   0.657  12.756  1.00  0.00    -0.331 OA
HETATM    6  C2  UNL     1      17.019  -0.400  12.018  1.00  0.00     0.178 C
HETATM    7  C3  UNL     1      18.154   0.256  11.463  1.00  0.00     0.027 C
HETATM    8  C4  UNL     1      19.364   0.273  10.793  1.00  0.00     0.003 C
HETATM    9  C5  UNL     1      19.780   1.779  10.805  1.00  0.00     0.011 C
HETATM   10  C6  UNL     1      19.508   2.493  12.075  1.00  0.00     0.083 C
HETATM   11  S1  UNL     1      17.899   3.187  12.425  1.00  0.00    -0.087 SA
ENDROOT
TORSDOF 0
ENDMDL