MODEL 1
REMARK VINA RESULT: -5.387773551      0.000      0.000
REMARK  0 active torsions:
REMARK  status: ('A' for Active; 'I' for Inactive)
ROOT
HETATM    1  C1  UNL     1      15.906   5.276  13.828  1.00  0.00     0.000 C
HETATM    2  C2  UNL     1      17.284   4.695  14.030  1.00  0.00     0.002 C
HETATM    3  C3  UNL     1      17.320   3.715  15.177  1.00  0.00     0.034 C
HETATM    4  C4  UNL     1      16.332   2.602  14.923  1.00  0.00     0.061 C
HETATM    5  C5  UNL     1      14.935   3.130  14.709  1.00  0.00     0.034 C
HETATM    6  C6  UNL     1      14.853   4.615  14.646  1.00  0.00     0.002 C
HETATM    7  C7  UNL     1      16.419   1.609  16.045  1.00  0.00     0.169 C
HETATM    8  N1  UNL     1      16.138   0.383  15.358  1.00  0.00    -0.123 NA
HETATM    9  N2  UNL     1      16.553   0.590  14.056  1.00  0.00    -0.250 N
ATOM     10  H2  UNL     1      16.740  -0.163  13.394  1.00  0.00     0.203 HD
HETATM   11  N3  UNL     1      16.672   1.806  13.781  1.00  0.00    -0.314 N
ATOM     12  H3  UNL     1      16.968   2.175  12.877  1.00  0.00     0.182 HD
ENDROOT
TORSDOF 0
ENDMDL