MODEL 1
REMARK VINA RESULT: -5.001990899      0.000      0.000
REMARK  0 active torsions:
REMARK  status: ('A' for Active; 'I' for Inactive)
ROOT
HETATM    1  N1  UNL     1      16.746  -0.068  15.960  1.00  0.00    -0.404 N
ATOM      2  H11 UNL     1      17.380  -0.321  15.203  1.00  0.00     0.155 HD
ATOM      3  H12 UNL     1      16.785  -0.816  16.653  1.00  0.00     0.155 HD
HETATM    4  C1  UNL     1      15.999   0.946  16.132  1.00  0.00     0.005 C
HETATM    5  C2  UNL     1      15.079   1.313  17.230  1.00  0.00     0.055 C
HETATM    6  C3  UNL     1      14.792   2.774  17.011  1.00  0.00     0.025 C
HETATM    7  C4  UNL     1      14.749   2.886  15.532  1.00  0.00     0.100 C
HETATM    8  S1  UNL     1      15.410   4.504  14.947  1.00  0.00    -0.032 SA
HETATM    9  N2  UNL     1      17.102   3.997  15.154  1.00  0.00    -0.277 N
ATOM     10  H2  UNL     1      17.913   4.612  15.218  1.00  0.00     0.195 HD
HETATM   11  N3  UNL     1      17.114   2.795  15.204  1.00  0.00    -0.319 N
ATOM     12  H3  UNL     1      18.002   2.308  15.322  1.00  0.00     0.181 HD
HETATM   13  C5  UNL     1      15.940   2.057  15.104  1.00  0.00     0.160 C
ENDROOT
TORSDOF 0
ENDMDL