MODEL 5
REMARK VINA RESULT: -4.908460180      0.029      1.371
REMARK  3 active torsions:
REMARK  status: ('A' for Active; 'I' for Inactive)
REMARK    1  A    between atoms: C2_2  and  N1_5
REMARK    2  A    between atoms: N2_7  and  C5_9
REMARK    3  A    between atoms: C5_9  and  N3_12
ROOT
HETATM    1  N1  UNL     1      16.382   1.692  13.802  1.00  0.00    -0.330 N
ATOM      2  H1  UNL     1      15.805   0.852  13.767  1.00  0.00     0.180 HD
HETATM    3  N2  UNL     1      17.234   1.927  12.895  1.00  0.00    -0.305 N
ATOM      4  H2  UNL     1      17.844   2.744  12.863  1.00  0.00     0.182 HD
ENDROOT
BRANCH   3   5
HETATM    5  C5  UNL     1      17.216   0.858  11.901  1.00  0.00     0.200 C
HETATM    6  C6  UNL     1      18.540   0.916  11.212  1.00  0.00     0.071 C
HETATM    7  C7  UNL     1      16.874  -0.462  12.492  1.00  0.00     0.071 C
BRANCH   5   8
HETATM    8  N3  UNL     1      16.120   1.231  10.995  1.00  0.00    -0.052 N
ATOM      9  H33 UNL     1      15.791   2.190  11.107  1.00  0.00     0.277 HD
ATOM     10  H32 UNL     1      16.397   1.323  10.018  1.00  0.00     0.277 HD
ATOM     11  H31 UNL     1      15.407   0.522  11.164  1.00  0.00     0.277 HD
ENDBRANCH   5   8
ENDBRANCH   3   5
BRANCH   1  12
HETATM   12  C2  UNL     1      16.244   2.623  14.871  1.00  0.00     0.034 C
HETATM   13  C1  UNL     1      14.977   3.399  14.686  1.00  0.00     0.039 C
HETATM   14  C3  UNL     1      16.162   1.795  16.161  1.00  0.00     0.039 C
HETATM   15  C4  UNL     1      17.476   3.502  14.883  1.00  0.00     0.039 C
ENDBRANCH   1  12
TORSDOF 3
ENDMDL