MODEL 2
REMARK VINA RESULT: -5.215685635      1.544      2.170
REMARK  0 active torsions:
REMARK  status: ('A' for Active; 'I' for Inactive)
ROOT
HETATM    1  C1  UNL     1      14.981   4.573  15.228  1.00  0.00     0.000 C
HETATM    2  C2  UNL     1      16.278   5.312  14.968  1.00  0.00     0.004 C
HETATM    3  C3  UNL     1      16.831   4.689  13.679  1.00  0.00     0.063 C
HETATM    4  C4  UNL     1      17.307   3.304  14.059  1.00  0.00     0.212 C
HETATM    5  C5  UNL     1      16.224   2.468  14.670  1.00  0.00     0.063 C
HETATM    6  C6  UNL     1      15.359   3.169  15.650  1.00  0.00     0.004 C
HETATM    7  N1  UNL     1      18.464   3.413  14.874  1.00  0.00    -0.303 N
ATOM      8  H1  UNL     1      18.466   3.469  15.893  1.00  0.00     0.182 HD
HETATM    9  N2  UNL     1      19.460   3.428  14.160  1.00  0.00    -0.313 N
ATOM     10  H2  UNL     1      20.415   3.500  14.510  1.00  0.00     0.181 HD
HETATM   11  C7  UNL     1      19.116   3.331  12.759  1.00  0.00     0.374 C
HETATM   12  N3  UNL     1      17.798   2.682  12.849  1.00  0.00    -0.030 N
ATOM     13  H31 UNL     1      17.200   2.768  12.027  1.00  0.00     0.282 HD
ATOM     14  H32 UNL     1      17.799   1.662  12.838  1.00  0.00     0.282 HD
ENDROOT
TORSDOF 0
ENDMDL