MODEL 2
REMARK VINA RESULT: -3.370552452      2.025      2.823
REMARK  0 active torsions:
REMARK  status: ('A' for Active; 'I' for Inactive)
ROOT
HETATM    1  C1  UNL     1      16.811   3.074  10.807  1.00  0.00     0.041 C
HETATM    2  C2  UNL     1      17.343   1.861  11.520  1.00  0.00     0.080 C
HETATM    3  S1  UNL     1      19.103   1.644  11.375  1.00  0.00    -0.074 SA
HETATM    4  C3  UNL     1      16.546   0.631  11.126  1.00  0.00     0.050 C
HETATM    5  C4  UNL     1      17.021  -0.390  12.167  1.00  0.00     0.125 C
HETATM    6  N1  UNL     1      16.532   0.118  13.432  1.00  0.00    -0.178 NA
HETATM    7  S2  UNL     1      16.881   1.867  13.291  1.00  0.00    -0.044 SA
ENDROOT
TORSDOF 0
ENDMDL