MODEL 2
REMARK VINA RESULT: -3.700966096      1.081      1.172
REMARK  1 active torsions:
REMARK  status: ('A' for Active; 'I' for Inactive)
REMARK    1  A    between atoms: N1_1  and  C1_5
ROOT
HETATM    1  C1  UNL     1      19.483   2.056  11.195  1.00  0.00     0.265 A
HETATM    2  C2  UNL     1      19.551   0.490  10.999  1.00  0.00     0.125 A
HETATM    3  C3  UNL     1      18.218   0.110  11.159  1.00  0.00    -0.169 A
HETATM    4  C4  UNL     1      16.897  -0.333  11.312  1.00  0.00     0.166 A
HETATM    5  S1  UNL     1      16.106   1.369  11.637  1.00  0.00    -0.084 SA
HETATM    6  S2  UNL     1      17.831   2.658  11.488  1.00  0.00    -0.063 SA
ENDROOT
BRANCH   1   7
HETATM    7  N1  UNL     1      20.289   2.355  12.368  1.00  0.00    -0.065 N
ATOM      8  H13 UNL     1      19.899   1.982  13.233  1.00  0.00     0.275 HD
ATOM      9  H12 UNL     1      21.170   1.841  12.397  1.00  0.00     0.275 HD
ATOM     10  H11 UNL     1      20.410   3.368  12.381  1.00  0.00     0.275 HD
ENDBRANCH   1   7
TORSDOF 1
ENDMDL