MODEL 2
REMARK VINA RESULT: -5.191323606      1.272      3.068
REMARK  0 active torsions:
REMARK  status: ('A' for Active; 'I' for Inactive)
ROOT
HETATM    1  N1  UNL     1      16.497   3.567  10.348  1.00  0.00    -0.195 NA
HETATM    2  C1  UNL     1      16.982   2.706  10.972  1.00  0.00     0.090 C
HETATM    3  C2  UNL     1      17.581   1.631  11.764  1.00  0.00     0.174 C
HETATM    4  C3  UNL     1      16.901   1.421  13.022  1.00  0.00     0.090 C
HETATM    5  N2  UNL     1      16.354   1.249  14.015  1.00  0.00    -0.195 NA
HETATM    6  C4  UNL     1      17.638   0.331  10.992  1.00  0.00     0.047 C
HETATM    7  C5  UNL     1      19.110  -0.065  10.954  1.00  0.00     0.009 C
HETATM    8  C6  UNL     1      19.760   1.316  10.891  1.00  0.00     0.055 C
HETATM    9  C7  UNL     1      19.018   2.022  11.976  1.00  0.00     0.017 C
HETATM   10  N3  UNL     1      19.495   2.772  12.866  1.00  0.00    -0.403 N
ATOM     11  H31 UNL     1      20.469   3.038  13.010  1.00  0.00     0.155 HD
ATOM     12  H32 UNL     1      18.987   3.255  13.608  1.00  0.00     0.155 HD
ENDROOT
TORSDOF 0
ENDMDL