MODEL 5
REMARK VINA RESULT: -4.683824603      2.587      3.687
REMARK  4 active torsions:
REMARK  status: ('A' for Active; 'I' for Inactive)
REMARK    1  A    between atoms: C2_2  and  O1_3
REMARK    2  A    between atoms: O1_3  and  C3_4
REMARK    3  A    between atoms: C3_4  and  N2_8
REMARK    4  A    between atoms: N3_10  and  C4_12
ROOT
HETATM    1  N2  UNL     1      16.642   1.107  13.963  1.00  0.00    -0.264 N
ATOM      2  H2  UNL     1      16.541   0.732  14.906  1.00  0.00     0.190 HD
HETATM    3  N3  UNL     1      16.804   0.292  13.029  1.00  0.00    -0.287 N
ATOM      4  H3  UNL     1      16.831  -0.704  13.247  1.00  0.00     0.188 HD
ENDROOT
BRANCH   1   5
HETATM    5  C3  UNL     1      16.586   2.521  13.808  1.00  0.00     0.232 C
HETATM    6  N1  UNL     1      17.635   3.269  13.865  1.00  0.00    -0.364 N
ATOM      7  H12 UNL     1      17.595   4.282  13.754  1.00  0.00     0.159 HD
ATOM      8  H11 UNL     1      18.541   2.828  14.028  1.00  0.00     0.159 HD
BRANCH   5   9
HETATM    9  O1  UNL     1      15.371   3.112  13.590  1.00  0.00    -0.322 OA
BRANCH   9  10
HETATM   10  C2  UNL     1      14.783   4.061  14.461  1.00  0.00     0.174 C
HETATM   11  C1  UNL     1      14.612   3.485  15.858  1.00  0.00     0.034 C
ENDBRANCH   9  10
ENDBRANCH   5   9
ENDBRANCH   1   5
BRANCH   3  12
HETATM   12  C4  UNL     1      16.953   0.698  11.678  1.00  0.00     0.085 C
HETATM   13  C5  UNL     1      18.293   0.695  11.058  1.00  0.00     0.090 C
HETATM   14  N4  UNL     1      15.917   1.065  11.013  1.00  0.00    -0.388 N
ATOM     15  H42 UNL     1      14.992   1.067  11.441  1.00  0.00     0.157 HD
ATOM     16  H41 UNL     1      16.024   1.357  10.041  1.00  0.00     0.157 HD
ENDBRANCH   3  12
TORSDOF 4
ENDMDL