MODEL 3
REMARK VINA RESULT: -4.386697096      1.932      2.602
REMARK  1 active torsions:
REMARK  status: ('A' for Active; 'I' for Inactive)
REMARK    1  A    between atoms: O1_1  and  C1_3
ROOT
HETATM    1  C1  UNL     1      16.430   0.637  16.007  1.00  0.00     0.190 C
HETATM    2  C2  UNL     1      15.224   0.457  16.883  1.00  0.00     0.043 C
HETATM    3  C3  UNL     1      14.981   1.630  17.803  1.00  0.00     0.004 C
HETATM    4  C4  UNL     1      13.710   2.376  17.463  1.00  0.00     0.011 C
HETATM    5  C5  UNL     1      13.997   3.667  16.737  1.00  0.00     0.086 C
HETATM    6  S1  UNL     1      14.948   3.438  15.235  1.00  0.00    -0.095 SA
HETATM    7  S2  UNL     1      16.696   2.318  15.489  1.00  0.00    -0.066 SA
ENDROOT
BRANCH   1   8
HETATM    8  O1  UNL     1      16.356  -0.273  14.965  1.00  0.00    -0.384 OA
ATOM      9  H1  UNL     1      15.868   0.123  14.253  1.00  0.00     0.211 HD
ENDBRANCH   1   8
TORSDOF 1
ENDMDL