MODEL 4
REMARK VINA RESULT: -3.597506912      2.279      2.576
REMARK  0 active torsions:
REMARK  status: ('A' for Active; 'I' for Inactive)
ROOT
HETATM    1  N1  UNL     1      15.949   2.022  11.981  1.00  0.00    -0.195 NA
HETATM    2  C1  UNL     1      16.028   2.307  13.084  1.00  0.00     0.092 C
HETATM    3  C2  UNL     1      16.115   2.647  14.484  1.00  0.00     0.154 C
HETATM    4  S1  UNL     1      16.208   1.214  15.562  1.00  0.00    -0.058 SA
HETATM    5  C3  UNL     1      17.271   3.564  14.811  1.00  0.00     0.049 C
HETATM    6  C4  UNL     1      16.905   4.935  14.291  1.00  0.00     0.014 C
HETATM    7  C5  UNL     1      15.614   5.332  14.961  1.00  0.00     0.076 C
HETATM    8  S2  UNL     1      14.711   3.735  14.944  1.00  0.00    -0.132 SA
ENDROOT
TORSDOF 0
ENDMDL