MODEL 3
REMARK VINA RESULT: -3.097300985      1.262      2.847
REMARK  0 active torsions:
REMARK  status: ('A' for Active; 'I' for Inactive)
ROOT
HETATM    1  S1  UNL     1      15.166   5.127  15.113  1.00  0.00    -0.080 SA
HETATM    2  C1  UNL     1      14.683   3.356  15.196  1.00  0.00     0.132 C
HETATM    3  C2  UNL     1      14.283   3.072  16.574  1.00  0.00     0.038 C
HETATM    4  C3  UNL     1      14.362   1.647  16.964  1.00  0.00     0.088 C
HETATM    5  S2  UNL     1      15.904   0.942  16.328  1.00  0.00    -0.096 SA
HETATM    6  S3  UNL     1      16.195   2.439  14.800  1.00  0.00    -0.081 SA
ENDROOT
TORSDOF 0
ENDMDL