MODEL 5
REMARK VINA RESULT: -4.355215587      5.072      5.960
REMARK  0 active torsions:
REMARK  status: ('A' for Active; 'I' for Inactive)
ROOT
HETATM    1  C1  UNL     1      18.836   2.179  11.405  1.00  0.00     0.041 C
HETATM    2  C2  UNL     1      18.403   0.734  11.422  1.00  0.00     0.136 C
HETATM    3  O1  UNL     1      18.457   0.260  10.108  1.00  0.00    -0.368 OA
HETATM    4  C3  UNL     1      17.510  -0.791  10.115  1.00  0.00     0.195 C
HETATM    5  S1  UNL     1      18.044  -1.974  11.350  1.00  0.00    -0.063 SA
HETATM    6  C4  UNL     1      16.313   0.012  10.646  1.00  0.00     0.065 C
HETATM    7  C5  UNL     1      16.987   0.570  11.893  1.00  0.00     0.124 C
HETATM    8  C6  UNL     1      16.377   1.790  12.362  1.00  0.00     0.066 C
HETATM    9  N1  UNL     1      15.888   2.763  12.752  1.00  0.00    -0.197 NA
ENDROOT
TORSDOF 0
ENDMDL