MODEL 1
REMARK VINA RESULT: -5.790701979      0.000      0.000
REMARK  1 active torsions:
REMARK  status: ('A' for Active; 'I' for Inactive)
REMARK    1  A    between atoms: O1_3  and  C2_4
ROOT
HETATM    1  N1  UNL     1      16.125   2.287  11.683  1.00  0.00    -0.164 NA
HETATM    2  C1  UNL     1      16.390   2.199  12.807  1.00  0.00     0.229 C
HETATM    3  O1  UNL     1      16.708   2.116  14.152  1.00  0.00    -0.272 OA
ENDROOT
BRANCH   3   4
HETATM    4  C2  UNL     1      15.716   1.853  15.094  1.00  0.00     0.186 C
HETATM    5  C3  UNL     1      15.402   3.040  15.985  1.00  0.00     0.039 C
HETATM    6  C4  UNL     1      14.044   2.726  16.624  1.00  0.00     0.003 C
HETATM    7  C5  UNL     1      14.037   1.413  17.317  1.00  0.00     0.006 C
HETATM    8  C6  UNL     1      15.374   0.709  17.317  1.00  0.00     0.054 C
HETATM    9  C7  UNL     1      16.026   0.727  15.994  1.00  0.00     0.010 C
HETATM   10  N2  UNL     1      16.813  -0.167  15.632  1.00  0.00    -0.403 N
ATOM     11  H22 UNL     1      17.264  -0.154  14.718  1.00  0.00     0.155 HD
ATOM     12  H21 UNL     1      17.028  -0.946  16.255  1.00  0.00     0.155 HD
ENDBRANCH   3   4
TORSDOF 1
ENDMDL