MODEL 3
REMARK VINA RESULT: -3.276272687      2.122      2.601
REMARK  1 active torsions:
REMARK  status: ('A' for Active; 'I' for Inactive)
REMARK    1  A    between atoms: N1_1  and  S1_4
ROOT
HETATM    1  S1  UNL     1      14.708   1.390  17.345  1.00  0.00    -0.060 SA
HETATM    2  C1  UNL     1      14.366   3.132  17.027  1.00  0.00     0.108 C
HETATM    3  C2  UNL     1      14.478   3.337  15.534  1.00  0.00     0.099 C
HETATM    4  S2  UNL     1      16.244   3.048  15.114  1.00  0.00    -0.085 SA
HETATM    5  S3  UNL     1      16.447   1.141  16.116  1.00  0.00    -0.016 SA
ENDROOT
BRANCH   1   6
HETATM    6  N1  UNL     1      13.562   0.458  16.883  1.00  0.00    -0.374 NA
ATOM      7  H12 UNL     1      13.152   0.788  16.008  1.00  0.00     0.164 HD
ATOM      8  H11 UNL     1      12.740   0.510  17.485  1.00  0.00     0.164 HD
ENDBRANCH   1   6
TORSDOF 1
ENDMDL