MODEL 2
REMARK VINA RESULT: -4.887420903      1.227      3.834
REMARK  2 active torsions:
REMARK  status: ('A' for Active; 'I' for Inactive)
REMARK    1  A    between atoms: N1_1  and  C1_5
REMARK    2  A    between atoms: C1_5  and  N2_6
ROOT
HETATM    1  C1  UNL     1      14.358   2.522  16.614  1.00  0.00     0.318 C
HETATM    2  C6  UNL     1      15.302   1.784  17.525  1.00  0.00     0.072 C
HETATM    3  C7  UNL     1      14.428   0.538  17.466  1.00  0.00     0.009 C
HETATM    4  C8  UNL     1      13.406   1.372  16.749  1.00  0.00     0.072 C
ENDROOT
BRANCH   1   5
HETATM    5  N1  UNL     1      13.944   3.759  17.272  1.00  0.00    -0.042 N
ATOM      6  H13 UNL     1      14.521   3.983  18.083  1.00  0.00     0.277 HD
ATOM      7  H12 UNL     1      14.156   4.588  16.716  1.00  0.00     0.277 HD
ATOM      8  H11 UNL     1      12.953   3.689  17.504  1.00  0.00     0.277 HD
ENDBRANCH   1   5
BRANCH   1   9
HETATM    9  N2  UNL     1      14.817   2.836  15.300  1.00  0.00     0.125 N
HETATM   10  C2  UNL     1      14.723   4.240  15.026  1.00  0.00     0.276 C
HETATM   11  C3  UNL     1      16.003   4.628  14.326  1.00  0.00     0.032 C
HETATM   12  C4  UNL     1      17.013   3.587  14.776  1.00  0.00     0.032 C
HETATM   13  C5  UNL     1      16.119   2.374  14.956  1.00  0.00     0.276 C
ENDBRANCH   1   9
TORSDOF 2
ENDMDL