MODEL 4
REMARK VINA RESULT: -5.382086372      1.074      1.312
REMARK  0 active torsions:
REMARK  status: ('A' for Active; 'I' for Inactive)
ROOT
HETATM    1  N1  UNL     1      16.314  -0.077  14.727  1.00  0.00    -0.088 NA
HETATM    2  C1  UNL     1      16.470   1.289  15.094  1.00  0.00     0.088 C
HETATM    3  N2  UNL     1      16.880   2.088  14.178  1.00  0.00    -0.382 N
ATOM      4  H2  UNL     1      17.062   1.679  13.262  1.00  0.00     0.160 HD
HETATM    5  C2  UNL     1      17.109   3.489  14.308  1.00  0.00     0.120 C
HETATM    6  C3  UNL     1      16.014   4.250  13.626  1.00  0.00     0.020 C
HETATM    7  C4  UNL     1      15.319   5.154  14.604  1.00  0.00     0.002 C
HETATM    8  C5  UNL     1      14.818   4.486  15.835  1.00  0.00     0.000 C
HETATM    9  C6  UNL     1      14.251   3.118  15.634  1.00  0.00     0.000 C
HETATM   10  C7  UNL     1      14.726   2.133  16.659  1.00  0.00     0.007 C
HETATM   11  C8  UNL     1      16.159   1.717  16.481  1.00  0.00     0.073 C
ENDROOT
TORSDOF 0
ENDMDL