MODEL 1
REMARK VINA RESULT: -6.011445422      0.000      0.000
REMARK  0 active torsions:
REMARK  status: ('A' for Active; 'I' for Inactive)
ROOT
HETATM    1  C1  UNL     1      14.251   3.933  16.763  1.00  0.00     0.000 C
HETATM    2  C2  UNL     1      14.657   2.555  16.889  1.00  0.00     0.002 C
HETATM    3  C3  UNL     1      14.290   1.552  17.886  1.00  0.00     0.021 C
HETATM    4  C4  UNL     1      14.903   0.265  17.264  1.00  0.00     0.141 C
HETATM    5  N1  UNL     1      16.187   0.432  16.683  1.00  0.00    -0.322 N
ATOM      6  H1  UNL     1      16.891   0.141  17.360  1.00  0.00     0.181 HD
HETATM    7  N2  UNL     1      16.729   0.784  15.702  1.00  0.00    -0.252 N
ATOM      8  H2  UNL     1      17.727   0.674  15.880  1.00  0.00     0.207 HD
HETATM    9  N3  UNL     1      16.627   1.269  14.446  1.00  0.00    -0.322 N
ATOM     10  H3  UNL     1      17.075   0.719  13.715  1.00  0.00     0.181 HD
HETATM   11  C5  UNL     1      15.943   2.499  14.007  1.00  0.00     0.141 C
HETATM   12  C6  UNL     1      16.038   3.661  14.929  1.00  0.00     0.021 C
HETATM   13  C7  UNL     1      14.787   4.329  15.365  1.00  0.00     0.002 C
ENDROOT
TORSDOF 0
ENDMDL