MODEL 4
REMARK VINA RESULT: -3.707885109      5.490      6.553
REMARK  0 active torsions:
REMARK  status: ('A' for Active; 'I' for Inactive)
ROOT
HETATM    1  C1  UNL     1      17.821   3.403  10.576  1.00  0.00     0.050 C
HETATM    2  C2  UNL     1      18.389   2.554  11.710  1.00  0.00     0.067 C
HETATM    3  C3  UNL     1      19.425   3.401  12.405  1.00  0.00     0.050 C
HETATM    4  N1  UNL     1      17.398   2.161  12.649  1.00  0.00    -0.405 N
ATOM      5  H1  UNL     1      17.398   2.500  13.611  1.00  0.00     0.154 HD
HETATM    6  C4  UNL     1      16.405   1.265  12.162  1.00  0.00     0.116 C
HETATM    7  C5  UNL     1      16.895  -0.138  11.928  1.00  0.00     0.029 C
HETATM    8  C6  UNL     1      18.005  -0.239  10.940  1.00  0.00     0.078 C
HETATM    9  S1  UNL     1      19.219   1.084  11.067  1.00  0.00    -0.139 SA
ENDROOT
TORSDOF 0
ENDMDL