MODEL 1
REMARK VINA RESULT: -5.736385242      0.000      0.000
REMARK  0 active torsions:
REMARK  status: ('A' for Active; 'I' for Inactive)
ROOT
HETATM    1  N1  UNL     1      16.470  -0.581  15.700  1.00  0.00    -0.190 NA
HETATM    2  C1  UNL     1      16.292   0.572  15.708  1.00  0.00     0.113 C
HETATM    3  C2  UNL     1      16.084   1.999  15.707  1.00  0.00     0.086 C
HETATM    4  N2  UNL     1      16.455   2.588  14.618  1.00  0.00    -0.385 N
ATOM      5  H2  UNL     1      16.838   1.938  13.931  1.00  0.00     0.160 HD
HETATM    6  C3  UNL     1      16.452   3.963  14.146  1.00  0.00     0.120 C
HETATM    7  C4  UNL     1      15.074   4.548  14.469  1.00  0.00     0.020 C
HETATM    8  C5  UNL     1      15.043   5.172  15.819  1.00  0.00     0.002 C
HETATM    9  C6  UNL     1      14.113   4.526  16.791  1.00  0.00     0.000 C
HETATM   10  C7  UNL     1      14.095   3.022  16.717  1.00  0.00     0.007 C
HETATM   11  C8  UNL     1      15.480   2.520  16.961  1.00  0.00     0.068 C
ENDROOT
TORSDOF 0
ENDMDL