MODEL 3
REMARK VINA RESULT: -4.775057494      1.750      3.526
REMARK  3 active torsions:
REMARK  status: ('A' for Active; 'I' for Inactive)
REMARK    1  A    between atoms: O1_2  and  C2_3
REMARK    2  A    between atoms: C2_3  and  S1_5
REMARK    3  A    between atoms: S1_5  and  C3_6
ROOT
HETATM    1  S1  UNL     1      16.212   2.565  16.113  1.00  0.00    -0.053 SA
ENDROOT
BRANCH   1   2
HETATM    2  C2  UNL     1      15.952   0.831  16.368  1.00  0.00     0.322 C
HETATM    3  O2  UNL     1      16.981   0.081  16.378  1.00  0.00    -0.252 OA
BRANCH   2   4
HETATM    4  O1  UNL     1      14.690   0.260  16.556  1.00  0.00    -0.318 OA
HETATM    5  C1  UNL     1      13.741   1.047  17.271  1.00  0.00     0.214 C
ENDBRANCH   2   4
ENDBRANCH   1   2
BRANCH   1   6
HETATM    6  C3  UNL     1      16.091   3.020  14.367  1.00  0.00     0.007 C
HETATM    7  C4  UNL     1      14.752   3.641  14.094  1.00  0.00     0.026 C
HETATM    8  C5  UNL     1      16.170   1.763  13.499  1.00  0.00     0.026 C
HETATM    9  C6  UNL     1      17.259   3.880  14.020  1.00  0.00     0.026 C
ENDBRANCH   1   6
TORSDOF 3
ENDMDL