MODEL 2
REMARK VINA RESULT: -3.902265206      1.499      2.599
REMARK  1 active torsions:
REMARK  status: ('A' for Active; 'I' for Inactive)
REMARK    1  A    between atoms: O1_1  and  C1_3
ROOT
HETATM    1  C1  UNL     1      14.993   0.843  16.902  1.00  0.00     0.128 C
HETATM    2  C2  UNL     1      16.285   0.804  16.163  1.00  0.00     0.033 C
HETATM    3  C3  UNL     1      16.827   2.160  15.800  1.00  0.00     0.013 C
HETATM    4  C4  UNL     1      15.980   2.728  14.689  1.00  0.00     0.086 C
HETATM    5  S1  UNL     1      14.688   3.818  15.273  1.00  0.00    -0.098 SA
HETATM    6  S2  UNL     1      14.070   3.392  17.229  1.00  0.00    -0.095 SA
HETATM    7  C5  UNL     1      14.884   1.920  17.923  1.00  0.00     0.117 C
ENDROOT
BRANCH   1   8
HETATM    8  O1  UNL     1      14.870  -0.386  17.591  1.00  0.00    -0.395 OA
ATOM      9  H1  UNL     1      14.063  -0.792  17.296  1.00  0.00     0.210 HD
ENDBRANCH   1   8
TORSDOF 1
ENDMDL