MODEL 1
REMARK VINA RESULT: -4.273086897      0.000      0.000
REMARK  0 active torsions:
REMARK  status: ('A' for Active; 'I' for Inactive)
ROOT
HETATM    1  C1  UNL     1      14.701   2.551  17.929  1.00  0.00     0.018 C
HETATM    2  C2  UNL     1      14.020   3.422  16.919  1.00  0.00     0.012 C
HETATM    3  C3  UNL     1      14.852   3.772  15.740  1.00  0.00     0.087 C
HETATM    4  S1  UNL     1      16.333   2.778  15.554  1.00  0.00    -0.080 SA
HETATM    5  S2  UNL     1      16.080   0.775  16.132  1.00  0.00     0.008 SA
HETATM    6  N1  UNL     1      14.451   0.447  16.698  1.00  0.00    -0.169 NA
HETATM    7  C4  UNL     1      14.146   1.127  17.924  1.00  0.00     0.123 C
ENDROOT
TORSDOF 0
ENDMDL