MODEL 4
REMARK VINA RESULT: -4.163480421      5.240      5.788
REMARK  2 active torsions:
REMARK  status: ('A' for Active; 'I' for Inactive)
REMARK    1  A    between atoms: O1_1  and  N1_3
REMARK    2  A    between atoms: C1_5  and  C2_6
ROOT
HETATM    1  C2  UNL     1      18.833   2.272  11.713  1.00  0.00     0.027 C
HETATM    2  C3  UNL     1      17.494   2.782  11.374  1.00  0.00     0.020 C
HETATM    3  C4  UNL     1      16.516   1.792  10.863  1.00  0.00     0.074 C
HETATM    4  S1  UNL     1      16.898   0.106  11.462  1.00  0.00    -0.169 SA
HETATM    5  C5  UNL     1      18.666  -0.146  11.050  1.00  0.00     0.074 C
HETATM    6  C6  UNL     1      19.352   1.161  10.863  1.00  0.00     0.020 C
ENDROOT
BRANCH   1   7
HETATM    7  C1  UNL     1      19.807   3.395  11.597  1.00  0.00     0.091 C
HETATM    8  N1  UNL     1      20.264   4.055  12.578  1.00  0.00    -0.284 N
ATOM      9  H1  UNL     1      20.931   4.812  12.424  1.00  0.00     0.192 HD
BRANCH   8  10
HETATM   10  O1  UNL     1      19.856   3.743  13.844  1.00  0.00    -0.291 OA
ATOM     11  H1  UNL     1      20.296   4.140  14.586  1.00  0.00     0.244 HD
ENDBRANCH   8  10
ENDBRANCH   1   7
TORSDOF 2
ENDMDL