MODEL 2
REMARK VINA RESULT: -5.581314778      1.067      1.151
REMARK  0 active torsions:
REMARK  status: ('A' for Active; 'I' for Inactive)
ROOT
HETATM    1  O1  UNL     1      15.452  -0.381  17.513  1.00  0.00    -0.260 OA
HETATM    2  C1  UNL     1      15.343   0.687  16.879  1.00  0.00     0.280 C
HETATM    3  N1  UNL     1      16.156   1.182  15.791  1.00  0.00    -0.346 N
ATOM      4  H1  UNL     1      16.653   0.608  15.109  1.00  0.00     0.163 HD
HETATM    5  C2  UNL     1      16.149   2.580  15.829  1.00  0.00     0.099 C
HETATM    6  C3  UNL     1      16.650   3.361  14.688  1.00  0.00     0.026 C
HETATM    7  C4  UNL     1      16.044   4.730  15.047  1.00  0.00     0.003 C
HETATM    8  C5  UNL     1      14.751   4.408  15.818  1.00  0.00     0.018 C
HETATM    9  C6  UNL     1      14.652   2.957  15.679  1.00  0.00     0.080 C
HETATM   10  S1  UNL     1      14.107   2.006  17.108  1.00  0.00    -0.062 SA
ENDROOT
TORSDOF 0
ENDMDL