MODEL 2
REMARK VINA RESULT: -4.985869454      3.001      4.168
REMARK  3 active torsions:
REMARK  status: ('A' for Active; 'I' for Inactive)
REMARK    1  A    between atoms: C1_4  and  O1_5
REMARK    2  A    between atoms: C1_4  and  S1_7
REMARK    3  A    between atoms: S1_7  and  C2_8
ROOT
HETATM    1  C2  UNL     1      15.720   3.027  15.100  1.00  0.00     0.050 C
HETATM    2  N2  UNL     1      14.712   3.662  15.554  1.00  0.00    -0.388 N
ATOM      3  H2  UNL     1      14.239   4.304  14.920  1.00  0.00     0.159 HD
HETATM    4  C3  UNL     1      14.195   3.546  16.871  1.00  0.00     0.120 C
HETATM    5  C4  UNL     1      14.443   2.228  17.524  1.00  0.00     0.020 C
HETATM    6  C5  UNL     1      15.301   1.296  16.732  1.00  0.00     0.008 C
HETATM    7  C6  UNL     1      16.408   2.089  16.027  1.00  0.00     0.065 C
ENDROOT
BRANCH   1   8
HETATM    8  S1  UNL     1      16.347   3.188  13.452  1.00  0.00    -0.034 SA
BRANCH   8   9
HETATM    9  C1  UNL     1      16.167   1.718  12.490  1.00  0.00     0.179 C
HETATM   10  N1  UNL     1      16.772   0.648  12.849  1.00  0.00    -0.374 N
ATOM     11  H12 UNL     1      16.669  -0.201  12.293  1.00  0.00     0.158 HD
ATOM     12  H11 UNL     1      17.345   0.681  13.692  1.00  0.00     0.158 HD
BRANCH   9  13
HETATM   13  O1  UNL     1      15.391   1.673  11.349  1.00  0.00    -0.341 OA
ATOM     14  H1  UNL     1      15.152   0.820  11.004  1.00  0.00     0.220 HD
ENDBRANCH   9  13
ENDBRANCH   8   9
ENDBRANCH   1   8
TORSDOF 3
ENDMDL