MODEL 4
REMARK VINA RESULT: -3.712272223      2.118      3.155
REMARK  1 active torsions:
REMARK  status: ('A' for Active; 'I' for Inactive)
REMARK    1  A    between atoms: C5_7  and  N1_8
ROOT
HETATM    1  C1  UNL     1      13.623   4.238  17.777  1.00  0.00     0.013 C
HETATM    2  C2  UNL     1      14.079   3.058  16.936  1.00  0.00     0.023 C
HETATM    3  C3  UNL     1      14.866   2.148  17.857  1.00  0.00     0.018 C
HETATM    4  C4  UNL     1      14.804   0.693  17.376  1.00  0.00     0.086 C
HETATM    5  S1  UNL     1      16.143   0.586  16.123  1.00  0.00    -0.096 SA
HETATM    6  S2  UNL     1      16.435   2.638  15.551  1.00  0.00    -0.064 SA
HETATM    7  C5  UNL     1      14.790   3.439  15.701  1.00  0.00     0.259 C
ENDROOT
BRANCH   7   8
HETATM    8  N1  UNL     1      15.014   4.830  15.506  1.00  0.00    -0.065 N
ATOM      9  H13 UNL     1      14.618   5.120  14.612  1.00  0.00     0.275 HD
ATOM     10  H12 UNL     1      14.432   5.366  16.150  1.00  0.00     0.275 HD
ATOM     11  H11 UNL     1      15.982   5.146  15.573  1.00  0.00     0.275 HD
ENDBRANCH   7   8
TORSDOF 1
ENDMDL