MODEL 3
REMARK VINA RESULT: -4.994386815      1.893      2.441
REMARK  0 active torsions:
REMARK  status: ('A' for Active; 'I' for Inactive)
ROOT
HETATM    1  N1  UNL     1      16.622  -0.486  15.060  1.00  0.00    -0.075 NA
HETATM    2  C1  UNL     1      16.526   0.825  14.505  1.00  0.00     0.150 C
HETATM    3  N2  UNL     1      16.323   1.937  15.027  1.00  0.00    -0.363 N
ATOM      4  H2  UNL     1      16.192   1.983  16.037  1.00  0.00     0.162 HD
HETATM    5  C2  UNL     1      16.266   3.110  14.300  1.00  0.00     0.040 C
HETATM    6  C3  UNL     1      14.975   3.842  14.706  1.00  0.00     0.032 C
HETATM    7  C4  UNL     1      15.231   5.218  14.133  1.00  0.00     0.002 C
HETATM    8  C5  UNL     1      16.643   5.486  14.586  1.00  0.00     0.002 C
HETATM    9  C6  UNL     1      17.321   4.145  14.619  1.00  0.00     0.032 C
HETATM   10  C7  UNL     1      16.178   2.886  12.828  1.00  0.00     0.113 C
HETATM   11  S1  UNL     1      16.703   1.128  12.750  1.00  0.00    -0.095 SA
ENDROOT
TORSDOF 0
ENDMDL