MODEL 5
REMARK VINA RESULT: -4.818471654      2.048      2.930
REMARK  1 active torsions:
REMARK  status: ('A' for Active; 'I' for Inactive)
REMARK    1  A    between atoms: O1_2  and  C2_3
ROOT
HETATM    1  C2  UNL     1      16.938   2.641  11.770  1.00  0.00     0.148 C
HETATM    2  C3  UNL     1      17.254   3.256  10.471  1.00  0.00     0.098 C
HETATM    3  N1  UNL     1      17.488   3.753   9.442  1.00  0.00    -0.194 NA
HETATM    4  C4  UNL     1      16.169   1.375  11.504  1.00  0.00     0.053 C
HETATM    5  C5  UNL     1      16.922   0.394  10.648  1.00  0.00     0.004 C
HETATM    6  C6  UNL     1      18.266   0.029  11.226  1.00  0.00     0.000 C
HETATM    7  C7  UNL     1      19.325   0.995  10.791  1.00  0.00     0.000 C
HETATM    8  C8  UNL     1      19.409   2.219  11.636  1.00  0.00     0.004 C
HETATM    9  C9  UNL     1      18.202   2.429  12.524  1.00  0.00     0.053 C
ENDROOT
BRANCH   1  10
HETATM   10  O1  UNL     1      16.118   3.527  12.447  1.00  0.00    -0.370 OA
HETATM   11  C1  UNL     1      15.817   3.125  13.727  1.00  0.00     0.204 C
ENDBRANCH   1  10
TORSDOF 1
ENDMDL