MODEL 3
REMARK VINA RESULT: -5.375615310      3.702      4.750
REMARK  0 active torsions:
REMARK  status: ('A' for Active; 'I' for Inactive)
ROOT
HETATM    1  C1  UNL     1      16.836   2.339  12.880  1.00  0.00     0.000 C
HETATM    2  C2  UNL     1      15.827   3.021  13.721  1.00  0.00     0.000 C
HETATM    3  C3  UNL     1      16.661   3.972  14.600  1.00  0.00     0.002 C
HETATM    4  C4  UNL     1      17.756   4.675  13.872  1.00  0.00     0.021 C
HETATM    5  C5  UNL     1      19.146   4.145  14.118  1.00  0.00     0.141 C
HETATM    6  N1  UNL     1      19.900   3.875  12.902  1.00  0.00    -0.322 N
ATOM      7  H1  UNL     1      20.160   4.688  12.342  1.00  0.00     0.181 HD
HETATM    8  N2  UNL     1      20.294   2.678  12.432  1.00  0.00    -0.252 N
ATOM      9  H2  UNL     1      21.232   2.467  12.773  1.00  0.00     0.207 HD
HETATM   10  N3  UNL     1      19.899   1.773  11.741  1.00  0.00    -0.322 N
ATOM     11  H3  UNL     1      20.584   1.021  11.663  1.00  0.00     0.181 HD
HETATM   12  C6  UNL     1      18.714   1.497  11.008  1.00  0.00     0.141 C
HETATM   13  C7  UNL     1      17.752   0.536  11.593  1.00  0.00     0.021 C
HETATM   14  C8  UNL     1      16.448   1.113  12.120  1.00  0.00     0.002 C
ENDROOT
TORSDOF 0
ENDMDL