MODEL 3
REMARK VINA RESULT: -5.054241148      3.568      5.642
REMARK  0 active torsions:
REMARK  status: ('A' for Active; 'I' for Inactive)
ROOT
HETATM    1  N1  UNL     1      17.025  -1.751  11.813  1.00  0.00    -0.384 N
ATOM      2  H11 UNL     1      16.352  -2.014  12.534  1.00  0.00     0.157 HD
ATOM      3  H12 UNL     1      17.548  -2.489  11.344  1.00  0.00     0.157 HD
HETATM    4  C1  UNL     1      17.137  -0.506  11.577  1.00  0.00     0.111 C
HETATM    5  C2  UNL     1      18.127  -0.118  10.517  1.00  0.00     0.083 C
HETATM    6  C3  UNL     1      19.401   0.490  10.998  1.00  0.00     0.008 C
HETATM    7  C4  UNL     1      19.845   1.754  10.343  1.00  0.00     0.000 C
HETATM    8  C5  UNL     1      19.560   3.060  11.115  1.00  0.00     0.000 C
HETATM    9  C6  UNL     1      18.302   2.813  11.773  1.00  0.00     0.000 C
HETATM   10  C7  UNL     1      17.488   3.726  12.574  1.00  0.00     0.002 C
HETATM   11  C8  UNL     1      16.276   2.830  12.926  1.00  0.00     0.027 C
HETATM   12  C9  UNL     1      16.578   1.399  13.199  1.00  0.00     0.177 C
HETATM   13  O1  UNL     1      16.444   0.472  12.200  1.00  0.00    -0.340 OA
ENDROOT
TORSDOF 0
ENDMDL