MODEL 3
REMARK VINA RESULT: -5.279645803      1.441      2.051
REMARK  0 active torsions:
REMARK  status: ('A' for Active; 'I' for Inactive)
ROOT
HETATM    1  C1  UNL     1      15.147   4.961  15.037  1.00  0.00     0.000 C
HETATM    2  C2  UNL     1      16.398   5.507  14.414  1.00  0.00     0.002 C
HETATM    3  C3  UNL     1      16.626   4.751  13.122  1.00  0.00     0.034 C
HETATM    4  C4  UNL     1      17.095   3.348  13.545  1.00  0.00     0.061 C
HETATM    5  C5  UNL     1      15.916   2.700  14.249  1.00  0.00     0.034 C
HETATM    6  C6  UNL     1      15.367   3.517  15.361  1.00  0.00     0.002 C
HETATM    7  C7  UNL     1      17.467   2.538  12.367  1.00  0.00     0.153 C
HETATM    8  N1  UNL     1      18.867   2.431  12.053  1.00  0.00    -0.383 N
ATOM      9  H1  UNL     1      19.263   1.685  11.482  1.00  0.00     0.160 HD
HETATM   10  C8  UNL     1      19.640   3.484  12.629  1.00  0.00     0.192 C
HETATM   11  N2  UNL     1      19.334   3.604  13.999  1.00  0.00    -0.300 N
ATOM     12  H2  UNL     1      20.094   3.747  14.663  1.00  0.00     0.187 HD
HETATM   13  N3  UNL     1      18.192   3.544  14.415  1.00  0.00    -0.324 N
ATOM     14  H3  UNL     1      18.023   3.637  15.417  1.00  0.00     0.181 HD
ENDROOT
TORSDOF 0
ENDMDL