MODEL 5
REMARK VINA RESULT: -3.911546916      2.257      3.210
REMARK  1 active torsions:
REMARK  status: ('A' for Active; 'I' for Inactive)
REMARK    1  A    between atoms: O1_1  and  C1_3
ROOT
HETATM    1  C1  UNL     1      19.392   2.657  11.598  1.00  0.00     0.190 C
HETATM    2  C2  UNL     1      17.981   2.896  12.054  1.00  0.00     0.043 C
HETATM    3  C3  UNL     1      16.952   2.512  11.018  1.00  0.00     0.004 C
HETATM    4  C4  UNL     1      16.111   1.331  11.451  1.00  0.00     0.011 C
HETATM    5  C5  UNL     1      16.533   0.061  10.754  1.00  0.00     0.086 C
HETATM    6  S1  UNL     1      18.261  -0.343  11.002  1.00  0.00    -0.095 SA
HETATM    7  S2  UNL     1      19.579   1.222  10.564  1.00  0.00    -0.066 SA
ENDROOT
BRANCH   1   8
HETATM    8  O1  UNL     1      20.220   2.669  12.708  1.00  0.00    -0.384 OA
ATOM      9  H1  UNL     1      21.114   2.524  12.418  1.00  0.00     0.211 HD
ENDBRANCH   1   8
TORSDOF 1
ENDMDL