MODEL 4
REMARK VINA RESULT: -4.271461938      1.860      3.201
REMARK  0 active torsions:
REMARK  status: ('A' for Active; 'I' for Inactive)
ROOT
HETATM    1  C1  UNL     1      20.315   2.591  11.518  1.00  0.00     0.002 C
HETATM    2  C2  UNL     1      19.862   1.707  10.411  1.00  0.00     0.001 C
HETATM    3  C3  UNL     1      19.408   0.386  10.954  1.00  0.00     0.010 C
HETATM    4  C4  UNL     1      17.987   0.047  10.630  1.00  0.00     0.075 C
HETATM    5  S1  UNL     1      16.943  -0.061  12.115  1.00  0.00    -0.142 SA
HETATM    6  C5  UNL     1      16.432   1.581  12.685  1.00  0.00     0.305 C
HETATM    7  N1  UNL     1      17.607   2.368  12.912  1.00  0.00    -0.067 N
ATOM      8  H11 UNL     1      18.406   1.771  13.126  1.00  0.00     0.278 HD
ATOM      9  H12 UNL     1      17.538   2.878  13.793  1.00  0.00     0.278 HD
HETATM   10  C6  UNL     1      17.914   3.268  11.818  1.00  0.00     0.233 C
HETATM   11  C7  UNL     1      19.359   3.647  11.931  1.00  0.00     0.027 C
ENDROOT
TORSDOF 0
ENDMDL