MODEL 5
REMARK VINA RESULT: -5.200752876      1.651      2.160
REMARK  0 active torsions:
REMARK  status: ('A' for Active; 'I' for Inactive)
ROOT
HETATM    1  N1  UNL     1      16.660   1.997  16.054  1.00  0.00    -0.190 NA
HETATM    2  C1  UNL     1      16.989   2.772  15.243  1.00  0.00     0.114 C
HETATM    3  C2  UNL     1      17.414   3.739  14.191  1.00  0.00     0.105 C
HETATM    4  C3  UNL     1      16.498   3.696  13.014  1.00  0.00     0.070 C
HETATM    5  C4  UNL     1      15.788   2.437  12.702  1.00  0.00     0.007 C
HETATM    6  C5  UNL     1      16.292   1.651  11.462  1.00  0.00     0.000 C
HETATM    7  C6  UNL     1      17.723   1.725  11.614  1.00  0.00     0.000 C
HETATM    8  C7  UNL     1      18.814   1.167  10.837  1.00  0.00     0.005 C
HETATM    9  C8  UNL     1      20.046   1.733  11.596  1.00  0.00     0.046 C
HETATM   10  C9  UNL     1      19.977   3.166  11.977  1.00  0.00     0.080 C
HETATM   11  N2  UNL     1      19.630   3.567  13.246  1.00  0.00    -0.315 N
ATOM     12  H2  UNL     1      20.510   3.781  13.717  1.00  0.00     0.185 HD
HETATM   13  N3  UNL     1      18.799   3.774  14.027  1.00  0.00    -0.295 N
ATOM     14  H3  UNL     1      19.230   4.093  14.895  1.00  0.00     0.187 HD
ENDROOT
TORSDOF 0
ENDMDL