MODEL 3
REMARK VINA RESULT: -5.282940716      2.536      3.957
REMARK  0 active torsions:
REMARK  status: ('A' for Active; 'I' for Inactive)
ROOT
HETATM    1  C1  UNL     1      17.114  -1.025  11.575  1.00  0.00     0.064 C
HETATM    2  C2  UNL     1      16.780   0.230  11.850  1.00  0.00     0.107 A
HETATM    3  N1  UNL     1      16.021   1.147  11.087  1.00  0.00    -0.288 N
ATOM      4  H1  UNL     1      15.617   0.929  10.176  1.00  0.00     0.188 HD
HETATM    5  N2  UNL     1      15.898   2.255  11.651  1.00  0.00    -0.306 N
ATOM      6  H2  UNL     1      15.389   3.050  11.266  1.00  0.00     0.183 HD
HETATM    7  C3  UNL     1      16.566   2.254  12.903  1.00  0.00     0.119 A
HETATM    8  C4  UNL     1      15.671   2.519  14.082  1.00  0.00     0.055 C
HETATM    9  C5  UNL     1      15.348   3.981  14.251  1.00  0.00     0.004 C
HETATM   10  C6  UNL     1      16.582   4.835  14.384  1.00  0.00     0.000 C
HETATM   11  C7  UNL     1      17.846   4.058  14.092  1.00  0.00     0.004 C
HETATM   12  C8  UNL     1      17.720   3.242  12.834  1.00  0.00     0.055 C
HETATM   13  N3  UNL     1      17.133   0.938  13.021  1.00  0.00    -0.348 N
ATOM     14  H3  UNL     1      17.687   0.583  13.801  1.00  0.00     0.163 HD
ENDROOT
TORSDOF 0
ENDMDL