MODEL 4
REMARK VINA RESULT: -3.090591069      1.306      3.231
REMARK  0 active torsions:
REMARK  status: ('A' for Active; 'I' for Inactive)
ROOT
HETATM    1  S1  UNL     1      16.677  -0.120  10.725  1.00  0.00    -0.081 SA
HETATM    2  C1  UNL     1      17.700   1.134  11.590  1.00  0.00     0.121 C
HETATM    3  C2  UNL     1      19.120   0.895  11.135  1.00  0.00     0.037 C
HETATM    4  C3  UNL     1      20.009   2.061  11.527  1.00  0.00     0.076 C
HETATM    5  S2  UNL     1      19.831   3.269  10.158  1.00  0.00    -0.159 SA
HETATM    6  C4  UNL     1      18.090   3.771  10.186  1.00  0.00     0.148 C
HETATM    7  S3  UNL     1      17.067   2.743  11.207  1.00  0.00    -0.143 SA
ENDROOT
TORSDOF 0
ENDMDL