MODEL 2
REMARK VINA RESULT: -4.867303797      1.419      3.552
REMARK  0 active torsions:
REMARK  status: ('A' for Active; 'I' for Inactive)
ROOT
HETATM    1 CL1  UNL     1      14.917   1.946  18.861  1.00  0.00    -0.035 Cl
HETATM    2  C1  UNL     1      15.545   1.599  17.248  1.00  0.00     0.243 A
HETATM    3  N1  UNL     1      15.388   2.400  16.260  1.00  0.00    -0.313 N
ATOM      4  H1  UNL     1      14.880   3.270  16.419  1.00  0.00     0.170 HD
HETATM    5  C2  UNL     1      15.881   2.144  14.966  1.00  0.00     0.146 A
HETATM    6 CL2  UNL     1      15.656   3.257  13.620  1.00  0.00    -0.061 Cl
HETATM    7  C3  UNL     1      16.545   1.029  14.709  1.00  0.00     0.162 A
HETATM    8 CL3  UNL     1      17.162   0.715  13.077  1.00  0.00    -0.059 Cl
HETATM    9  N2  UNL     1      16.752   0.102  15.760  1.00  0.00    -0.244 N
ATOM     10  H2  UNL     1      17.258  -0.770  15.606  1.00  0.00     0.196 HD
HETATM   11  O1  UNL     1      16.243   0.423  16.994  1.00  0.00    -0.205 OA
ENDROOT
TORSDOF 0
ENDMDL