MODEL 4
REMARK VINA RESULT: -4.167497709      2.426      2.886
REMARK  1 active torsions:
REMARK  status: ('A' for Active; 'I' for Inactive)
REMARK    1  A    between atoms: N1_2  and  C2_4
ROOT
HETATM    1  C2  UNL     1      16.032   2.935  15.838  1.00  0.00     0.097 A
HETATM    2  C3  UNL     1      15.242   3.839  16.467  1.00  0.00     0.138 A
HETATM    3 CL1  UNL     1      15.098   5.575  16.019  1.00  0.00    -0.061 Cl
HETATM    4  N2  UNL     1      14.520   3.402  17.496  1.00  0.00    -0.314 N
ATOM      5  H2  UNL     1      13.878   3.939  18.079  1.00  0.00     0.175 HD
HETATM    6  S1  UNL     1      14.897   1.775  17.624  1.00  0.00     0.001 SA
HETATM    7  C4  UNL     1      16.000   1.659  16.334  1.00  0.00     0.120 A
HETATM    8 CL2  UNL     1      16.904   0.248  15.746  1.00  0.00    -0.072 Cl
ENDROOT
BRANCH   1   9
HETATM    9  N1  UNL     1      16.875   3.279  14.696  1.00  0.00    -0.390 N
HETATM   10  C1  UNL     1      16.422   3.018  13.348  1.00  0.00     0.146 C
ATOM     11  H1  UNL     1      17.788   3.706  14.850  1.00  0.00     0.159 HD
ENDBRANCH   1   9
TORSDOF 1
ENDMDL