MODEL 3
REMARK VINA RESULT: -5.386541618      1.050      1.050
REMARK  1 active torsions:
REMARK  status: ('A' for Active; 'I' for Inactive)
REMARK    1  A    between atoms: C4_8  and  O1_9
ROOT
HETATM    1  N1  UNL     1      15.286  -0.352  17.578  1.00  0.00    -0.091 NA
HETATM    2  C1  UNL     1      15.585   0.849  16.832  1.00  0.00     0.123 A
HETATM    3  S1  UNL     1      15.344   2.481  17.252  1.00  0.00    -0.059 SA
HETATM    4  C2  UNL     1      15.953   3.223  15.850  1.00  0.00     0.101 A
HETATM    5 CL1  UNL     1      16.056   4.953  15.501  1.00  0.00    -0.074 Cl
HETATM    6  C3  UNL     1      16.334   2.164  15.078  1.00  0.00     0.098 A
HETATM    7 CL2  UNL     1      17.051   2.453  13.467  1.00  0.00    -0.079 Cl
HETATM    8  C4  UNL     1      16.148   0.931  15.577  1.00  0.00     0.121 A
ENDROOT
BRANCH   8   9
HETATM    9  O1  UNL     1      16.499  -0.270  14.881  1.00  0.00    -0.357 OA
ATOM     10  H1  UNL     1      16.923  -0.214  14.032  1.00  0.00     0.218 HD
ENDBRANCH   8   9
TORSDOF 1
ENDMDL