MODEL 1
REMARK VINA RESULT: -5.643806133      0.000      0.000
REMARK  0 active torsions:
REMARK  status: ('A' for Active; 'I' for Inactive)
ROOT
HETATM    1  N1  UNL     1      15.265  -0.388  17.591  1.00  0.00    -0.073 NA
HETATM    2  C1  UNL     1      15.583   0.708  16.736  1.00  0.00     0.182 A
HETATM    3  O1  UNL     1      16.056   0.569  15.514  1.00  0.00    -0.280 OA
HETATM    4  C2  UNL     1      16.256   1.743  14.964  1.00  0.00     0.170 A
HETATM    5 CL1  UNL     1      16.872   2.019  13.362  1.00  0.00    -0.054 Cl
HETATM    6  C3  UNL     1      15.897   2.723  15.867  1.00  0.00     0.105 A
HETATM    7 CL2  UNL     1      15.955   4.454  15.670  1.00  0.00    -0.078 Cl
HETATM    8  C4  UNL     1      15.472   2.048  16.987  1.00  0.00     0.107 A
HETATM    9 CL3  UNL     1      14.890   2.744  18.474  1.00  0.00    -0.078 Cl
ENDROOT
TORSDOF 0
ENDMDL