MODEL 4
REMARK VINA RESULT: -4.555430302      1.707      3.416
REMARK  1 active torsions:
REMARK  status: ('A' for Active; 'I' for Inactive)
REMARK    1  A    between atoms: O1_2  and  C1_3
ROOT
HETATM    1  C1  UNL     1      16.389   1.693  15.920  1.00  0.00     0.193 A
HETATM    2  N1  UNL     1      16.161   2.886  16.373  1.00  0.00    -0.319 N
ATOM      3  H1  UNL     1      16.060   3.040  17.377  1.00  0.00     0.169 HD
HETATM    4  C2  UNL     1      16.059   3.903  15.534  1.00  0.00     0.149 A
HETATM    5 CL2  UNL     1      15.751   5.606  15.924  1.00  0.00    -0.056 Cl
HETATM    6  S1  UNL     1      16.295   3.154  14.019  1.00  0.00    -0.043 SA
HETATM    7  C3  UNL     1      16.514   1.549  14.557  1.00  0.00     0.130 A
HETATM    8 CL3  UNL     1      16.824   0.059  13.654  1.00  0.00    -0.071 Cl
ENDROOT
BRANCH   1   9
HETATM    9  O1  UNL     1      16.510   0.557  16.772  1.00  0.00    -0.220 OA
HETATM   10 CL1  UNL     1      15.150   0.103  17.694  1.00  0.00     0.069 Cl
ENDBRANCH   1   9
TORSDOF 1
ENDMDL