MODEL 3
REMARK VINA RESULT: -4.589095064      2.453      3.252
REMARK  1 active torsions:
REMARK  status: ('A' for Active; 'I' for Inactive)
REMARK    1  A    between atoms: N1_2  and  C1_4
ROOT
HETATM    1  C1  UNL     1      16.473   1.575  15.273  1.00  0.00     0.126 A
HETATM    2  S1  UNL     1      16.750   3.160  14.715  1.00  0.00     0.007 SA
HETATM    3  N2  UNL     1      15.976   4.005  15.937  1.00  0.00    -0.314 N
ATOM      4  H2  UNL     1      15.882   5.016  16.028  1.00  0.00     0.175 HD
HETATM    5  C2  UNL     1      15.510   3.070  16.765  1.00  0.00     0.134 A
HETATM    6 CL2  UNL     1      14.603   3.562  18.230  1.00  0.00    -0.062 Cl
HETATM    7  C3  UNL     1      15.765   1.779  16.427  1.00  0.00     0.109 A
HETATM    8 CL3  UNL     1      15.223   0.377  17.408  1.00  0.00    -0.078 Cl
ENDROOT
BRANCH   1   9
HETATM    9  N1  UNL     1      16.871   0.308  14.696  1.00  0.00    -0.290 N
HETATM   10 CL1  UNL     1      16.856   0.199  12.969  1.00  0.00     0.011 Cl
ATOM     11  H1  UNL     1      17.147  -0.481  15.279  1.00  0.00     0.181 HD
ENDBRANCH   1   9
TORSDOF 1
ENDMDL