MODEL 2
REMARK VINA RESULT: -5.041186898      2.766      4.861
REMARK  1 active torsions:
REMARK  status: ('A' for Active; 'I' for Inactive)
REMARK    1  A    between atoms: N1_4  and  N2_6
ROOT
HETATM    1  N2  UNL     1      16.981   1.351  14.283  1.00  0.00    -0.287 N
ATOM      2  H2  UNL     1      17.307   2.300  14.467  1.00  0.00     0.188 HD
HETATM    3  C2  UNL     1      17.115   0.906  13.106  1.00  0.00     0.091 C
HETATM    4  C3  UNL     1      17.703   1.627  11.951  1.00  0.00     0.079 C
HETATM    5  C4  UNL     1      18.257   0.489  11.130  1.00  0.00     0.027 C
HETATM    6  C5  UNL     1      17.058  -0.469  11.196  1.00  0.00     0.121 C
HETATM    7  N3  UNL     1      16.740  -0.374  12.614  1.00  0.00    -0.379 N
ATOM      8  H3  UNL     1      16.313  -1.115  13.171  1.00  0.00     0.160 HD
ENDROOT
BRANCH   1   9
HETATM    9  N1  UNL     1      16.431   0.655  15.332  1.00  0.00    -0.279 N
HETATM   10  C1  UNL     1      15.946   1.264  16.351  1.00  0.00     0.189 C
HETATM   11 CL1  UNL     1      15.239   0.405  17.702  1.00  0.00    -0.050 Cl
HETATM   12 CL2  UNL     1      15.990   3.008  16.395  1.00  0.00    -0.050 Cl
ATOM     13  H1  UNL     1      16.408  -0.364  15.300  1.00  0.00     0.189 HD
ENDBRANCH   1   9
TORSDOF 1
ENDMDL