MODEL 4
REMARK VINA RESULT: -5.491449412      1.373      2.964
REMARK  0 active torsions:
REMARK  status: ('A' for Active; 'I' for Inactive)
ROOT
HETATM    1  N1  UNL     1      16.469  -0.325  15.289  1.00  0.00    -0.096 NA
HETATM    2  C1  UNL     1      16.264   1.064  15.428  1.00  0.00     0.123 A
HETATM    3  C2  UNL     1      15.752   1.594  16.608  1.00  0.00     0.133 A
HETATM    4 CL1  UNL     1      15.383   0.470  17.886  1.00  0.00    -0.062 Cl
HETATM    5  N2  UNL     1      15.570   2.910  16.708  1.00  0.00    -0.321 N
ATOM      6  H2  UNL     1      15.194   3.286  17.578  1.00  0.00     0.169 HD
HETATM    7  C3  UNL     1      15.863   3.768  15.709  1.00  0.00     0.181 A
HETATM    8 CL2  UNL     1      15.606   5.494  15.887  1.00  0.00    -0.045 Cl
HETATM    9  N3  UNL     1      16.357   3.241  14.573  1.00  0.00    -0.321 N
ATOM     10  H3  UNL     1      16.585   3.871  13.804  1.00  0.00     0.169 HD
HETATM   11  C4  UNL     1      16.564   1.937  14.405  1.00  0.00     0.133 A
HETATM   12 CL3  UNL     1      17.212   1.257  12.914  1.00  0.00    -0.062 Cl
ENDROOT
TORSDOF 0
ENDMDL