MODEL 5
REMARK VINA RESULT: -5.366120684      1.999      2.670
REMARK  0 active torsions:
REMARK  status: ('A' for Active; 'I' for Inactive)
ROOT
HETATM    1  O1  UNL     1      17.149  -0.021  16.044  1.00  0.00    -0.265 OA
HETATM    2  C1  UNL     1      16.562   1.057  15.699  1.00  0.00     0.285 A
HETATM    3  N1  UNL     1      16.038   1.897  16.611  1.00  0.00    -0.309 N
ATOM      4  H1  UNL     1      16.107   1.675  17.605  1.00  0.00     0.170 HD
HETATM    5  C2  UNL     1      15.425   3.023  16.219  1.00  0.00     0.145 A
HETATM    6 CL1  UNL     1      14.735   4.132  17.401  1.00  0.00    -0.061 Cl
HETATM    7  C3  UNL     1      15.308   3.366  14.887  1.00  0.00     0.143 A
HETATM    8 CL2  UNL     1      14.499   4.855  14.378  1.00  0.00    -0.061 Cl
HETATM    9  N2  UNL     1      15.830   2.530  13.971  1.00  0.00    -0.330 N
ATOM     10  H2  UNL     1      15.761   2.752  12.978  1.00  0.00     0.168 HD
HETATM   11  C4  UNL     1      16.447   1.394  14.373  1.00  0.00     0.173 A
HETATM   12 CL3  UNL     1      17.142   0.277  13.190  1.00  0.00    -0.058 Cl
ENDROOT
TORSDOF 0
ENDMDL