MODEL 3
REMARK VINA RESULT: -5.192083028      2.013      3.686
REMARK  0 active torsions:
REMARK  status: ('A' for Active; 'I' for Inactive)
ROOT
HETATM    1  N1  UNL     1      16.821  -0.015  15.770  1.00  0.00    -0.378 N
ATOM      2  H11 UNL     1      16.592  -0.054  16.763  1.00  0.00     0.158 HD
ATOM      3  H12 UNL     1      17.311  -0.787  15.320  1.00  0.00     0.158 HD
HETATM    4  C1  UNL     1      16.506   1.000  15.040  1.00  0.00     0.169 A
HETATM    5  O1  UNL     1      16.805   1.051  13.739  1.00  0.00    -0.265 OA
HETATM    6  C2  UNL     1      16.487   2.082  12.993  1.00  0.00     0.225 A
HETATM    7 CL1  UNL     1      16.874   2.161  11.284  1.00  0.00    -0.037 Cl
HETATM    8  N2  UNL     1      15.840   3.114  13.563  1.00  0.00    -0.316 N
ATOM      9  H2  UNL     1      15.592   3.917  12.984  1.00  0.00     0.170 HD
HETATM   10  C3  UNL     1      15.507   3.130  14.868  1.00  0.00     0.132 A
HETATM   11 CL2  UNL     1      14.671   4.460  15.606  1.00  0.00    -0.062 Cl
HETATM   12  C4  UNL     1      15.844   2.043  15.646  1.00  0.00     0.123 A
HETATM   13 CL3  UNL     1      15.476   1.927  17.349  1.00  0.00    -0.076 Cl
ENDROOT
TORSDOF 0
ENDMDL