MODEL 5
REMARK VINA RESULT: -4.998243522      1.600      2.089
REMARK  1 active torsions:
REMARK  status: ('A' for Active; 'I' for Inactive)
REMARK    1  A    between atoms: C1_4  and  C2_6
ROOT
HETATM    1  C2  UNL     1      16.553   1.288  13.477  1.00  0.00     0.161 A
HETATM    2  O1  UNL     1      16.866   0.175  14.091  1.00  0.00    -0.232 OA
HETATM    3  N2  UNL     1      16.609   0.188  15.339  1.00  0.00    -0.247 N
ATOM      4  H2  UNL     1      16.776  -0.574  15.996  1.00  0.00     0.196 HD
HETATM    5  C3  UNL     1      16.083   1.381  15.635  1.00  0.00     0.148 A
HETATM    6 CL2  UNL     1      15.565   1.879  17.240  1.00  0.00    -0.061 Cl
HETATM    7  C4  UNL     1      16.036   2.101  14.464  1.00  0.00     0.113 A
HETATM    8 CL3  UNL     1      15.424   3.730  14.337  1.00  0.00    -0.078 Cl
ENDROOT
BRANCH   1   9
HETATM    9  C1  UNL     1      16.709   1.616  12.065  1.00  0.00     0.135 C
HETATM   10  N1  UNL     1      15.819   1.272  11.207  1.00  0.00    -0.387 N
ATOM     11  H12 UNL     1      15.928   1.502  10.219  1.00  0.00     0.157 HD
ATOM     12  H11 UNL     1      15.000   0.763  11.539  1.00  0.00     0.157 HD
HETATM   13 CL1  UNL     1      18.109   2.488  11.498  1.00  0.00    -0.062 Cl
ENDBRANCH   1   9
TORSDOF 1
ENDMDL