MODEL 5
REMARK VINA RESULT: -5.155368623      1.918      2.667
REMARK  0 active torsions:
REMARK  status: ('A' for Active; 'I' for Inactive)
ROOT
HETATM    1  N1  UNL     1      16.278   0.295  16.542  1.00  0.00    -0.073 NA
HETATM    2  C1  UNL     1      16.423   0.595  15.155  1.00  0.00     0.182 A
HETATM    3  O1  UNL     1      16.552  -0.323  14.218  1.00  0.00    -0.280 OA
HETATM    4  C2  UNL     1      16.667   0.240  13.039  1.00  0.00     0.170 A
HETATM    5 CL1  UNL     1      16.857  -0.601  11.529  1.00  0.00    -0.054 Cl
HETATM    6  C3  UNL     1      16.612   1.611  13.194  1.00  0.00     0.105 A
HETATM    7 CL2  UNL     1      16.714   2.847  11.969  1.00  0.00    -0.078 Cl
HETATM    8  C4  UNL     1      16.457   1.818  14.544  1.00  0.00     0.107 A
HETATM    9 CL3  UNL     1      16.324   3.350  15.362  1.00  0.00    -0.078 Cl
ENDROOT
TORSDOF 0
ENDMDL