MODEL 2
REMARK VINA RESULT: -3.919688984      2.108      4.146
REMARK  1 active torsions:
REMARK  status: ('A' for Active; 'I' for Inactive)
REMARK    1  A    between atoms: N1_2  and  C2_4
ROOT
HETATM    1  C2  UNL     1      16.073   2.537  15.882  1.00  0.00     0.097 A
HETATM    2  C3  UNL     1      14.949   2.623  16.636  1.00  0.00     0.138 A
HETATM    3 CL1  UNL     1      14.392   1.374  17.806  1.00  0.00    -0.061 Cl
HETATM    4  N2  UNL     1      14.203   3.716  16.493  1.00  0.00    -0.314 N
ATOM      5  H2  UNL     1      13.333   3.943  16.975  1.00  0.00     0.175 HD
HETATM    6  S1  UNL     1      15.007   4.636  15.348  1.00  0.00     0.001 SA
HETATM    7  C4  UNL     1      16.321   3.596  15.050  1.00  0.00     0.120 A
HETATM    8 CL2  UNL     1      17.693   3.801  13.941  1.00  0.00    -0.072 Cl
ENDROOT
BRANCH   1   9
HETATM    9  N1  UNL     1      16.980   1.395  15.940  1.00  0.00    -0.390 N
HETATM   10  C1  UNL     1      16.673   0.180  15.220  1.00  0.00     0.146 C
ATOM     11  H1  UNL     1      17.836   1.455  16.492  1.00  0.00     0.159 HD
ENDBRANCH   1   9
TORSDOF 1
ENDMDL