MODEL 2
REMARK VINA RESULT: -4.319949835      1.266      2.193
REMARK  1 active torsions:
REMARK  status: ('A' for Active; 'I' for Inactive)
REMARK    1  A    between atoms: S1_3  and  C2_4
ROOT
HETATM    1  N1  UNL     1      15.187  -0.083  17.561  1.00  0.00    -0.184 NA
HETATM    2  C1  UNL     1      15.651   0.726  16.881  1.00  0.00     0.139 C
HETATM    3  S1  UNL     1      16.381   1.921  15.858  1.00  0.00     0.004 SA
ENDROOT
BRANCH   3   4
HETATM    4  C2  UNL     1      15.408   3.324  15.479  1.00  0.00     0.118 C
HETATM    5 CL1  UNL     1      14.262   3.874  16.727  1.00  0.00    -0.073 Cl
HETATM    6  C3  UNL     1      15.442   4.005  14.373  1.00  0.00     0.132 C
HETATM    7 CL2  UNL     1      14.410   5.410  14.101  1.00  0.00    -0.069 Cl
HETATM    8 CL3  UNL     1      16.514   3.593  13.050  1.00  0.00    -0.069 Cl
ENDBRANCH   3   4
TORSDOF 1
ENDMDL