MODEL 1
REMARK VINA RESULT: -4.527487546      0.000      0.000
REMARK  1 active torsions:
REMARK  status: ('A' for Active; 'I' for Inactive)
REMARK    1  A    between atoms: N1_2  and  C1_4
ROOT
HETATM    1  C1  UNL     1      16.229   1.479  15.090  1.00  0.00     0.146 A
HETATM    2  N2  UNL     1      16.644   0.541  14.292  1.00  0.00    -0.325 N
ATOM      3  H2  UNL     1      16.882  -0.375  14.673  1.00  0.00     0.169 HD
HETATM    4  C2  UNL     1      16.762   0.758  13.000  1.00  0.00     0.148 A
HETATM    5 CL2  UNL     1      17.304  -0.334  11.709  1.00  0.00    -0.056 Cl
HETATM    6  S1  UNL     1      16.254   2.403  12.876  1.00  0.00    -0.044 SA
HETATM    7  C3  UNL     1      15.926   2.690  14.521  1.00  0.00     0.122 A
HETATM    8 CL3  UNL     1      15.359   4.138  15.374  1.00  0.00    -0.072 Cl
ENDROOT
BRANCH   1   9
HETATM    9  N1  UNL     1      16.088   1.272  16.514  1.00  0.00    -0.282 N
HETATM   10 CL1  UNL     1      14.506   0.992  17.160  1.00  0.00     0.012 Cl
ATOM     11  H1  UNL     1      16.903   1.290  17.126  1.00  0.00     0.182 HD
ENDBRANCH   1   9
TORSDOF 1
ENDMDL