MODEL 5
REMARK VINA RESULT: -5.011232407      3.018      3.734
REMARK  0 active torsions:
REMARK  status: ('A' for Active; 'I' for Inactive)
ROOT
HETATM    1  N1  UNL     1      16.474   0.315  16.280  1.00  0.00    -0.365 N
ATOM      2  H11 UNL     1      16.465  -0.700  16.384  1.00  0.00     0.159 HD
ATOM      3  H12 UNL     1      16.423   0.903  17.112  1.00  0.00     0.159 HD
HETATM    4  C1  UNL     1      16.549   0.862  15.099  1.00  0.00     0.224 A
HETATM    5  N2  UNL     1      16.561   2.198  14.962  1.00  0.00    -0.311 N
ATOM      6  H2  UNL     1      16.512   2.792  15.789  1.00  0.00     0.170 HD
HETATM    7  C2  UNL     1      16.639   2.760  13.736  1.00  0.00     0.132 A
HETATM    8 CL1  UNL     1      16.653   4.501  13.592  1.00  0.00    -0.062 Cl
HETATM    9  C3  UNL     1      16.709   1.971  12.607  1.00  0.00     0.118 A
HETATM   10 CL2  UNL     1      16.811   2.648  11.001  1.00  0.00    -0.077 Cl
HETATM   11  C4  UNL     1      16.693   0.599  12.810  1.00  0.00     0.173 A
HETATM   12 CL3  UNL     1      16.778  -0.448  11.400  1.00  0.00    -0.054 Cl
HETATM   13  O1  UNL     1      16.614   0.105  14.027  1.00  0.00    -0.265 OA
ENDROOT
TORSDOF 0
ENDMDL