MODEL 1
REMARK VINA RESULT: -4.655771044      0.000      0.000
REMARK  1 active torsions:
REMARK  status: ('A' for Active; 'I' for Inactive)
REMARK    1  A    between atoms: O1_2  and  C1_3
ROOT
HETATM    1  C1  UNL     1      16.427   0.973  15.256  1.00  0.00     0.193 A
HETATM    2  N1  UNL     1      16.787   0.143  14.327  1.00  0.00    -0.319 N
ATOM      3  H1  UNL     1      17.105  -0.794  14.575  1.00  0.00     0.169 HD
HETATM    4  C2  UNL     1      16.740   0.512  13.058  1.00  0.00     0.149 A
HETATM    5 CL2  UNL     1      17.181  -0.446  11.632  1.00  0.00    -0.056 Cl
HETATM    6  S1  UNL     1      16.161   2.114  13.163  1.00  0.00    -0.043 SA
HETATM    7  C3  UNL     1      16.009   2.222  14.860  1.00  0.00     0.130 A
HETATM    8 CL3  UNL     1      15.465   3.554  15.888  1.00  0.00    -0.071 Cl
ENDROOT
BRANCH   1   9
HETATM    9  O1  UNL     1      16.454   0.635  16.641  1.00  0.00    -0.220 OA
HETATM   10 CL1  UNL     1      14.965   0.500  17.459  1.00  0.00     0.069 Cl
ENDBRANCH   1   9
TORSDOF 1
ENDMDL