MODEL 1
REMARK VINA RESULT: -4.769748904      0.000      0.000
REMARK  1 active torsions:
REMARK  status: ('A' for Active; 'I' for Inactive)
REMARK    1  A    between atoms: N1_2  and  C1_4
ROOT
HETATM    1  C1  UNL     1      16.454   0.709  15.119  1.00  0.00     0.241 A
HETATM    2  N2  UNL     1      16.596   1.883  14.464  1.00  0.00    -0.308 N
ATOM      3  H2  UNL     1      16.594   2.813  14.883  1.00  0.00     0.170 HD
HETATM    4  C2  UNL     1      16.740   1.598  13.150  1.00  0.00     0.152 A
HETATM    5 CL2  UNL     1      16.956   2.772  11.869  1.00  0.00    -0.060 Cl
HETATM    6  C3  UNL     1      16.679   0.223  13.048  1.00  0.00     0.187 A
HETATM    7 CL3  UNL     1      16.819  -0.615  11.515  1.00  0.00    -0.053 Cl
HETATM    8  O1  UNL     1      16.507  -0.276  14.252  1.00  0.00    -0.263 OA
ENDROOT
BRANCH   1   9
HETATM    9  N1  UNL     1      16.278   0.559  16.518  1.00  0.00    -0.263 N
HETATM   10 CL1  UNL     1      14.743   0.840  17.257  1.00  0.00     0.014 Cl
ATOM     11  H1  UNL     1      17.071   0.282  17.096  1.00  0.00     0.184 HD
ENDBRANCH   1   9
TORSDOF 1
ENDMDL