MODEL 3
REMARK VINA RESULT: -5.221882511      1.564      3.003
REMARK  1 active torsions:
REMARK  status: ('A' for Active; 'I' for Inactive)
REMARK    1  A    between atoms: N1_1  and  C1_4
ROOT
HETATM    1  C1  UNL     1      16.430   0.917  14.576  1.00  0.00     0.187 A
HETATM    2  O1  UNL     1      16.381   0.120  15.617  1.00  0.00    -0.217 OA
HETATM    3  N2  UNL     1      15.870   0.457  16.766  1.00  0.00    -0.246 N
ATOM      4  H2  UNL     1      15.873  -0.227  17.523  1.00  0.00     0.196 HD
HETATM    5  C2  UNL     1      15.340   1.669  16.996  1.00  0.00     0.147 A
HETATM    6 CL1  UNL     1      14.671   2.054  18.568  1.00  0.00    -0.061 Cl
HETATM    7  C3  UNL     1      15.356   2.564  15.947  1.00  0.00     0.100 A
HETATM    8 CL2  UNL     1      14.679   4.152  16.199  1.00  0.00    -0.079 Cl
HETATM    9  C4  UNL     1      15.904   2.179  14.740  1.00  0.00     0.111 A
HETATM   10 CL3  UNL     1      15.931   3.301  13.404  1.00  0.00    -0.078 Cl
ENDROOT
BRANCH   1  11
HETATM   11  N1  UNL     1      16.954   0.539  13.435  1.00  0.00    -0.377 N
ATOM     12  H12 UNL     1      17.616  -0.236  13.386  1.00  0.00     0.158 HD
ATOM     13  H11 UNL     1      16.721   0.999  12.554  1.00  0.00     0.158 HD
ENDBRANCH   1  11
TORSDOF 1
ENDMDL