MODEL 4
REMARK VINA RESULT: -5.729169575      1.330      3.000
REMARK  0 active torsions:
REMARK  status: ('A' for Active; 'I' for Inactive)
ROOT
HETATM    1  C1  UNL     1      15.483   5.033  14.398  1.00  0.00     0.053 C
HETATM    2  C2  UNL     1      15.749   3.593  14.649  1.00  0.00     0.001 A
HETATM    3  C3  UNL     1      15.321   2.939  15.792  1.00  0.00     0.092 A
HETATM    4  C4  UNL     1      14.587   3.662  16.792  1.00  0.00     0.103 C
HETATM    5  N1  UNL     1      13.975   4.254  17.605  1.00  0.00    -0.191 NA
HETATM    6  C5  UNL     1      15.618   1.586  15.940  1.00  0.00     0.136 A
HETATM    7  S1  UNL     1      15.079   0.879  17.321  1.00  0.00    -0.057 SA
HETATM    8  N2  UNL     1      16.304   0.900  15.010  1.00  0.00    -0.288 N
ATOM      9  H2  UNL     1      16.513  -0.091  15.135  1.00  0.00     0.188 HD
HETATM   10  N3  UNL     1      16.697   1.544  13.938  1.00  0.00    -0.289 N
ATOM     11  H3  UNL     1      17.219   1.029  13.229  1.00  0.00     0.188 HD
HETATM   12  C6  UNL     1      16.448   2.856  13.722  1.00  0.00     0.122 A
HETATM   13  S2  UNL     1      16.959   3.624  12.363  1.00  0.00    -0.059 SA
ENDROOT
TORSDOF 0
ENDMDL