MODEL 2
REMARK VINA RESULT: -4.841823689      3.452      5.378
REMARK  0 active torsions:
REMARK  status: ('A' for Active; 'I' for Inactive)
ROOT
HETATM    1  C1  UNL     1      14.388   1.457  17.653  1.00  0.00     0.072 C
HETATM    2  C2  UNL     1      14.647   2.748  16.931  1.00  0.00     0.051 A
HETATM    3  N1  UNL     1      14.344   3.934  17.427  1.00  0.00    -0.302 N
ATOM      4  H1  UNL     1      13.910   4.097  18.335  1.00  0.00     0.186 HD
HETATM    5  N2  UNL     1      14.685   4.870  16.576  1.00  0.00    -0.292 N
ATOM      6  H2  UNL     1      14.563   5.875  16.708  1.00  0.00     0.187 HD
HETATM    7  C3  UNL     1      15.231   4.268  15.485  1.00  0.00     0.120 A
HETATM    8  S1  UNL     1      15.947   4.416  13.932  1.00  0.00    -0.039 SA
HETATM    9  C4  UNL     1      16.196   2.761  13.613  1.00  0.00     0.145 A
HETATM   10  S2  UNL     1      16.863   2.034  12.281  1.00  0.00    -0.052 SA
HETATM   11  N3  UNL     1      15.721   2.170  14.708  1.00  0.00    -0.338 N
ATOM     12  H3  UNL     1      15.740   1.154  14.800  1.00  0.00     0.167 HD
HETATM   13  C5  UNL     1      15.228   2.920  15.666  1.00  0.00     0.093 A
ENDROOT
TORSDOF 0
ENDMDL