MODEL 4
REMARK VINA RESULT: -4.650210718      2.390      4.565
REMARK  0 active torsions:
REMARK  status: ('A' for Active; 'I' for Inactive)
ROOT
HETATM    1  C1  UNL     1      17.247   0.278  11.503  1.00  0.00     0.089 C
HETATM    2  C2  UNL     1      16.707   0.906  12.766  1.00  0.00     0.079 A
HETATM    3  N1  UNL     1      16.141   2.114  12.871  1.00  0.00    -0.330 N
ATOM      4  H1  UNL     1      16.008   2.760  12.092  1.00  0.00     0.168 HD
HETATM    5  C3  UNL     1      15.762   2.371  14.164  1.00  0.00     0.142 A
HETATM    6  N2  UNL     1      15.186   3.343  14.843  1.00  0.00    -0.325 N
ATOM      7  H2  UNL     1      14.892   4.202  14.376  1.00  0.00     0.169 HD
HETATM    8  C4  UNL     1      14.994   3.181  16.149  1.00  0.00     0.146 A
HETATM    9  S1  UNL     1      14.299   4.245  17.209  1.00  0.00    -0.052 SA
HETATM   10  S2  UNL     1      15.638   1.627  16.436  1.00  0.00    -0.039 SA
HETATM   11  C5  UNL     1      16.130   1.253  14.845  1.00  0.00     0.122 A
HETATM   12  N3  UNL     1      16.702   0.367  13.993  1.00  0.00    -0.337 N
ATOM     13  H3  UNL     1      17.066  -0.552  14.244  1.00  0.00     0.168 HD
ENDROOT
TORSDOF 0
ENDMDL