MODEL 4
REMARK VINA RESULT: -5.311359853      3.663      4.831
REMARK  1 active torsions:
REMARK  status: ('A' for Active; 'I' for Inactive)
REMARK    1  A    between atoms: C2_2  and  O1_3
ROOT
HETATM    1  C1  UNL     1      17.956   4.953   9.957  1.00  0.00     0.081 C
HETATM    2  C2  UNL     1      18.786   3.943  10.683  1.00  0.00     0.185 C
HETATM    3  C3  UNL     1      18.453   3.832  12.148  1.00  0.00     0.303 C
HETATM    4  N1  UNL     1      18.725   2.418  12.399  1.00  0.00    -0.038 N
ATOM      5  H11 UNL     1      18.295   2.034  13.241  1.00  0.00     0.281 HD
ATOM      6  H12 UNL     1      19.682   2.201  12.678  1.00  0.00     0.281 HD
HETATM    7  C4  UNL     1      18.293   1.818  11.155  1.00  0.00     0.229 C
HETATM    8  C5  UNL     1      16.786   1.591  11.268  1.00  0.00     0.069 C
HETATM    9  C6  UNL     1      16.603   0.521  12.335  1.00  0.00     0.005 C
HETATM   10  C7  UNL     1      17.157  -0.798  11.849  1.00  0.00     0.000 C
HETATM   11  C8  UNL     1      17.967  -0.582  10.601  1.00  0.00     0.005 C
HETATM   12  C9  UNL     1      18.990   0.500  10.898  1.00  0.00     0.069 C
HETATM   13  O2  UNL     1      18.618   2.685  10.137  1.00  0.00    -0.316 OA
ENDROOT
BRANCH   2  14
HETATM   14  O1  UNL     1      20.146   4.311  10.601  1.00  0.00    -0.364 OA
ATOM     15  H1  UNL     1      20.687   3.543  10.739  1.00  0.00     0.213 HD
ENDBRANCH   2  14
TORSDOF 1
ENDMDL