MODEL 2
REMARK VINA RESULT: -4.855208122      1.171      1.636
REMARK  0 active torsions:
REMARK  status: ('A' for Active; 'I' for Inactive)
ROOT
HETATM    1  C1  UNL     1      14.527   3.411  17.472  1.00  0.00     0.076 C
HETATM    2  C2  UNL     1      15.063   2.997  16.122  1.00  0.00     0.050 A
HETATM    3  N1  UNL     1      15.614   1.844  15.778  1.00  0.00    -0.338 N
ATOM      4  H1  UNL     1      15.716   1.101  16.470  1.00  0.00     0.168 HD
HETATM    5  C3  UNL     1      16.025   1.656  14.561  1.00  0.00     0.142 A
HETATM    6  N2  UNL     1      16.621   0.643  13.853  1.00  0.00    -0.317 N
ATOM      7  H2  UNL     1      16.881  -0.273  14.220  1.00  0.00     0.170 HD
HETATM    8  C4  UNL     1      16.803   1.066  12.592  1.00  0.00     0.178 A
HETATM    9  S1  UNL     1      17.492   0.171  11.382  1.00  0.00    -0.040 SA
HETATM   10  N3  UNL     1      16.351   2.321  12.438  1.00  0.00    -0.324 N
ATOM     11  H3  UNL     1      16.364   2.885  11.588  1.00  0.00     0.169 HD
HETATM   12  C5  UNL     1      15.868   2.681  13.668  1.00  0.00     0.122 A
HETATM   13  S2  UNL     1      15.127   3.867  14.653  1.00  0.00    -0.056 SA
ENDROOT
TORSDOF 0
ENDMDL