MODEL 4
REMARK VINA RESULT: -4.846694155      2.680      3.860
REMARK  1 active torsions:
REMARK  status: ('A' for Active; 'I' for Inactive)
REMARK    1  A    between atoms: C9_10  and  C10_11
ROOT
HETATM    1  C1  UNL     1      15.450   2.187  15.389  1.00  0.00     0.080 C
HETATM    2  C2  UNL     1      16.117   3.100  14.442  1.00  0.00     0.171 C
HETATM    3  O1  UNL     1      15.733   2.926  13.107  1.00  0.00    -0.342 OA
HETATM    4  C3  UNL     1      16.888   3.058  12.343  1.00  0.00     0.088 C
HETATM    5  C4  UNL     1      17.440   1.662  12.152  1.00  0.00     0.049 C
HETATM    6  C5  UNL     1      16.697   3.765  11.056  1.00  0.00     0.049 C
HETATM    7  C6  UNL     1      17.766   3.811  13.328  1.00  0.00     0.092 C
HETATM    8  C7  UNL     1      19.175   3.914  12.948  1.00  0.00     0.049 C
HETATM    9  C8  UNL     1      17.122   5.079  13.812  1.00  0.00     0.056 C
HETATM   10  C9  UNL     1      16.044   4.554  14.774  1.00  0.00     0.088 C
HETATM   11  O2  UNL     1      17.531   2.953  14.434  1.00  0.00    -0.341 OA
ENDROOT
BRANCH  10  12
HETATM   12  C10 UNL     1      14.760   5.189  14.547  1.00  0.00     0.063 C
HETATM   13  N1  UNL     1      14.515   5.763  13.437  1.00  0.00    -0.410 N
ATOM     14  H12 UNL     1      15.235   5.766  12.715  1.00  0.00     0.155 HD
ATOM     15  H11 UNL     1      13.612   6.210  13.277  1.00  0.00     0.155 HD
ENDBRANCH  10  12
TORSDOF 1
ENDMDL