MODEL 5
REMARK VINA RESULT: -5.017916916      2.212      4.664
REMARK  0 active torsions:
REMARK  status: ('A' for Active; 'I' for Inactive)
ROOT
HETATM    1  C1  UNL     1      16.933   0.183  11.549  1.00  0.00     0.070 C
HETATM    2  C2  UNL     1      16.673   1.142  12.627  1.00  0.00     0.031 A
HETATM    3  N1  UNL     1      16.451   0.814  13.913  1.00  0.00    -0.336 N
ATOM      4  H1  UNL     1      16.460  -0.170  14.185  1.00  0.00     0.168 HD
HETATM    5  C3  UNL     1      16.219   1.751  14.849  1.00  0.00     0.177 A
HETATM    6  S1  UNL     1      15.962   1.267  16.377  1.00  0.00    -0.040 SA
HETATM    7  N2  UNL     1      16.189   3.071  14.587  1.00  0.00    -0.323 N
ATOM      8  H2  UNL     1      16.011   3.758  15.319  1.00  0.00     0.169 HD
HETATM    9  C4  UNL     1      16.407   3.441  13.308  1.00  0.00     0.125 A
HETATM   10  S2  UNL     1      16.380   5.042  12.937  1.00  0.00    -0.059 SA
HETATM   11  C5  UNL     1      16.648   2.501  12.326  1.00  0.00     0.104 A
HETATM   12  C6  UNL     1      16.874   2.914  10.990  1.00  0.00     0.104 C
HETATM   13  N3  UNL     1      17.067   3.251   9.917  1.00  0.00    -0.191 NA
ENDROOT
TORSDOF 0
ENDMDL