MODEL 3
REMARK VINA RESULT: -4.985334850      1.290      2.724
REMARK  0 active torsions:
REMARK  status: ('A' for Active; 'I' for Inactive)
ROOT
HETATM    1  S1  UNL     1      17.749   2.018  11.282  1.00  0.00    -0.052 SA
HETATM    2  C1  UNL     1      17.014   2.341  12.719  1.00  0.00     0.145 A
HETATM    3  N1  UNL     1      16.667   1.506  13.689  1.00  0.00    -0.343 N
ATOM      4  H1  UNL     1      16.850   0.507  13.597  1.00  0.00     0.167 HD
HETATM    5  C2  UNL     1      16.086   1.973  14.765  1.00  0.00     0.044 A
HETATM    6  C3  UNL     1      15.862   3.322  14.836  1.00  0.00     0.095 A
HETATM    7  S2  UNL     1      16.513   3.855  13.322  1.00  0.00    -0.041 SA
HETATM    8  N2  UNL     1      15.276   4.141  15.833  1.00  0.00    -0.383 N
ATOM      9  H2  UNL     1      15.613   5.104  15.846  1.00  0.00     0.160 HD
HETATM   10  C4  UNL     1      14.301   3.841  16.813  1.00  0.00     0.120 C
HETATM   11  C5  UNL     1      14.252   2.441  17.312  1.00  0.00     0.020 C
HETATM   12  C6  UNL     1      15.591   1.782  17.178  1.00  0.00     0.008 C
HETATM   13  C7  UNL     1      15.685   1.014  15.890  1.00  0.00     0.060 C
ENDROOT
TORSDOF 0
ENDMDL