MODEL 4
REMARK VINA RESULT: -4.604358119      2.194      2.911
REMARK  0 active torsions:
REMARK  status: ('A' for Active; 'I' for Inactive)
ROOT
HETATM    1  S1  UNL     1      17.008  -0.093  11.807  1.00  0.00    -0.052 SA
HETATM    2  C1  UNL     1      16.727   1.279  12.703  1.00  0.00     0.144 A
HETATM    3  N1  UNL     1      16.292   1.337  13.961  1.00  0.00    -0.327 N
ATOM      4  H1  UNL     1      16.090   0.487  14.489  1.00  0.00     0.169 HD
HETATM    5  C2  UNL     1      16.129   2.531  14.503  1.00  0.00     0.116 A
HETATM    6  C3  UNL     1      16.420   3.616  13.733  1.00  0.00     0.029 A
HETATM    7  S2  UNL     1      16.913   2.913  12.266  1.00  0.00    -0.061 SA
HETATM    8  C4  UNL     1      16.255   5.004  14.301  1.00  0.00     0.052 C
HETATM    9  C5  UNL     1      14.870   5.051  14.960  1.00  0.00     0.025 C
HETATM   10  C6  UNL     1      14.852   4.058  16.071  1.00  0.00     0.121 C
HETATM   11  N2  UNL     1      15.669   2.884  15.843  1.00  0.00    -0.375 N
ATOM     12  H2  UNL     1      15.927   2.293  16.632  1.00  0.00     0.161 HD
ENDROOT
TORSDOF 0
ENDMDL