MODEL 4
REMARK VINA RESULT: -6.268922315      1.951      2.726
REMARK  0 active torsions:
REMARK  status: ('A' for Active; 'I' for Inactive)
ROOT
HETATM    1  C1  UNL     1      15.302   5.384  14.756  1.00  0.00     0.070 C
HETATM    2  C2  UNL     1      15.098   4.249  15.752  1.00  0.00     0.025 A
HETATM    3  N1  UNL     1      14.466   4.513  16.893  1.00  0.00    -0.329 N
ATOM      4  H1  UNL     1      14.086   5.408  17.203  1.00  0.00     0.174 HD
HETATM    5  S1  UNL     1      14.435   3.045  17.709  1.00  0.00    -0.010 SA
HETATM    6  C3  UNL     1      15.247   2.087  16.558  1.00  0.00     0.076 A
HETATM    7  C4  UNL     1      15.717   0.811  16.262  1.00  0.00     0.136 A
HETATM    8  N2  UNL     1      15.568  -0.294  17.129  1.00  0.00    -0.081 NA
HETATM    9  N3  UNL     1      16.277   0.920  15.074  1.00  0.00    -0.346 N
ATOM     10  H3  UNL     1      16.718   0.147  14.576  1.00  0.00     0.167 HD
HETATM   11  C5  UNL     1      16.193   2.181  14.598  1.00  0.00     0.020 A
HETATM   12  C6  UNL     1      16.727   2.631  13.288  1.00  0.00     0.069 C
HETATM   13  C7  UNL     1      15.518   2.966  15.560  1.00  0.00     0.031 A
ENDROOT
TORSDOF 0
ENDMDL