MODEL 5
REMARK VINA RESULT: -3.900122228      1.443      2.527
REMARK  0 active torsions:
REMARK  status: ('A' for Active; 'I' for Inactive)
ROOT
HETATM    1  C1  UNL     1      14.292   2.954  16.704  1.00  0.00     0.002 C
HETATM    2  C2  UNL     1      14.967   3.138  15.356  1.00  0.00     0.017 C
HETATM    3  C3  UNL     1      16.474   3.137  15.488  1.00  0.00     0.122 C
HETATM    4  N1  UNL     1      17.076   1.906  15.067  1.00  0.00    -0.179 NA
HETATM    5  S1  UNL     1      16.376   0.487  15.781  1.00  0.00    -0.066 SA
HETATM    6  C4  UNL     1      15.462   0.895  17.286  1.00  0.00     0.092 C
HETATM    7  C5  UNL     1      14.101   1.476  16.985  1.00  0.00     0.012 C
ENDROOT
TORSDOF 0
ENDMDL