MODEL 5
REMARK VINA RESULT: -4.492244016      1.048      2.358
REMARK  1 active torsions:
REMARK  status: ('A' for Active; 'I' for Inactive)
REMARK    1  A    between atoms: O1_1  and  C1_3
ROOT
HETATM    1  C1  UNL     1      16.554   2.179  15.825  1.00  0.00     0.118 C
HETATM    2  C2  UNL     1      15.277   2.940  15.576  1.00  0.00     0.032 C
HETATM    3  C3  UNL     1      14.426   3.058  16.822  1.00  0.00     0.002 C
HETATM    4  C4  UNL     1      13.476   1.898  16.830  1.00  0.00     0.000 C
HETATM    5  C5  UNL     1      14.031   0.643  17.393  1.00  0.00     0.000 C
HETATM    6  C6  UNL     1      15.531   0.585  17.431  1.00  0.00     0.002 C
HETATM    7  C7  UNL     1      16.180   0.739  16.093  1.00  0.00     0.032 C
ENDROOT
BRANCH   1   8
HETATM    8  O1  UNL     1      17.300   2.223  14.651  1.00  0.00    -0.396 OA
ATOM      9  H1  UNL     1      16.724   2.528  13.960  1.00  0.00     0.210 HD
ENDBRANCH   1   8
TORSDOF 1
ENDMDL