MODEL 3
REMARK VINA RESULT: -3.837276312      4.774      5.512
REMARK  1 active torsions:
REMARK  status: ('A' for Active; 'I' for Inactive)
REMARK    1  A    between atoms: O1_1  and  C1_3
ROOT
HETATM    1  C1  UNL     1      16.867  -0.534  12.116  1.00  0.00     0.179 C
HETATM    2  C2  UNL     1      18.252  -0.788  11.565  1.00  0.00     0.042 C
HETATM    3  C3  UNL     1      18.750   0.339  10.706  1.00  0.00     0.004 C
HETATM    4  C4  UNL     1      18.959   1.614  11.470  1.00  0.00     0.010 C
HETATM    5  C5  UNL     1      17.685   2.213  11.963  1.00  0.00     0.076 C
HETATM    6  S1  UNL     1      16.329   1.090  11.444  1.00  0.00    -0.138 SA
ENDROOT
BRANCH   1   7
HETATM    7  O1  UNL     1      16.903  -0.328  13.514  1.00  0.00    -0.385 OA
ATOM      8  H1  UNL     1      16.046  -0.086  13.848  1.00  0.00     0.211 HD
ENDBRANCH   1   7
TORSDOF 1
ENDMDL