MODEL 5
REMARK VINA RESULT: -3.741789150      5.890      6.221
REMARK  1 active torsions:
REMARK  status: ('A' for Active; 'I' for Inactive)
REMARK    1  A    between atoms: O1_1  and  C1_3
ROOT
HETATM    1  C1  UNL     1      19.283   1.368  11.081  1.00  0.00     0.127 C
HETATM    2  C2  UNL     1      18.764  -0.021  11.373  1.00  0.00     0.033 C
HETATM    3  C3  UNL     1      17.674  -0.364  10.383  1.00  0.00     0.013 C
HETATM    4  C4  UNL     1      16.366   0.113  11.030  1.00  0.00     0.074 C
HETATM    5  S1  UNL     1      16.573   1.878  11.323  1.00  0.00    -0.167 SA
HETATM    6  C5  UNL     1      18.259   2.436  11.219  1.00  0.00     0.105 C
ENDROOT
BRANCH   1   7
HETATM    7  O1  UNL     1      19.851   1.312   9.792  1.00  0.00    -0.395 OA
ATOM      8  H1  UNL     1      19.998   2.212   9.529  1.00  0.00     0.210 HD
ENDBRANCH   1   7
TORSDOF 1
ENDMDL