MODEL 5
REMARK VINA RESULT: -4.016520081      5.087      6.062
REMARK  1 active torsions:
REMARK  status: ('A' for Active; 'I' for Inactive)
REMARK    1  A    between atoms: O1_1  and  C1_3
ROOT
HETATM    1  C1  UNL     1      16.719   2.126  10.859  1.00  0.00     0.179 C
HETATM    2  C2  UNL     1      15.933   1.653  12.084  1.00  0.00     0.042 C
HETATM    3  C3  UNL     1      16.854   0.640  12.777  1.00  0.00     0.003 C
HETATM    4  C4  UNL     1      17.108  -0.442  11.793  1.00  0.00     0.001 C
HETATM    5  C5  UNL     1      18.519  -0.631  11.391  1.00  0.00     0.010 C
HETATM    6  C6  UNL     1      19.288   0.586  11.068  1.00  0.00     0.076 C
HETATM    7  S1  UNL     1      18.449   2.133  11.287  1.00  0.00    -0.138 SA
ENDROOT
BRANCH   1   8
HETATM    8  O1  UNL     1      16.323   3.469  10.665  1.00  0.00    -0.385 OA
ATOM      9  H1  UNL     1      16.482   3.897  11.498  1.00  0.00     0.211 HD
ENDBRANCH   1   8
TORSDOF 1
ENDMDL