MODEL 3
REMARK VINA RESULT: -4.443322837      4.570      5.763
REMARK  1 active torsions:
REMARK  status: ('A' for Active; 'I' for Inactive)
REMARK    1  A    between atoms: N1_1  and  N2_4
ROOT
HETATM    1  N2  UNL     1      18.889   2.770  12.174  1.00  0.00    -0.293 N
HETATM    2  C1  UNL     1      18.894   2.018  10.985  1.00  0.00     0.087 C
HETATM    3  C2  UNL     1      19.148   0.557  11.148  1.00  0.00     0.046 C
HETATM    4  C3  UNL     1      18.006  -0.312  10.731  1.00  0.00     0.005 C
HETATM    5  C4  UNL     1      16.713  -0.024  11.374  1.00  0.00     0.001 C
HETATM    6  C5  UNL     1      16.764   0.666  12.686  1.00  0.00     0.005 C
HETATM    7  C6  UNL     1      16.523   2.147  12.454  1.00  0.00     0.046 C
HETATM    8  C7  UNL     1      17.697   2.969  12.863  1.00  0.00     0.087 C
ENDROOT
BRANCH   1   9
HETATM    9  N1  UNL     1      20.066   2.970  12.811  1.00  0.00    -0.340 N
ATOM     10  H12 UNL     1      20.743   2.209  12.862  1.00  0.00     0.177 HD
ATOM     11  H11 UNL     1      20.365   3.930  12.982  1.00  0.00     0.177 HD
ENDBRANCH   1   9
TORSDOF 1
ENDMDL