MODEL 4
REMARK VINA RESULT: -5.009547915      3.479      4.363
REMARK  0 active torsions:
REMARK  status: ('A' for Active; 'I' for Inactive)
ROOT
HETATM    1  N1  UNL     1      17.112   0.064  16.190  1.00  0.00    -0.197 NA
HETATM    2  C1  UNL     1      16.864   1.171  15.996  1.00  0.00     0.066 C
HETATM    3  C2  UNL     1      16.555   2.557  15.759  1.00  0.00     0.125 C
HETATM    4  C3  UNL     1      15.040   2.771  15.766  1.00  0.00     0.054 C
HETATM    5  C4  UNL     1      14.931   3.854  14.719  1.00  0.00     0.187 C
HETATM    6  C5  UNL     1      15.846   5.004  15.045  1.00  0.00     0.035 C
HETATM    7  C6  UNL     1      17.236   4.564  14.579  1.00  0.00     0.036 C
HETATM    8  C7  UNL     1      16.954   3.068  14.416  1.00  0.00     0.204 C
HETATM    9  N2  UNL     1      15.700   3.190  13.647  1.00  0.00    -0.065 N
ATOM     10  H21 UNL     1      15.747   3.657  12.741  1.00  0.00     0.278 HD
ATOM     11  H22 UNL     1      15.309   2.339  13.244  1.00  0.00     0.278 HD
ENDROOT
TORSDOF 0
ENDMDL