MODEL 5
REMARK VINA RESULT: -3.131156451      1.045      1.335
REMARK  0 active torsions:
REMARK  status: ('A' for Active; 'I' for Inactive)
ROOT
HETATM    1  C1  UNL     1      13.914   2.354  16.775  1.00  0.00     0.012 C
HETATM    2  C2  UNL     1      14.605   1.645  17.894  1.00  0.00     0.012 C
HETATM    3  C3  UNL     1      15.390   0.455  17.477  1.00  0.00     0.086 C
HETATM    4  S1  UNL     1      16.323   0.658  15.969  1.00  0.00    -0.098 SA
HETATM    5  S2  UNL     1      15.920   2.520  15.006  1.00  0.00    -0.098 SA
HETATM    6  C4  UNL     1      14.787   3.426  16.131  1.00  0.00     0.086 C
ENDROOT
TORSDOF 0
ENDMDL