MODEL 3
REMARK VINA RESULT: -5.004544542      1.198      1.934
REMARK  1 active torsions:
REMARK  status: ('A' for Active; 'I' for Inactive)
REMARK    1  A    between atoms: N1_1  and  C1_5
ROOT
HETATM    1  C1  UNL     1      15.175   0.975  16.867  1.00  0.00     0.184 C
HETATM    2  C2  UNL     1      14.613   1.981  17.768  1.00  0.00     0.044 C
HETATM    3  C3  UNL     1      13.975   3.247  17.102  1.00  0.00     0.082 C
HETATM    4  C4  UNL     1      14.816   3.518  16.010  1.00  0.00    -0.183 C
HETATM    5  C5  UNL     1      15.349   4.063  14.831  1.00  0.00     0.080 C
HETATM    6  C6  UNL     1      16.581   3.153  14.507  1.00  0.00     0.011 C
HETATM    7  C7  UNL     1      16.427   1.724  14.810  1.00  0.00     0.003 C
HETATM    8  C8  UNL     1      16.534   1.173  16.207  1.00  0.00     0.033 C
ENDROOT
BRANCH   1   9
HETATM    9  N1  UNL     1      15.282  -0.247  17.707  1.00  0.00    -0.075 N
ATOM     10  H13 UNL     1      15.537  -1.089  17.190  1.00  0.00     0.274 HD
ATOM     11  H12 UNL     1      16.085  -0.254  18.335  1.00  0.00     0.274 HD
ATOM     12  H11 UNL     1      14.381  -0.304  18.181  1.00  0.00     0.274 HD
ENDBRANCH   1   9
TORSDOF 1
ENDMDL