MODEL 3
REMARK VINA RESULT: -5.158294668      1.378      1.852
REMARK  1 active torsions:
REMARK  status: ('A' for Active; 'I' for Inactive)
REMARK    1  A    between atoms: O1_1  and  N1_3
ROOT
HETATM    1  N1  UNL     1      15.567   0.506  17.311  1.00  0.00    -0.200 NA
HETATM    2  C1  UNL     1      14.393   1.283  17.152  1.00  0.00     0.120 C
HETATM    3  C2  UNL     1      14.647   2.770  17.249  1.00  0.00     0.017 C
HETATM    4  C3  UNL     1      14.371   3.366  15.904  1.00  0.00     0.001 C
HETATM    5  C4  UNL     1      15.585   3.854  15.212  1.00  0.00     0.000 C
HETATM    6  C5  UNL     1      16.710   2.897  15.114  1.00  0.00     0.001 C
HETATM    7  C6  UNL     1      16.312   1.448  15.160  1.00  0.00     0.017 C
HETATM    8  C7  UNL     1      16.658   0.812  16.471  1.00  0.00     0.120 C
ENDROOT
BRANCH   1   9
HETATM    9  O1  UNL     1      15.224  -0.801  17.348  1.00  0.00    -0.313 OA
ATOM     10  H1  UNL     1      15.697  -1.221  18.056  1.00  0.00     0.237 HD
ENDBRANCH   1   9
TORSDOF 1
ENDMDL