MODEL 3
REMARK VINA RESULT: -5.780538257      0.045      1.042
REMARK  5 active torsions:
REMARK  status: ('A' for Active; 'I' for Inactive)
REMARK    1  A    between atoms: C2_2  and  C5_5
REMARK    2  A    between atoms: C7_8  and  O2_9
REMARK    3  A    between atoms: C8_11  and  N1_12
REMARK    4  A    between atoms: N1_12  and  C9_14
REMARK    5  A    between atoms: C9_14  and  C10_18
ROOT
HETATM    1  C5  UNL     1     -11.511  12.934  -9.023  1.00  0.00     0.089 A
HETATM    2  O1  UNL     1     -12.763  13.160  -8.680  1.00  0.00    -0.321 OA
HETATM    3  C6  UNL     1     -13.015  14.428  -8.561  1.00  0.00     0.181 A
HETATM    4  C7  UNL     1     -11.851  15.111  -8.843  1.00  0.00     0.117 A
HETATM    5  C8  UNL     1     -10.922  14.149  -9.131  1.00  0.00     0.099 A
ENDROOT
BRANCH   5   6
HETATM    6  N1  UNL     1      -9.576  14.407  -9.478  1.00  0.00    -0.342 N
ATOM      7  H1  UNL     1      -8.857  14.168  -8.795  1.00  0.00     0.167 HD
BRANCH   6   8
HETATM    8  C9  UNL     1      -9.151  14.973 -10.705  1.00  0.00     0.079 C
HETATM    9  N2  UNL     1      -9.051  16.251 -10.778  1.00  0.00    -0.389 N
ATOM     10  H22 UNL     1      -9.281  16.808  -9.955  1.00  0.00     0.157 HD
ATOM     11  H21 UNL     1      -8.745  16.659 -11.661  1.00  0.00     0.157 HD
BRANCH   8  12
HETATM   12  C10 UNL     1      -8.819  14.167 -11.896  1.00  0.00     0.053 A
HETATM   13  C11 UNL     1      -7.855  13.027 -11.709  1.00  0.00     0.013 A
HETATM   14  C12 UNL     1      -7.479  14.212 -12.528  1.00  0.00     0.013 A
ENDBRANCH   8  12
ENDBRANCH   6   8
ENDBRANCH   5   6
BRANCH   1  15
HETATM   15  C2  UNL     1     -10.971  11.568  -9.223  1.00  0.00     0.001 C
HETATM   16  C1  UNL     1     -10.832  11.218 -10.685  1.00  0.00     0.021 C
HETATM   17  C3  UNL     1      -9.639  11.429  -8.546  1.00  0.00     0.021 C
HETATM   18  C4  UNL     1     -11.892  10.535  -8.620  1.00  0.00     0.021 C
ENDBRANCH   1  15
BRANCH   4  19
HETATM   19  O2  UNL     1     -11.675  16.511  -8.833  1.00  0.00    -0.357 OA
ATOM     20  H2  UNL     1     -10.869  16.981  -9.011  1.00  0.00     0.218 HD
ENDBRANCH   4  19
TORSDOF 5
ENDMDL