MODEL 5
REMARK VINA RESULT: -5.864834103      1.749      4.689
REMARK  4 active torsions:
REMARK  status: ('A' for Active; 'I' for Inactive)
REMARK    1  A    between atoms: C3_5  and  O1_6
REMARK    2  A    between atoms: C4_8  and  C5_9
REMARK    3  A    between atoms: C11_18  and  N3_19
REMARK    4  A    between atoms: N3_19  and  O2_21
ROOT
HETATM    1  C1  UNL     1      -8.694  13.973 -12.320  1.00  0.00     0.070 C
HETATM    2  C2  UNL     1      -9.308  13.901 -10.969  1.00  0.00     0.036 A
HETATM    3  N1  UNL     1     -10.051  14.844 -10.344  1.00  0.00    -0.338 N
ATOM      4  H1  UNL     1     -10.284  15.761 -10.725  1.00  0.00     0.168 HD
HETATM    5  C3  UNL     1     -10.432  14.383  -9.144  1.00  0.00     0.151 A
HETATM    6  C4  UNL     1      -9.904  13.089  -9.001  1.00  0.00     0.054 A
HETATM    7  C11 UNL     1      -9.197  12.782 -10.139  1.00  0.00     0.089 A
ENDROOT
BRANCH   6   8
HETATM    8  C5  UNL     1     -10.056  12.207  -7.802  1.00  0.00     0.225 C
HETATM    9  C6  UNL     1      -9.182  10.999  -7.852  1.00  0.00     0.038 C
HETATM   10  C7  UNL     1      -9.769   9.940  -6.933  1.00  0.00     0.002 C
HETATM   11  C8  UNL     1     -10.678   8.998  -7.640  1.00  0.00     0.002 C
HETATM   12  C9  UNL     1     -12.026   9.552  -7.997  1.00  0.00     0.027 C
HETATM   13  C10 UNL     1     -11.967  10.947  -8.531  1.00  0.00     0.233 C
HETATM   14  N2  UNL     1     -11.435  11.893  -7.599  1.00  0.00    -0.067 N
ATOM     15  H22 UNL     1     -11.592  11.577  -6.642  1.00  0.00     0.277 HD
ATOM     16  H21 UNL     1     -11.997  12.745  -7.597  1.00  0.00     0.277 HD
ENDBRANCH   6   8
BRANCH   5  17
HETATM   17  O1  UNL     1     -11.203  15.049  -8.203  1.00  0.00    -0.346 OA
ATOM     18  H1  UNL     1     -11.991  15.554  -8.367  1.00  0.00     0.219 HD
ENDBRANCH   5  17
BRANCH   7  19
HETATM   19  N3  UNL     1      -8.481  11.608 -10.474  1.00  0.00    -0.267 N
ATOM     20  H3  UNL     1      -8.994  10.768 -10.744  1.00  0.00     0.194 HD
BRANCH  19  21
HETATM   21  O2  UNL     1      -7.219  11.581 -10.446  1.00  0.00    -0.289 OA
ATOM     22  H2  UNL     1      -6.749  10.787 -10.219  1.00  0.00     0.244 HD
ENDBRANCH  19  21
ENDBRANCH   7  19
TORSDOF 4
ENDMDL