MODEL 4
REMARK VINA RESULT: -5.779327127      5.987      7.663
REMARK  2 active torsions:
REMARK  status: ('A' for Active; 'I' for Inactive)
REMARK    1  A    between atoms: C2_7  and  C3_8
REMARK    2  A    between atoms: C3_8  and  C4_9
ROOT
HETATM    1  S1  UNL     1      -8.132  14.349 -12.229  1.00  0.00    -0.039 SA
HETATM    2  C1  UNL     1      -8.951  14.142 -10.820  1.00  0.00     0.192 A
HETATM    3  N1  UNL     1      -9.761  15.021 -10.208  1.00  0.00    -0.275 N
ATOM      4  H1  UNL     1      -9.975  15.957 -10.554  1.00  0.00     0.189 HD
HETATM    5  N2  UNL     1     -10.239  14.501  -9.098  1.00  0.00    -0.287 N
ATOM      6  H2  UNL     1     -10.875  14.962  -8.448  1.00  0.00     0.188 HD
HETATM    7  C2  UNL     1      -9.735  13.239  -8.966  1.00  0.00     0.098 A
HETATM    8  N3  UNL     1      -8.956  13.055 -10.030  1.00  0.00    -0.321 N
ATOM      9  H3  UNL     1      -8.431  12.201 -10.221  1.00  0.00     0.169 HD
ENDROOT
BRANCH   7  10
HETATM   10  C3  UNL     1     -10.027  12.325  -7.830  1.00  0.00     0.082 C
BRANCH  10  11
HETATM   11  C4  UNL     1     -10.334  10.948  -8.348  1.00  0.00    -0.007 C
HETATM   12  C5  UNL     1     -11.827  10.757  -8.220  1.00  0.00     0.005 C
HETATM   13  C6  UNL     1     -12.244   9.386  -8.685  1.00  0.00     0.000 C
HETATM   14  C7  UNL     1     -12.777   8.617  -7.504  1.00  0.00     0.000 C
HETATM   15  C8  UNL     1     -11.578   7.962  -6.802  1.00  0.00     0.000 C
HETATM   16  C9  UNL     1     -10.948   8.862  -5.821  1.00  0.00     0.000 C
HETATM   17  C10 UNL     1      -9.810   9.688  -6.237  1.00  0.00     0.000 C
HETATM   18  C11 UNL     1      -9.544   9.868  -7.687  1.00  0.00     0.005 C
ENDBRANCH  10  11
ENDBRANCH   7  10
TORSDOF 2
ENDMDL