MODEL 5
REMARK VINA RESULT: -5.965895450      1.153      2.732
REMARK  4 active torsions:
REMARK  status: ('A' for Active; 'I' for Inactive)
REMARK    1  A    between atoms: C10_10  and  C12_12
REMARK    2  A    between atoms: C12_12  and  C13_13
REMARK    3  A    between atoms: C13_13  and  O1_14
REMARK    4  A    between atoms: N1_16  and  O2_18
ROOT
HETATM    1  C1  UNL     1     -11.370   9.093  -7.536  1.00  0.00     0.014 C
HETATM    2  C2  UNL     1     -10.793  10.092  -8.171  1.00  0.00    -0.085 C
HETATM    3  C3  UNL     1      -9.411  10.424  -7.757  1.00  0.00     0.034 C
HETATM    4  C4  UNL     1      -9.191  11.901  -7.594  1.00  0.00     0.009 C
HETATM    5  C5  UNL     1      -9.701  12.740  -8.739  1.00  0.00    -0.006 C
HETATM    6  C6  UNL     1      -9.513  12.002 -10.029  1.00  0.00     0.006 C
HETATM    7  C7  UNL     1     -10.647  11.098 -10.410  1.00  0.00     0.009 C
HETATM    8  C8  UNL     1     -11.539  10.815  -9.241  1.00  0.00     0.014 C
HETATM    9  C9  UNL     1     -12.113  12.076  -8.697  1.00  0.00     0.019 C
HETATM   10  C10 UNL     1     -11.095  13.215  -8.570  1.00  0.00    -0.033 C
HETATM   11  C11 UNL     1     -11.302  13.799  -7.184  1.00  0.00     0.016 C
ENDROOT
BRANCH  10  12
HETATM   12  C12 UNL     1     -11.487  14.235  -9.573  1.00  0.00     0.095 C
BRANCH  12  13
HETATM   13  C13 UNL     1     -10.816  15.523  -9.552  1.00  0.00     0.135 C
HETATM   14  N1  UNL     1      -9.657  15.638 -10.101  1.00  0.00    -0.251 N
ATOM     15  H1  UNL     1      -9.230  14.823 -10.540  1.00  0.00     0.196 HD
BRANCH  13  16
HETATM   16  O1  UNL     1     -11.348  16.659  -8.970  1.00  0.00    -0.348 OA
ATOM     17  H1  UNL     1     -10.946  17.518  -9.023  1.00  0.00     0.219 HD
ENDBRANCH  13  16
BRANCH  14  18
HETATM   18  O2  UNL     1      -8.995  16.815 -10.106  1.00  0.00    -0.288 OA
ATOM     19  H2  UNL     1      -8.432  17.069  -9.385  1.00  0.00     0.244 HD
ENDBRANCH  14  18
ENDBRANCH  12  13
ENDBRANCH  10  12
TORSDOF 4
ENDMDL