MODEL 4
REMARK VINA RESULT: -6.212087441      1.940      6.131
REMARK  2 active torsions:
REMARK  status: ('A' for Active; 'I' for Inactive)
REMARK    1  A    between atoms: C8_11  and  N2_12
REMARK    2  A    between atoms: N2_12  and  C9_14
ROOT
HETATM    1  N1  UNL     1     -14.452   8.117  -7.826  1.00  0.00    -0.406 N
ATOM      2  H11 UNL     1     -15.361   8.484  -7.544  1.00  0.00     0.155 HD
ATOM      3  H12 UNL     1     -14.272   7.173  -8.167  1.00  0.00     0.155 HD
HETATM    4  C1  UNL     1     -13.444   8.922  -7.743  1.00  0.00    -0.020 C
HETATM    5  C2  UNL     1     -12.127   8.391  -8.152  1.00  0.00     0.056 C
HETATM    6  C3  UNL     1     -11.119   9.542  -8.043  1.00  0.00    -0.007 C
HETATM    7  C4  UNL     1     -11.300  10.083  -6.647  1.00  0.00     0.010 C
HETATM    8  C5  UNL     1     -12.523  10.969  -6.662  1.00  0.00    -0.007 C
HETATM    9  C6  UNL     1     -13.703  10.278  -7.252  1.00  0.00     0.056 C
HETATM   10  C7  UNL     1     -12.138  12.234  -7.419  1.00  0.00     0.030 C
HETATM   11  C8  UNL     1     -11.399  11.956  -8.679  1.00  0.00     0.100 C
HETATM   12  C13 UNL     1     -11.454  10.519  -9.117  1.00  0.00     0.030 C
ENDROOT
BRANCH  11  13
HETATM   13  N2  UNL     1     -10.010  12.347  -8.626  1.00  0.00    -0.222 N
ATOM     14  H2  UNL     1      -9.545  12.338  -7.718  1.00  0.00     0.178 HD
BRANCH  13  15
HETATM   15  C9  UNL     1      -9.251  12.742  -9.755  1.00  0.00     0.670 C
HETATM   16  N3  UNL     1      -9.483  13.888 -10.331  1.00  0.00    -0.227 N
HETATM   17  C10 UNL     1      -8.734  14.339 -11.490  1.00  0.00     0.139 C
ATOM     18  H3  UNL     1     -10.216  14.489  -9.953  1.00  0.00     0.177 HD
HETATM   19  C11 UNL     1      -8.415  13.077 -12.296  1.00  0.00     0.040 C
HETATM   20  C12 UNL     1      -7.517  12.234 -11.415  1.00  0.00     0.139 C
HETATM   21  N4  UNL     1      -8.257  11.881 -10.233  1.00  0.00    -0.227 N
ATOM     22  H4  UNL     1      -8.058  11.007  -9.745  1.00  0.00     0.177 HD
ENDBRANCH  13  15
ENDBRANCH  11  13
TORSDOF 2
ENDMDL