MODEL 3
REMARK VINA RESULT: -6.095932366      2.748      4.145
REMARK  5 active torsions:
REMARK  status: ('A' for Active; 'I' for Inactive)
REMARK    1  A    between atoms: C2_2  and  C3_3
REMARK    2  A    between atoms: C2_2  and  C5_11
REMARK    3  A    between atoms: C3_3  and  C4_4
REMARK    4  A    between atoms: C4_4  and  O1_5
REMARK    5  A    between atoms: N1_7  and  O2_9
ROOT
HETATM    1  C5  UNL     1     -12.004  13.501  -8.893  1.00  0.00    -0.006 C
HETATM    2  C6  UNL     1     -11.259  13.494  -7.551  1.00  0.00     0.006 C
HETATM    3  C7  UNL     1      -9.972  12.732  -7.831  1.00  0.00     0.011 C
HETATM    4  C8  UNL     1      -9.718  13.218  -9.231  1.00  0.00     0.035 C
HETATM    5  C9  UNL     1      -8.936  12.339 -10.084  1.00  0.00    -0.016 C
HETATM    6  N2  UNL     1      -7.914  11.640  -9.790  1.00  0.00    -0.405 N
ATOM      7  H21 UNL     1      -7.366  11.024 -10.389  1.00  0.00     0.155 HD
ATOM      8  H22 UNL     1      -7.479  11.597  -8.869  1.00  0.00     0.155 HD
HETATM    9  C10 UNL     1      -9.573  12.402 -11.432  1.00  0.00     0.053 C
HETATM   10  C11 UNL     1     -10.911  13.140 -11.199  1.00  0.00     0.011 C
HETATM   11  C12 UNL     1     -11.111  12.863  -9.796  1.00  0.00    -0.000 C
ENDROOT
BRANCH   1  12
HETATM   12  C2  UNL     1     -12.656  14.797  -9.182  1.00  0.00    -0.007 C
HETATM   13  C1  UNL     1     -14.175  14.571  -9.078  1.00  0.00     0.011 C
BRANCH  12  14
HETATM   14  C3  UNL     1     -12.331  15.945  -8.323  1.00  0.00     0.090 C
BRANCH  14  15
HETATM   15  C4  UNL     1     -11.668  16.990  -9.137  1.00  0.00     0.135 C
HETATM   16  N1  UNL     1     -10.520  16.761  -9.663  1.00  0.00    -0.251 N
ATOM     17  H1  UNL     1     -10.098  15.848  -9.496  1.00  0.00     0.196 HD
BRANCH  15  18
HETATM   18  O1  UNL     1     -12.234  18.241  -9.369  1.00  0.00    -0.348 OA
ATOM     19  H1  UNL     1     -12.110  18.722 -10.179  1.00  0.00     0.219 HD
ENDBRANCH  15  18
BRANCH  16  20
HETATM   20  O2  UNL     1      -9.829  17.643 -10.422  1.00  0.00    -0.288 OA
ATOM     21  H2  UNL     1      -9.996  18.577 -10.455  1.00  0.00     0.244 HD
ENDBRANCH  16  20
ENDBRANCH  14  15
ENDBRANCH  12  14
ENDBRANCH   1  12
TORSDOF 5
ENDMDL