MODEL 1
REMARK VINA RESULT: -5.958038383      0.000      0.000
REMARK  2 active torsions:
REMARK  status: ('A' for Active; 'I' for Inactive)
REMARK    1  A    between atoms: C4_10  and  N4_11
REMARK    2  A    between atoms: N4_11  and  C5_13
ROOT
HETATM    1  N1  UNL     1     -11.569  18.522  -8.862  1.00  0.00    -0.190 NA
HETATM    2  C1  UNL     1     -11.887  17.409  -8.805  1.00  0.00     0.121 C
HETATM    3  C2  UNL     1     -12.286  16.023  -8.711  1.00  0.00     0.160 A
HETATM    4  N2  UNL     1     -13.444  15.543  -8.239  1.00  0.00    -0.321 N
ATOM      5  H2  UNL     1     -14.216  16.101  -7.875  1.00  0.00     0.169 HD
HETATM    6  C3  UNL     1     -13.418  14.205  -8.327  1.00  0.00     0.178 A
HETATM    7  S1  UNL     1     -14.619  13.198  -7.866  1.00  0.00    -0.040 SA
HETATM    8  N3  UNL     1     -12.215  13.852  -8.866  1.00  0.00    -0.317 N
ATOM      9  H3  UNL     1     -11.913  12.896  -9.051  1.00  0.00     0.170 HD
HETATM   10  C4  UNL     1     -11.493  14.947  -9.114  1.00  0.00     0.142 A
ENDROOT
BRANCH  10  11
HETATM   11  N4  UNL     1     -10.197  15.053  -9.678  1.00  0.00    -0.369 N
ATOM     12  H4  UNL     1      -9.588  15.793  -9.331  1.00  0.00     0.161 HD
BRANCH  11  13
HETATM   13  C5  UNL     1      -9.681  14.194 -10.702  1.00  0.00     0.083 C
HETATM   14  C6  UNL     1      -9.095  12.904 -10.212  1.00  0.00     0.025 C
HETATM   15  C7  UNL     1      -9.001  12.002 -11.443  1.00  0.00     0.002 C
HETATM   16  C8  UNL     1      -8.000  12.597 -12.371  1.00  0.00     0.000 C
HETATM   17  C9  UNL     1      -7.624  14.009 -12.118  1.00  0.00     0.002 C
HETATM   18  C10 UNL     1      -8.741  14.902 -11.645  1.00  0.00     0.025 C
ENDBRANCH  11  13
ENDBRANCH  10  11
TORSDOF 2
ENDMDL