MODEL 4
REMARK VINA RESULT: -5.920296938      2.900      4.991
REMARK  2 active torsions:
REMARK  status: ('A' for Active; 'I' for Inactive)
REMARK    1  A    between atoms: C2_2  and  C3_3
REMARK    2  A    between atoms: C6_8  and  C7_9
ROOT
HETATM    1  C7  UNL     1     -10.978  13.411  -7.611  1.00  0.00     0.091 A
HETATM    2  N2  UNL     1     -10.875  14.397  -6.723  1.00  0.00    -0.189 N
ATOM      3  H2  UNL     1     -10.057  14.996  -6.613  1.00  0.00     0.184 HD
HETATM    4  C8  UNL     1     -12.012  14.493  -5.986  1.00  0.00     0.676 A
HETATM    5  N3  UNL     1     -12.259  15.338  -5.033  1.00  0.00    -0.234 N
ATOM      6  H31 UNL     1     -13.113  15.411  -4.479  1.00  0.00     0.174 HD
ATOM      7  H32 UNL     1     -11.617  16.060  -4.708  1.00  0.00     0.174 HD
HETATM    8  N4  UNL     1     -12.858  13.544  -6.414  1.00  0.00    -0.194 N
ATOM      9  H4  UNL     1     -13.795  13.366  -6.052  1.00  0.00     0.184 HD
HETATM   10  C9  UNL     1     -12.244  12.862  -7.418  1.00  0.00     0.051 A
HETATM   11  C10 UNL     1     -12.833  11.730  -8.169  1.00  0.00     0.071 C
ENDROOT
BRANCH   1  12
HETATM   12  C6  UNL     1     -10.030  12.930  -8.611  1.00  0.00     0.058 A
HETATM   13  C4  UNL     1      -9.176  11.868  -8.643  1.00  0.00     0.025 A
HETATM   14  N1  UNL     1      -8.444  11.704  -9.706  1.00  0.00    -0.356 N
HETATM   15  C5  UNL     1      -9.074  10.901  -7.481  1.00  0.00     0.070 C
HETATM   16  C3  UNL     1      -8.536  12.550 -10.714  1.00  0.00     0.051 A
ATOM     17  H1  UNL     1      -7.795  10.920  -9.759  1.00  0.00     0.166 HD
HETATM   18  S1  UNL     1      -9.714  13.647 -10.162  1.00  0.00    -0.073 SA
BRANCH  16  19
HETATM   19  C2  UNL     1      -7.802  12.559 -12.023  1.00  0.00     0.060 C
HETATM   20  C1  UNL     1      -7.567  14.011 -12.382  1.00  0.00     0.012 C
ENDBRANCH  16  19
ENDBRANCH   1  12
TORSDOF 2
ENDMDL