MODEL 5
REMARK VINA RESULT: -4.521195644      5.119      5.999
REMARK  2 active torsions:
REMARK  status: ('A' for Active; 'I' for Inactive)
REMARK    1  A    between atoms: N2_4  and  C1_6
REMARK    2  A    between atoms: C1_6  and  N3_8
ROOT
HETATM    1  C1  UNL     1      18.734   2.717  11.759  1.00  0.00     0.188 C
HETATM    2  S1  UNL     1      17.957   3.902  10.939  1.00  0.00    -0.039 SA
ENDROOT
BRANCH   1   3
HETATM    3  N2  UNL     1      19.872   3.029  12.590  1.00  0.00    -0.283 N
HETATM    4  N1  UNL     1      19.591   3.531  13.723  1.00  0.00    -0.343 N
ATOM      5  H12 UNL     1      18.627   3.694  14.010  1.00  0.00     0.176 HD
ATOM      6  H11 UNL     1      20.396   3.751  14.311  1.00  0.00     0.176 HD
ATOM      7  H2  UNL     1      20.832   2.860  12.290  1.00  0.00     0.188 HD
ENDBRANCH   1   3
BRANCH   1   8
HETATM    8  N3  UNL     1      18.275   1.383  11.643  1.00  0.00    -0.357 N
HETATM    9  C2  UNL     1      19.001   0.307  11.009  1.00  0.00     0.125 C
HETATM   10  C3  UNL     1      17.840  -0.579  10.532  1.00  0.00     0.021 C
HETATM   11  C4  UNL     1      16.997  -0.599  11.792  1.00  0.00     0.021 C
HETATM   12  C5  UNL     1      17.009   0.877  12.141  1.00  0.00     0.125 C
ENDBRANCH   1   8
TORSDOF 2
ENDMDL