MODEL 5
REMARK VINA RESULT: -4.028412239      1.415      3.289
REMARK  0 active torsions:
REMARK  status: ('A' for Active; 'I' for Inactive)
ROOT
HETATM    1  C1  UNL     1      17.443   3.372  13.839  1.00  0.00     0.004 C
HETATM    2  C2  UNL     1      16.470   2.378  13.361  1.00  0.00     0.025 C
HETATM    3  C3  UNL     1      16.762   1.778  12.002  1.00  0.00     0.082 C
HETATM    4  C4  UNL     1      16.651   2.736  10.880  1.00  0.00     0.027 C
HETATM    5  C5  UNL     1      17.850   3.535  10.559  1.00  0.00     0.027 C
HETATM    6  C6  UNL     1      18.750   3.805  11.740  1.00  0.00     0.082 C
HETATM    7  C7  UNL     1      17.883   4.389  12.827  1.00  0.00     0.025 C
HETATM    8  N1  UNL     1      19.514   2.684  12.158  1.00  0.00    -0.382 N
ATOM      9  H1  UNL     1      20.282   2.761  12.824  1.00  0.00     0.160 HD
HETATM   10  C8  UNL     1      19.123   1.430  11.569  1.00  0.00     0.172 C
HETATM   11  N2  UNL     1      17.896   0.952  12.051  1.00  0.00    -0.382 N
ATOM     12  H2  UNL     1      17.828   0.010  12.436  1.00  0.00     0.160 HD
ENDROOT
TORSDOF 0
ENDMDL