MODEL 5
REMARK VINA RESULT: -4.935267030      5.057      6.631
REMARK  2 active torsions:
REMARK  status: ('A' for Active; 'I' for Inactive)
REMARK    1  A    between atoms: C1_4  and  C2_5
REMARK    2  A    between atoms: C8_11  and  N2_12
ROOT
HETATM    1  C2  UNL     1      17.777  -0.742  11.134  1.00  0.00     0.021 C
HETATM    2  C3  UNL     1      18.158   0.443  10.836  1.00  0.00    -0.049 C
HETATM    3  C4  UNL     1      19.518   0.908  10.519  1.00  0.00     0.036 C
HETATM    4  C5  UNL     1      19.985   1.860  11.594  1.00  0.00     0.004 C
HETATM    5  C6  UNL     1      18.995   2.921  11.928  1.00  0.00     0.003 C
HETATM    6  C7  UNL     1      17.565   2.592  11.821  1.00  0.00     0.037 C
HETATM    7  C8  UNL     1      17.162   1.600  10.786  1.00  0.00     0.212 C
ENDROOT
BRANCH   1   8
HETATM    8  C1  UNL     1      18.562  -1.933  11.245  1.00  0.00     0.080 C
HETATM    9  N1  UNL     1      18.327  -3.134  11.250  1.00  0.00    -0.408 N
ATOM     10  H12 UNL     1      17.327  -3.310  11.149  1.00  0.00     0.155 HD
ATOM     11  H11 UNL     1      18.887  -3.983  11.329  1.00  0.00     0.155 HD
ENDBRANCH   1   8
BRANCH   7  12
HETATM   12  N2  UNL     1      15.827   1.148  10.963  1.00  0.00    -0.071 N
ATOM     13  H23 UNL     1      15.242   1.395  10.165  1.00  0.00     0.275 HD
ATOM     14  H22 UNL     1      15.765   0.132  10.897  1.00  0.00     0.275 HD
ATOM     15  H21 UNL     1      15.428   1.489  11.838  1.00  0.00     0.275 HD
ENDBRANCH   7  12
TORSDOF 2
ENDMDL