MODEL 5
REMARK VINA RESULT: -4.893919159      1.319      1.810
REMARK  1 active torsions:
REMARK  status: ('A' for Active; 'I' for Inactive)
REMARK    1  A    between atoms: N1_1  and  C1_5
ROOT
HETATM    1  C1  UNL     1      15.263   2.841  15.064  1.00  0.00     0.185 C
HETATM    2  C2  UNL     1      15.190   3.959  16.061  1.00  0.00     0.033 C
HETATM    3  C3  UNL     1      13.912   3.915  16.865  1.00  0.00     0.002 C
HETATM    4  C4  UNL     1      14.209   3.656  18.328  1.00  0.00     0.005 C
HETATM    5  C5  UNL     1      14.719   2.228  18.534  1.00  0.00     0.044 C
HETATM    6  C6  UNL     1      14.176   1.290  17.543  1.00  0.00     0.055 C
HETATM    7  N2  UNL     1      14.809   0.728  16.611  1.00  0.00    -0.402 N
ATOM      8  H2  UNL     1      14.279   0.100  16.007  1.00  0.00     0.158 HD
HETATM    9  C7  UNL     1      16.193   0.886  16.321  1.00  0.00     0.120 C
HETATM   10  C8  UNL     1      16.490   2.005  15.368  1.00  0.00     0.052 C
ENDROOT
BRANCH   1  11
HETATM   11  N1  UNL     1      15.363   3.460  13.734  1.00  0.00    -0.075 N
ATOM     12  H13 UNL     1      15.463   2.779  12.981  1.00  0.00     0.274 HD
ATOM     13  H12 UNL     1      14.487   3.875  13.418  1.00  0.00     0.274 HD
ATOM     14  H11 UNL     1      16.131   4.129  13.775  1.00  0.00     0.274 HD
ENDBRANCH   1  11
TORSDOF 1
ENDMDL