MODEL 4
REMARK VINA RESULT: -3.815335679      1.157      2.238
REMARK  0 active torsions:
REMARK  status: ('A' for Active; 'I' for Inactive)
ROOT
HETATM    1  C1  UNL     1      17.706  -0.117  10.314  1.00  0.00     0.002 C
HETATM    2  C2  UNL     1      18.819   0.091  11.339  1.00  0.00     0.001 C
HETATM    3  C3  UNL     1      19.337   1.482  11.150  1.00  0.00     0.016 C
HETATM    4  C4  UNL     1      18.301   2.470  11.530  1.00  0.00     0.066 C
HETATM    5  C5  UNL     1      17.250   2.605  10.472  1.00  0.00     0.038 C
HETATM    6  C6  UNL     1      16.092   1.738  10.833  1.00  0.00     0.089 C
HETATM    7  C7  UNL     1      16.374   0.278  10.843  1.00  0.00     0.022 C
HETATM    8  N1  UNL     1      15.696   2.113  12.191  1.00  0.00    -0.174 NA
HETATM    9  S1  UNL     1      17.299   1.919  12.965  1.00  0.00    -0.061 SA
ENDROOT
TORSDOF 0
ENDMDL