MODEL 2
REMARK VINA RESULT: -6.399166454      1.263      2.202
REMARK  2 active torsions:
REMARK  status: ('A' for Active; 'I' for Inactive)
REMARK    1  A    between atoms: N1_1  and  N2_4
REMARK    2  A    between atoms: N2_4  and  C1_5
ROOT
HETATM    1  C1  UNL     1      16.312   2.409  15.113  1.00  0.00     0.121 C
HETATM    2  C2  UNL     1      16.050   1.133  15.772  1.00  0.00    -0.008 C
HETATM    3  C3  UNL     1      15.664   0.682  17.059  1.00  0.00    -0.029 C
HETATM    4  C4  UNL     1      14.619   1.417  17.935  1.00  0.00     0.027 C
HETATM    5  C5  UNL     1      14.501   2.682  17.342  1.00  0.00     0.004 C
HETATM    6  C6  UNL     1      14.031   3.980  17.091  1.00  0.00     0.000 C
HETATM    7  C7  UNL     1      14.906   4.448  15.881  1.00  0.00     0.002 C
HETATM    8  C8  UNL     1      15.217   3.393  14.879  1.00  0.00     0.027 C
ENDROOT
BRANCH   1   9
HETATM    9  N2  UNL     1      16.872   2.091  13.771  1.00  0.00    -0.140 NA
BRANCH   9  10
HETATM   10  N1  UNL     1      16.853   0.746  13.502  1.00  0.00    -0.348 N
ATOM     11  H12 UNL     1      17.081   0.037  14.200  1.00  0.00     0.172 HD
ATOM     12  H11 UNL     1      16.588   0.546  12.538  1.00  0.00     0.172 HD
ENDBRANCH   9  10
ENDBRANCH   1   9
TORSDOF 2
ENDMDL