MODEL 1
REMARK VINA RESULT: -4.306283620      0.000      0.000
REMARK  0 active torsions:
REMARK  status: ('A' for Active; 'I' for Inactive)
ROOT
HETATM    1  C1  UNL     1      16.649  -0.049  10.209  1.00  0.00     0.015 C
HETATM    2  C2  UNL     1      17.168   0.710  11.402  1.00  0.00    -0.041 C
HETATM    3  C3  UNL     1      16.906  -0.191  12.616  1.00  0.00     0.015 C
HETATM    4  C4  UNL     1      18.647   0.951  11.357  1.00  0.00     0.042 C
HETATM    5  C5  UNL     1      18.909   2.419  11.668  1.00  0.00     0.186 C
HETATM    6  C6  UNL     1      18.283   3.200  10.531  1.00  0.00     0.033 C
HETATM    7  C7  UNL     1      16.778   3.073  10.655  1.00  0.00     0.009 C
HETATM    8  C8  UNL     1      16.440   1.994  11.654  1.00  0.00     0.019 C
HETATM    9  C9  UNL     1      16.910   2.521  13.010  1.00  0.00     0.238 C
HETATM   10  N1  UNL     1      18.315   2.790  12.919  1.00  0.00    -0.070 N
ATOM     11  H11 UNL     1      18.502   3.771  13.125  1.00  0.00     0.277 HD
ATOM     12  H12 UNL     1      18.812   2.351  13.694  1.00  0.00     0.277 HD
ENDROOT
TORSDOF 0
ENDMDL