MODEL 2
REMARK VINA RESULT: -5.912129864      1.311      3.208
REMARK  1 active torsions:
REMARK  status: ('A' for Active; 'I' for Inactive)
REMARK    1  A    between atoms: N1_1  and  N2_4
ROOT
HETATM    1  N2  UNL     1      16.029   0.937  15.945  1.00  0.00    -0.175 N
HETATM    2  C1  UNL     1      15.079   0.854  17.103  1.00  0.00     0.183 C
HETATM    3  C2  UNL     1      13.760   1.425  16.756  1.00  0.00     0.024 C
HETATM    4  C3  UNL     1      13.522   2.861  16.756  1.00  0.00     0.002 C
HETATM    5  C4  UNL     1      14.551   3.818  17.160  1.00  0.00     0.000 C
HETATM    6  C5  UNL     1      14.705   4.984  16.242  1.00  0.00     0.000 C
HETATM    7  C6  UNL     1      14.897   4.728  14.801  1.00  0.00     0.006 C
HETATM    8  C7  UNL     1      16.200   4.101  14.390  1.00  0.00     0.061 C
HETATM    9  C8  UNL     1      15.900   2.620  14.102  1.00  0.00     0.183 C
HETATM   10  N3  UNL     1      15.963   1.807  14.992  1.00  0.00    -0.325 NA
ENDROOT
BRANCH   1  11
HETATM   11  N1  UNL     1      17.034  -0.068  16.046  1.00  0.00    -0.318 N
ATOM     12  H12 UNL     1      18.007   0.114  16.292  1.00  0.00     0.179 HD
ATOM     13  H11 UNL     1      16.640  -0.990  15.853  1.00  0.00     0.179 HD
ENDBRANCH   1  11
TORSDOF 1
ENDMDL