MODEL 3
REMARK VINA RESULT: -5.208064568      1.308      2.139
REMARK  0 active torsions:
REMARK  status: ('A' for Active; 'I' for Inactive)
ROOT
HETATM    1  C1  UNL     1      14.521   3.820  15.374  1.00  0.00     0.000 C
HETATM    2  C2  UNL     1      15.945   4.060  15.087  1.00  0.00     0.000 C
HETATM    3  C3  UNL     1      16.764   2.977  14.534  1.00  0.00     0.001 C
HETATM    4  C4  UNL     1      16.292   1.580  14.668  1.00  0.00     0.018 C
HETATM    5  C5  UNL     1      16.935   0.893  15.878  1.00  0.00     0.134 C
HETATM    6  N1  UNL     1      15.924   0.188  16.642  1.00  0.00    -0.146 NA
HETATM    7  N2  UNL     1      15.329   1.102  17.490  1.00  0.00    -0.340 N
ATOM      8  H2  UNL     1      15.872   1.747  18.063  1.00  0.00     0.175 HD
HETATM    9  C6  UNL     1      13.907   1.078  17.508  1.00  0.00     0.135 C
HETATM   10  C7  UNL     1      13.325   2.393  17.052  1.00  0.00     0.021 C
HETATM   11  C8  UNL     1      14.340   3.468  16.850  1.00  0.00     0.002 C
ENDROOT
TORSDOF 0
ENDMDL