MODEL 1
REMARK VINA RESULT: -5.111871746      0.000      0.000
REMARK  1 active torsions:
REMARK  status: ('A' for Active; 'I' for Inactive)
REMARK    1  A    between atoms: N1_1  and  C1_5
ROOT
HETATM    1  C1  UNL     1      16.382   2.657  14.244  1.00  0.00     0.207 C
HETATM    2  S1  UNL     1      16.140   2.006  12.567  1.00  0.00    -0.050 SA
HETATM    3  C2  UNL     1      15.282   3.685  14.477  1.00  0.00     0.020 C
HETATM    4  C3  UNL     1      15.082   4.373  15.718  1.00  0.00    -0.026 C
HETATM    5  C4  UNL     1      14.198   3.860  16.842  1.00  0.00     0.038 C
HETATM    6  C5  UNL     1      14.635   2.433  17.321  1.00  0.00     0.083 C
HETATM    7  C6  UNL     1      15.466   1.928  16.305  1.00  0.00    -0.179 C
HETATM    8  C7  UNL     1      16.277   1.464  15.262  1.00  0.00     0.135 C
ENDROOT
BRANCH   1   9
HETATM    9  N1  UNL     1      17.652   3.242  14.446  1.00  0.00    -0.056 N
ATOM     10  H13 UNL     1      17.572   4.254  14.536  1.00  0.00     0.276 HD
ATOM     11  H12 UNL     1      18.009   3.016  15.374  1.00  0.00     0.276 HD
ATOM     12  H11 UNL     1      18.334   2.997  13.728  1.00  0.00     0.276 HD
ENDBRANCH   1   9
TORSDOF 1
ENDMDL