MODEL 4
REMARK VINA RESULT: -8.536426168      2.043      3.714
REMARK  20 active torsions:
REMARK  status: ('A' for Active; 'I' for Inactive)
REMARK    1  A    between atoms: O1_2  and  C2_3
REMARK    2  A    between atoms: C2_3  and  C5_6
REMARK    3  A    between atoms: C5_6  and  O3_8
REMARK    4  A    between atoms: O3_8  and  C6_9
REMARK    5  A    between atoms: C6_9  and  C7_10
REMARK    6  A    between atoms: C6_9  and  C8_15
REMARK    7  A    between atoms: C7_10  and  O4_11
REMARK    8  A    between atoms: C7_10  and  O5_13
REMARK    9  A    between atoms: C10_17  and  N1_18
REMARK   10  A    between atoms: C12_20  and  O6_21
REMARK   11  A    between atoms: C15_26  and  C16_27
REMARK       I    between atoms: C16_27  and  N2_29
REMARK   12  A    between atoms: N2_29  and  C17_31
REMARK   13  A    between atoms: C17_31  and  O9_32
REMARK   14  A    between atoms: C17_31  and  C18_34
REMARK   15  A    between atoms: C18_34  and  N3_35
REMARK   16  A    between atoms: C18_34  and  O10_39
REMARK   17  A    between atoms: C19_41  and  O11_42
REMARK   18  A    between atoms: C22_50  and  O13_51
REMARK   19  A    between atoms: O13_51  and  C23_52
REMARK   20  A    between atoms: C23_52  and  C24_54
ROOT
HETATM    1  C8  UNL     1      51.434  23.246  23.538  1.00  0.00     0.086 C
HETATM    2  C9  UNL     1      50.284  23.367  24.423  1.00  0.00    -0.010 C
HETATM    3  C10 UNL     1      49.022  23.132  24.145  1.00  0.00     0.104 C
HETATM    4  C19 UNL     1      50.728  23.874  25.726  1.00  0.00     0.176 C
HETATM    5  C20 UNL     1      51.392  23.052  26.708  1.00  0.00     0.154 C
HETATM    6  N4  UNL     1      51.395  21.938  27.378  1.00  0.00    -0.381 N
ATOM      7  H41 UNL     1      51.865  21.357  28.072  1.00  0.00     0.158 HD
ATOM      8  H42 UNL     1      50.677  21.222  27.269  1.00  0.00     0.158 HD
HETATM    9  O12 UNL     1      52.407  24.064  26.861  1.00  0.00    -0.325 OA
HETATM   10  C21 UNL     1      52.178  24.311  25.486  1.00  0.00     0.207 C
HETATM   11  C22 UNL     1      52.596  23.208  24.547  1.00  0.00     0.176 C
ENDROOT
BRANCH   1  12
HETATM   12  C6  UNL     1      51.672  24.234  22.488  1.00  0.00     0.197 C
BRANCH  12  13
HETATM   13  O3  UNL     1      50.859  25.309  22.260  1.00  0.00    -0.308 OA
BRANCH  13  14
HETATM   14  C5  UNL     1      50.639  25.975  21.086  1.00  0.00     0.293 C
HETATM   15  O2  UNL     1      51.583  26.757  20.772  1.00  0.00    -0.262 OA
BRANCH  14  16
HETATM   16  C2  UNL     1      49.464  25.864  20.198  1.00  0.00     0.140 C
HETATM   17  C3  UNL     1      49.194  27.268  19.643  1.00  0.00     0.057 C
HETATM   18  C4  UNL     1      49.660  24.956  19.019  1.00  0.00     0.057 C
BRANCH  16  19
HETATM   19  O1  UNL     1      48.382  25.407  20.931  1.00  0.00    -0.376 OA
HETATM   20  C1  UNL     1      47.307  24.964  20.218  1.00  0.00     0.203 C
ENDBRANCH  16  19
ENDBRANCH  14  16
ENDBRANCH  13  14
ENDBRANCH  12  13
BRANCH  12  21
HETATM   21  C7  UNL     1      52.147  23.591  21.176  1.00  0.00     0.284 C
BRANCH  21  22
HETATM   22  O4  UNL     1      52.444  22.226  21.408  1.00  0.00    -0.369 OA
ATOM     23  H4  UNL     1      52.332  21.741  20.599  1.00  0.00     0.212 HD
ENDBRANCH  21  22
BRANCH  21  24
HETATM   24  O5  UNL     1      53.271  24.215  20.642  1.00  0.00    -0.369 OA
ATOM     25  H5  UNL     1      53.667  23.721  19.934  1.00  0.00     0.212 HD
ENDBRANCH  21  24
ENDBRANCH  12  21
ENDBRANCH   1  12
BRANCH   3  26
HETATM   26  N1  UNL     1      47.863  23.200  24.852  1.00  0.00    -0.325 N
HETATM   27  C11 UNL     1      47.072  24.302  24.634  1.00  0.00     0.137 A
HETATM   28  C12 UNL     1      45.861  24.523  25.227  1.00  0.00     0.132 A
HETATM   29  C13 UNL     1      45.393  23.594  26.101  1.00  0.00     0.208 A
HETATM   30  O7  UNL     1      44.284  23.780  26.655  1.00  0.00    -0.285 OA
HETATM   31  C14 UNL     1      46.161  22.472  26.348  1.00  0.00     0.093 A
HETATM   32  C15 UNL     1      47.385  22.321  25.702  1.00  0.00     0.110 A
BRANCH  28  33
HETATM   33  O6  UNL     1      45.120  25.693  24.931  1.00  0.00    -0.356 OA
ATOM     34  H6  UNL     1      44.986  26.360  25.594  1.00  0.00     0.218 HD
ENDBRANCH  28  33
BRANCH  32  35
HETATM   35  C16 UNL     1      48.101  21.060  25.986  1.00  0.00     0.270 C
HETATM   36  O8  UNL     1      48.747  20.483  25.037  1.00  0.00    -0.266 OA
HETATM   37  N2  UNL     1      48.061  20.538  27.284  1.00  0.00    -0.326 N
ATOM     38  H2  UNL     1      47.520  21.074  27.963  1.00  0.00     0.165 HD
BRANCH  37  39
HETATM   39  C17 UNL     1      48.692  19.330  27.788  1.00  0.00     0.277 C
BRANCH  39  40
HETATM   40  O9  UNL     1      49.580  19.829  28.791  1.00  0.00    -0.372 OA
ATOM     41  H9  UNL     1      49.166  19.547  29.598  1.00  0.00     0.212 HD
ENDBRANCH  39  40
BRANCH  39  42
HETATM   42  C18 UNL     1      47.671  18.473  28.539  1.00  0.00     0.365 C
BRANCH  42  43
HETATM   43  N3  UNL     1      48.362  17.614  29.491  1.00  0.00    -0.049 N
ATOM     44  H33 UNL     1      48.534  16.682  29.115  1.00  0.00     0.277 HD
ATOM     45  H32 UNL     1      49.332  17.896  29.630  1.00  0.00     0.277 HD
ATOM     46  H31 UNL     1      47.840  17.586  30.367  1.00  0.00     0.277 HD
ENDBRANCH  42  43
BRANCH  42  47
HETATM   47  O10 UNL     1      46.900  17.695  27.673  1.00  0.00    -0.367 OA
ATOM     48  H10 UNL     1      46.144  17.320  28.108  1.00  0.00     0.212 HD
ENDBRANCH  42  47
ENDBRANCH  39  42
ENDBRANCH  37  39
ENDBRANCH  32  35
ENDBRANCH   3  26
BRANCH   4  49
HETATM   49  O11 UNL     1      49.947  24.872  26.292  1.00  0.00    -0.374 OA
ATOM     50  H11 UNL     1      49.314  24.590  26.941  1.00  0.00     0.211 HD
ENDBRANCH   4  49
BRANCH  11  51
HETATM   51  O13 UNL     1      53.842  23.439  24.000  1.00  0.00    -0.307 OA
BRANCH  51  52
HETATM   52  C23 UNL     1      54.616  22.458  23.416  1.00  0.00     0.313 C
HETATM   53  O14 UNL     1      54.365  21.247  23.642  1.00  0.00    -0.258 OA
BRANCH  52  54
HETATM   54  C24 UNL     1      55.731  22.765  22.531  1.00  0.00     0.139 A
HETATM   55  N5  UNL     1      55.831  22.512  21.217  1.00  0.00    -0.334 N
HETATM   56  C25 UNL     1      57.050  22.977  20.845  1.00  0.00     0.120 A
ATOM     57  H5  UNL     1      55.135  22.062  20.622  1.00  0.00     0.168 HD
HETATM   58  C26 UNL     1      57.528  22.870  19.424  1.00  0.00     0.098 C
HETATM   59  O15 UNL     1      57.659  23.489  21.888  1.00  0.00    -0.300 OA
HETATM   60  C27 UNL     1      56.894  23.381  22.936  1.00  0.00     0.084 A
HETATM   61  C28 UNL     1      57.251  23.859  24.319  1.00  0.00     0.079 C
ENDBRANCH  52  54
ENDBRANCH  51  52
ENDBRANCH  11  51
TORSDOF 20
ENDMDL