MODEL 2
REMARK VINA RESULT: -9.888633641      2.489     11.049
REMARK  18 active torsions:
REMARK  status: ('A' for Active; 'I' for Inactive)
REMARK    1  A    between atoms: C3_3  and  N1_4
REMARK    2  A    between atoms: N1_4  and  C4_6
REMARK    3  A    between atoms: C5_9  and  N3_10
REMARK    4  A    between atoms: N6_18  and  O1_19
REMARK    5  A    between atoms: O1_19  and  C7_20
REMARK    6  A    between atoms: C7_20  and  O3_22
REMARK    7  A    between atoms: O3_22  and  C8_23
REMARK    8  A    between atoms: C12_29  and  N8_30
REMARK    9  A    between atoms: C13_34  and  O4_35
REMARK   10  A    between atoms: O4_35  and  C14_36
REMARK   11  A    between atoms: C15_38  and  N9_39
REMARK   12  A    between atoms: C17_43  and  O6_44
REMARK   13  A    between atoms: O6_44  and  C18_45
REMARK   14  A    between atoms: N10_47  and  C20_48
REMARK   15  A    between atoms: C23_52  and  O7_53
REMARK   16  A    between atoms: C25_55  and  N12_56
REMARK   17  A    between atoms: C26_60  and  N13_61
REMARK   18  A    between atoms: C28_66  and  N14_67
ROOT
HETATM    1  C20 UNL     1      43.713  25.185  28.044  1.00  0.00     0.241 C
HETATM    2  C21 UNL     1      42.638  25.962  28.655  1.00  0.00     0.078 C
HETATM    3  N11 UNL     1      41.785  26.577  29.163  1.00  0.00    -0.196 NA
ENDROOT
BRANCH   1   4
HETATM    4  N10 UNL     1      43.763  25.376  26.643  1.00  0.00    -0.396 N
HETATM    5  C19 UNL     1      45.012  25.069  25.998  1.00  0.00     0.152 C
HETATM    6  C18 UNL     1      44.757  23.831  25.107  1.00  0.00     0.172 C
HETATM    7  C25 UNL     1      43.963  24.362  23.949  1.00  0.00     0.244 C
HETATM    8  C23 UNL     1      42.815  25.242  24.407  1.00  0.00     0.171 C
HETATM    9  C22 UNL     1      42.593  25.058  25.899  1.00  0.00     0.152 C
BRANCH   6  10
HETATM   10  O6  UNL     1      45.915  23.280  24.626  1.00  0.00    -0.370 OA
BRANCH  10  11
HETATM   11  C17 UNL     1      46.727  22.565  25.430  1.00  0.00     0.208 C
HETATM   12  C15 UNL     1      48.165  22.883  25.082  1.00  0.00     0.354 C
HETATM   13  O5  UNL     1      48.993  23.097  26.150  1.00  0.00    -0.324 OA
HETATM   14  C14 UNL     1      49.602  21.873  26.555  1.00  0.00     0.293 C
HETATM   15  C28 UNL     1      48.486  21.019  27.036  1.00  0.00     0.240 C
HETATM   16  C27 UNL     1      47.835  20.361  25.833  1.00  0.00     0.073 C
HETATM   17  C26 UNL     1      46.542  21.055  25.421  1.00  0.00     0.218 C
BRANCH  12  18
HETATM   18  N9  UNL     1      48.261  24.040  24.194  1.00  0.00    -0.050 N
HETATM   19  C16 UNL     1      49.621  24.442  23.987  1.00  0.00     0.270 C
ATOM     20  H92 UNL     1      47.785  23.867  23.309  1.00  0.00     0.279 HD
ATOM     21  H91 UNL     1      47.691  24.815  24.534  1.00  0.00     0.279 HD
ENDBRANCH  12  18
BRANCH  14  22
HETATM   22  O4  UNL     1      50.628  22.120  27.446  1.00  0.00    -0.347 OA
BRANCH  22  23
HETATM   23  C13 UNL     1      51.845  22.148  26.842  1.00  0.00     0.185 C
HETATM   24  C2  UNL     1      52.431  23.499  26.658  1.00  0.00    -0.035 C
HETATM   25  C1  UNL     1      52.105  24.698  27.071  1.00  0.00     0.019 C
HETATM   26  C3  UNL     1      53.621  23.149  25.759  1.00  0.00     0.132 C
HETATM   27  C11 UNL     1      52.839  22.503  24.634  1.00  0.00     0.066 C
HETATM   28  C12 UNL     1      51.849  21.619  25.404  1.00  0.00     0.218 C
BRANCH  26  29
HETATM   29  N1  UNL     1      54.378  24.285  25.386  1.00  0.00    -0.217 N
ATOM     30  H1  UNL     1      54.413  25.097  26.003  1.00  0.00     0.178 HD
BRANCH  29  31
HETATM   31  C4  UNL     1      55.023  24.298  24.273  1.00  0.00     0.682 A
HETATM   32  N2  UNL     1      56.282  23.855  24.118  1.00  0.00    -0.175 N
HETATM   33  C5  UNL     1      56.950  23.882  22.938  1.00  0.00     0.147 A
ATOM     34  H2  UNL     1      56.763  23.476  24.934  1.00  0.00     0.186 HD
HETATM   35  C6  UNL     1      56.273  24.397  21.851  1.00  0.00     0.142 A
HETATM   36  N4  UNL     1      56.599  24.583  20.545  1.00  0.00    -0.277 N
HETATM   37  C10 UNL     1      54.978  24.862  21.966  1.00  0.00     0.201 A
HETATM   38  N5  UNL     1      55.559  25.124  19.929  1.00  0.00    -0.213 N
ATOM     39  H4  UNL     1      57.493  24.347  20.113  1.00  0.00     0.189 HD
HETATM   40  N6  UNL     1      54.564  25.306  20.757  1.00  0.00    -0.116 N
ATOM     41  H5  UNL     1      55.537  25.366  18.939  1.00  0.00     0.211 HD
HETATM   42  N7  UNL     1      54.382  24.800  23.180  1.00  0.00    -0.170 N
ATOM     43  H7  UNL     1      53.425  25.139  23.280  1.00  0.00     0.186 HD
BRANCH  33  44
HETATM   44  N3  UNL     1      58.159  23.448  22.829  1.00  0.00    -0.383 N
ATOM     45  H32 UNL     1      58.891  23.754  23.470  1.00  0.00     0.157 HD
ATOM     46  H31 UNL     1      58.431  22.787  22.101  1.00  0.00     0.157 HD
ENDBRANCH  33  44
BRANCH  40  47
HETATM   47  O1  UNL     1      53.323  25.832  20.514  1.00  0.00    -0.149 OA
BRANCH  47  48
HETATM   48  C7  UNL     1      52.227  25.000  20.219  1.00  0.00     0.430 C
HETATM   49  O2  UNL     1      52.465  23.768  20.218  1.00  0.00    -0.227 OA
BRANCH  48  50
HETATM   50  O3  UNL     1      50.967  25.445  19.944  1.00  0.00    -0.297 OA
BRANCH  50  51
HETATM   51  C8  UNL     1      50.256  26.346  20.806  1.00  0.00     0.177 C
HETATM   52  C9  UNL     1      49.265  27.085  19.942  1.00  0.00     0.034 C
ENDBRANCH  50  51
ENDBRANCH  48  50
ENDBRANCH  47  48
ENDBRANCH  40  47
ENDBRANCH  29  31
ENDBRANCH  26  29
BRANCH  28  53
HETATM   53  N8  UNL     1      52.416  20.289  25.333  1.00  0.00    -0.072 N
ATOM     54  H83 UNL     1      51.737  19.557  25.128  1.00  0.00     0.274 HD
ATOM     55  H82 UNL     1      53.005  20.130  24.516  1.00  0.00     0.274 HD
ATOM     56  H81 UNL     1      52.901  20.168  26.223  1.00  0.00     0.274 HD
ENDBRANCH  28  53
ENDBRANCH  22  23
ENDBRANCH  14  22
BRANCH  15  57
HETATM   57  N14 UNL     1      48.816  19.991  27.970  1.00  0.00    -0.070 N
ATOM     58 3H14 UNL     1      49.778  20.114  28.286  1.00  0.00     0.274 HD
ATOM     59 2H14 UNL     1      48.310  20.149  28.842  1.00  0.00     0.274 HD
ATOM     60 1H14 UNL     1      48.677  19.028  27.664  1.00  0.00     0.274 HD
ENDBRANCH  15  57
BRANCH  17  61
HETATM   61  N13 UNL     1      45.588  20.645  26.464  1.00  0.00    -0.072 N
ATOM     62 3H13 UNL     1      44.974  21.412  26.738  1.00  0.00     0.274 HD
ATOM     63 2H13 UNL     1      44.881  20.006  26.100  1.00  0.00     0.274 HD
ATOM     64 1H13 UNL     1      46.080  20.249  27.264  1.00  0.00     0.274 HD
ENDBRANCH  17  61
ENDBRANCH  10  11
ENDBRANCH   6  10
BRANCH   7  65
HETATM   65  N12 UNL     1      43.511  23.287  23.124  1.00  0.00    -0.070 N
ATOM     66 3H12 UNL     1      42.703  23.553  22.561  1.00  0.00     0.274 HD
ATOM     67 2H12 UNL     1      44.164  23.089  22.366  1.00  0.00     0.274 HD
ATOM     68 1H12 UNL     1      43.324  22.460  23.691  1.00  0.00     0.274 HD
ENDBRANCH   7  65
BRANCH   8  69
HETATM   69  O7  UNL     1      43.112  26.545  24.099  1.00  0.00    -0.387 OA
HETATM   70  C24 UNL     1      42.014  27.374  23.982  1.00  0.00     0.202 C
ENDBRANCH   8  69
ENDBRANCH   1   4
TORSDOF 18
ENDMDL