MODEL 3
REMARK VINA RESULT: -11.005578257      1.957      3.982
REMARK  16 active torsions:
REMARK  status: ('A' for Active; 'I' for Inactive)
REMARK    1  A    between atoms: C4_4  and  O1_5
REMARK    2  A    between atoms: C5_7  and  C6_8
REMARK    3  A    between atoms: C7_9  and  O2_10
REMARK    4  A    between atoms: C7_9  and  C8_12
REMARK       I    between atoms: C8_12  and  N1_14
REMARK    5  A    between atoms: N1_14  and  C9_16
REMARK    6  A    between atoms: C9_16  and  C10_17
REMARK       I    between atoms: C10_17  and  N2_19
REMARK    7  A    between atoms: N2_19  and  C11_21
REMARK    8  A    between atoms: C11_21  and  C12_22
REMARK       I    between atoms: C12_22  and  N3_24
REMARK    9  A    between atoms: N3_24  and  C13_26
REMARK   10  A    between atoms: C14_27  and  C15_28
REMARK   11  A    between atoms: C20_33  and  O6_34
REMARK   12  A    between atoms: N6_40  and  C21_41
REMARK   13  A    between atoms: C21_41  and  C22_42
REMARK       I    between atoms: C22_42  and  N7_44
REMARK   14  A    between atoms: N7_44  and  N8_45
REMARK       I    between atoms: N8_45  and  C23_47
REMARK   15  A    between atoms: C23_47  and  C24_49
REMARK   16  A    between atoms: C24_49  and  N9_50
ROOT
HETATM    1  C13 UNL     1      52.622  25.395  23.077  1.00  0.00     0.156 A
HETATM    2  C14 UNL     1      53.972  25.606  23.140  1.00  0.00     0.108 A
HETATM    3  N4  UNL     1      54.267  26.417  22.052  1.00  0.00    -0.281 N
ATOM      4  H4  UNL     1      55.197  26.756  21.803  1.00  0.00     0.188 HD
HETATM    5  N5  UNL     1      53.196  26.673  21.412  1.00  0.00    -0.238 N
ATOM      6  H5  UNL     1      53.136  27.254  20.575  1.00  0.00     0.208 HD
HETATM    7  N6  UNL     1      52.151  26.059  22.008  1.00  0.00    -0.250 N
ENDROOT
BRANCH   1   8
HETATM    8  N3  UNL     1      51.974  24.408  23.907  1.00  0.00    -0.309 N
HETATM    9  C12 UNL     1      52.028  23.021  23.872  1.00  0.00     0.240 C
HETATM   10  O5  UNL     1      52.365  22.379  22.848  1.00  0.00    -0.271 OA
ATOM     11  H3  UNL     1      51.377  24.793  24.640  1.00  0.00     0.170 HD
BRANCH   9  12
HETATM   12  C11 UNL     1      51.698  22.177  25.039  1.00  0.00     0.225 C
BRANCH  12  13
HETATM   13  N2  UNL     1      50.587  21.255  24.845  1.00  0.00    -0.351 N
HETATM   14  C10 UNL     1      50.051  20.667  25.974  1.00  0.00     0.235 C
HETATM   15  O4  UNL     1      50.368  20.688  27.094  1.00  0.00    -0.272 OA
ATOM     16  H2  UNL     1      50.221  21.051  23.915  1.00  0.00     0.163 HD
BRANCH  14  17
HETATM   17  C9  UNL     1      48.702  19.808  25.682  1.00  0.00     0.225 C
BRANCH  17  18
HETATM   18  N1  UNL     1      47.668  20.597  26.110  1.00  0.00    -0.346 N
HETATM   19  C8  UNL     1      46.506  20.421  26.884  1.00  0.00     0.275 C
HETATM   20  O3  UNL     1      46.182  19.321  27.337  1.00  0.00    -0.265 OA
ATOM     21  H1  UNL     1      47.766  21.558  25.784  1.00  0.00     0.163 HD
BRANCH  19  22
HETATM   22  C7  UNL     1      45.689  21.613  27.131  1.00  0.00     0.135 C
HETATM   23  C6  UNL     1      44.412  21.659  27.039  1.00  0.00     0.062 C
BRANCH  23  24
HETATM   24  C5  UNL     1      43.841  23.013  27.400  1.00  0.00     0.075 A
HETATM   25  C4  UNL     1      44.011  24.132  26.677  1.00  0.00     0.084 A
HETATM   26  C3  UNL     1      43.512  25.332  27.230  1.00  0.00     0.070 A
HETATM   27  C2  UNL     1      42.892  25.330  28.450  1.00  0.00     0.056 A
HETATM   28  C1  UNL     1      42.359  26.621  29.053  1.00  0.00     0.077 C
HETATM   29  O10 UNL     1      42.753  24.209  29.101  1.00  0.00    -0.280 OA
HETATM   30  C26 UNL     1      43.179  23.077  28.646  1.00  0.00     0.301 A
HETATM   31  O9  UNL     1      42.984  22.044  29.318  1.00  0.00    -0.259 OA
BRANCH  25  32
HETATM   32  O1  UNL     1      44.644  24.108  25.436  1.00  0.00    -0.360 OA
ATOM     33  H1  UNL     1      44.932  23.295  25.039  1.00  0.00     0.217 HD
ENDBRANCH  25  32
ENDBRANCH  23  24
BRANCH  22  34
HETATM   34  O2  UNL     1      46.466  22.791  27.517  1.00  0.00    -0.356 OA
ATOM     35  H2  UNL     1      46.446  23.126  28.406  1.00  0.00     0.218 HD
ENDBRANCH  22  34
ENDBRANCH  19  22
ENDBRANCH  17  18
ENDBRANCH  14  17
ENDBRANCH  12  13
ENDBRANCH   9  12
ENDBRANCH   1   8
BRANCH   2  36
HETATM   36  C15 UNL     1      54.870  25.278  24.209  1.00  0.00     0.029 A
HETATM   37  C16 UNL     1      54.539  25.259  25.546  1.00  0.00     0.017 A
HETATM   38  C17 UNL     1      55.433  24.802  26.497  1.00  0.00     0.001 A
HETATM   39  C18 UNL     1      56.670  24.363  26.184  1.00  0.00     0.003 A
HETATM   40  C19 UNL     1      57.049  24.368  24.841  1.00  0.00     0.037 A
HETATM   41  C20 UNL     1      56.155  24.812  23.922  1.00  0.00     0.078 A
BRANCH  41  42
HETATM   42  O6  UNL     1      56.528  24.830  22.566  1.00  0.00    -0.360 OA
ATOM     43  H6  UNL     1      57.446  24.993  22.389  1.00  0.00     0.217 HD
ENDBRANCH  41  42
ENDBRANCH   2  36
BRANCH   7  44
HETATM   44  C21 UNL     1      50.795  26.144  21.544  1.00  0.00     0.273 C
BRANCH  44  45
HETATM   45  C22 UNL     1      50.596  25.289  20.266  1.00  0.00     0.332 C
HETATM   46  O7  UNL     1      49.719  25.626  19.519  1.00  0.00    -0.253 OA
HETATM   47  N7  UNL     1      51.488  24.218  20.160  1.00  0.00    -0.282 NA
BRANCH  47  48
HETATM   48  N8  UNL     1      52.307  23.209  20.038  1.00  0.00    -0.198 N
HETATM   49  C23 UNL     1      53.710  23.371  19.764  1.00  0.00     0.266 C
HETATM   50  O8  UNL     1      54.152  24.579  19.678  1.00  0.00    -0.269 OA
ATOM     51  H8  UNL     1      51.936  22.264  20.142  1.00  0.00     0.205 HD
BRANCH  49  52
HETATM   52  C24 UNL     1      54.707  22.320  19.556  1.00  0.00     0.256 C
BRANCH  52  53
HETATM   53  N9  UNL     1      54.776  21.600  20.864  1.00  0.00    -0.262 N
HETATM   54  C25 UNL     1      55.708  21.837  21.840  1.00  0.00     0.220 A
HETATM   55  N10 UNL     1      55.436  21.024  22.860  1.00  0.00    -0.279 N
HETATM   56  N11 UNL     1      54.370  20.294  22.547  1.00  0.00    -0.227 N
ATOM     57  H10 UNL     1      55.957  20.970  23.734  1.00  0.00     0.189 HD
HETATM   58  N12 UNL     1      54.020  20.682  21.348  1.00  0.00    -0.225 N
ATOM     59  H11 UNL     1      53.920  19.581  23.122  1.00  0.00     0.210 HD
ATOM     60  H12 UNL     1      53.223  20.292  20.845  1.00  0.00     0.210 HD
ENDBRANCH  52  53
ENDBRANCH  49  52
ENDBRANCH  47  48
ENDBRANCH  44  45
ENDBRANCH   7  44
TORSDOF 16
ENDMDL