MODEL 5
REMARK VINA RESULT: -11.074595897      2.853      5.760
REMARK  17 active torsions:
REMARK  status: ('A' for Active; 'I' for Inactive)
REMARK    1  A    between atoms: N3_11  and  C5_12
REMARK    2  A    between atoms: C5_12  and  C6_13
REMARK    3  A    between atoms: C6_13  and  C7_14
REMARK    4  A    between atoms: C7_14  and  O4_15
REMARK    5  A    between atoms: C7_14  and  C8_17
REMARK    6  A    between atoms: C8_17  and  C9_18
REMARK    7  A    between atoms: C9_18  and  N4_20
REMARK    8  A    between atoms: C9_18  and  C18_39
REMARK    9  A    between atoms: N4_20  and  O5_21
REMARK   10  A    between atoms: O5_21  and  C11_22
REMARK   11  A    between atoms: C11_22  and  C12_27
REMARK   12  A    between atoms: N5_23  and  O6_25
REMARK   13  A    between atoms: C15_30  and  O7_31
REMARK   14  A    between atoms: C16_33  and  O8_34
REMARK   15  A    between atoms: C17_36  and  O9_37
REMARK       I    between atoms: C18_39  and  N6_41
REMARK   16  A    between atoms: C19_43  and  C20_44
REMARK   17  A    between atoms: C20_44  and  N7_45
ROOT
HETATM    1  C9  UNL     1      46.037  21.924  26.349  1.00  0.00     0.137 C
HETATM    2  C10 UNL     1      46.366  20.635  27.038  1.00  0.00     0.047 C
ENDROOT
BRANCH   1   3
HETATM    3  C8  UNL     1      47.145  22.401  25.490  1.00  0.00     0.070 C
BRANCH   3   4
HETATM    4  C7  UNL     1      47.681  23.766  25.575  1.00  0.00     0.122 C
BRANCH   4   5
HETATM    5  C6  UNL     1      48.842  24.098  24.690  1.00  0.00     0.053 C
BRANCH   5   6
HETATM    6  C5  UNL     1      50.111  24.087  25.572  1.00  0.00     0.155 C
BRANCH   6   7
HETATM    7  N3  UNL     1      51.113  23.194  25.065  1.00  0.00    -0.247 N
HETATM    8  N1  UNL     1      51.314  22.000  25.582  1.00  0.00    -0.242 N
HETATM    9  C1  UNL     1      50.520  21.510  26.718  1.00  0.00     0.183 C
HETATM   10  C2  UNL     1      52.260  21.190  25.079  1.00  0.00     0.343 A
HETATM   11  O1  UNL     1      52.458  20.053  25.566  1.00  0.00    -0.245 OA
HETATM   12  N2  UNL     1      53.034  21.554  24.042  1.00  0.00    -0.270 N
HETATM   13  C3  UNL     1      52.840  22.763  23.508  1.00  0.00     0.319 A
ATOM     14  H2  UNL     1      53.748  20.926  23.673  1.00  0.00     0.174 HD
HETATM   15  O2  UNL     1      53.574  23.104  22.528  1.00  0.00    -0.262 OA
HETATM   16  C4  UNL     1      51.877  23.606  24.009  1.00  0.00     0.330 A
HETATM   17  O3  UNL     1      51.728  24.732  23.478  1.00  0.00    -0.260 OA
ENDBRANCH   6   7
ENDBRANCH   5   6
ENDBRANCH   4   5
BRANCH   4  18
HETATM   18  O4  UNL     1      46.608  24.678  25.260  1.00  0.00    -0.395 OA
ATOM     19  H4  UNL     1      45.825  24.165  25.100  1.00  0.00     0.210 HD
ENDBRANCH   4  18
ENDBRANCH   3   4
ENDBRANCH   1   3
BRANCH   1  20
HETATM   20  N4  UNL     1      45.722  22.935  27.394  1.00  0.00    -0.073 NA
BRANCH  20  21
HETATM   21  O5  UNL     1      44.656  23.692  26.982  1.00  0.00    -0.222 OA
BRANCH  21  22
HETATM   22  C11 UNL     1      43.591  23.846  27.935  1.00  0.00     0.198 C
HETATM   23  N5  UNL     1      43.371  22.890  28.635  1.00  0.00    -0.245 N
ATOM     24  H5  UNL     1      44.077  22.244  28.282  1.00  0.00     0.196 HD
BRANCH  23  25
HETATM   25  O6  UNL     1      42.835  22.168  29.521  1.00  0.00    -0.288 OA
ATOM     26  H6  UNL     1      42.471  21.906  30.359  1.00  0.00     0.244 HD
ENDBRANCH  23  25
BRANCH  22  27
HETATM   27  C12 UNL     1      42.899  25.137  27.948  1.00  0.00     0.054 A
HETATM   28  C13 UNL     1      42.868  25.890  26.773  1.00  0.00     0.022 A
HETATM   29  C14 UNL     1      42.222  27.090  26.776  1.00  0.00     0.040 A
HETATM   30  C15 UNL     1      41.608  27.569  27.900  1.00  0.00     0.101 A
HETATM   31  C16 UNL     1      41.621  26.846  29.081  1.00  0.00     0.133 A
HETATM   32  C17 UNL     1      42.286  25.612  29.076  1.00  0.00     0.116 A
BRANCH  30  33
HETATM   33  O7  UNL     1      40.963  28.784  27.876  1.00  0.00    -0.358 OA
ATOM     34  H7  UNL     1      40.327  28.976  27.198  1.00  0.00     0.217 HD
ENDBRANCH  30  33
BRANCH  31  35
HETATM   35  O8  UNL     1      40.991  27.369  30.177  1.00  0.00    -0.356 OA
ATOM     36  H8  UNL     1      40.746  26.784  30.884  1.00  0.00     0.218 HD
ENDBRANCH  31  35
BRANCH  32  37
HETATM   37  O9  UNL     1      42.292  24.899  30.259  1.00  0.00    -0.357 OA
ATOM     38  H9  UNL     1      42.300  25.335  31.103  1.00  0.00     0.217 HD
ENDBRANCH  32  37
ENDBRANCH  22  27
ENDBRANCH  21  22
ENDBRANCH  20  21
ENDBRANCH   1  20
BRANCH   1  39
HETATM   39  C18 UNL     1      44.779  21.802  25.545  1.00  0.00     0.248 C
HETATM   40  O10 UNL     1      43.828  21.098  25.917  1.00  0.00    -0.271 OA
HETATM   41  N6  UNL     1      44.600  22.498  24.294  1.00  0.00    -0.337 N
HETATM   42  C19 UNL     1      43.518  23.153  24.162  1.00  0.00     0.084 C
ATOM     43  H6  UNL     1      45.303  22.466  23.556  1.00  0.00     0.168 HD
BRANCH  42  44
HETATM   44  C20 UNL     1      43.146  23.936  22.952  1.00  0.00     0.174 C
BRANCH  44  45
HETATM   45  N7  UNL     1      43.133  23.003  21.844  1.00  0.00    -0.338 N
HETATM   46  C21 UNL     1      42.186  22.011  21.807  1.00  0.00     0.093 A
HETATM   47  C22 UNL     1      42.164  21.124  20.765  1.00  0.00     0.018 A
HETATM   48  C23 UNL     1      43.079  21.214  19.755  1.00  0.00     0.014 A
HETATM   49  C24 UNL     1      44.032  22.203  19.782  1.00  0.00     0.010 A
HETATM   50  C25 UNL     1      44.021  23.084  20.858  1.00  0.00     0.112 A
HETATM   51  C28 UNL     1      44.893  22.106  18.617  1.00  0.00     0.221 C
HETATM   52  N8  UNL     1      44.925  24.147  21.043  1.00  0.00    -0.366 N
HETATM   53  C26 UNL     1      46.341  24.183  20.690  1.00  0.00     0.232 C
ATOM     54  H8  UNL     1      44.547  24.990  21.474  1.00  0.00     0.161 HD
HETATM   55  C27 UNL     1      46.550  23.929  19.267  1.00  0.00     0.276 C
HETATM   56  O11 UNL     1      47.560  24.450  18.746  1.00  0.00    -0.263 OA
HETATM   57  O12 UNL     1      45.769  23.184  18.433  1.00  0.00    -0.315 OA
ENDBRANCH  44  45
ENDBRANCH  42  44
ENDBRANCH   1  39
TORSDOF 17
ENDMDL