MODEL 5
REMARK VINA RESULT: -10.113117031      0.972      1.168
REMARK  19 active torsions:
REMARK  status: ('A' for Active; 'I' for Inactive)
REMARK    1  A    between atoms: C2_2  and  C3_3
REMARK    2  A    between atoms: C3_3  and  O2_5
REMARK    3  A    between atoms: O2_5  and  C4_6
REMARK    4  A    between atoms: N1_8  and  O3_9
REMARK    5  A    between atoms: O3_9  and  C6_10
REMARK    6  A    between atoms: C6_10  and  C7_11
REMARK    7  A    between atoms: C6_10  and  C8_14
REMARK    8  A    between atoms: C7_11  and  O4_12
REMARK    9  A    between atoms: C8_14  and  O6_16
REMARK   10  A    between atoms: O6_16  and  C9_17
REMARK   11  A    between atoms: C9_17  and  N2_19
REMARK   12  A    between atoms: C17_36  and  N7_37
REMARK       I    between atoms: N7_37  and  C18_39
REMARK   13  A    between atoms: C18_39  and  C19_41
REMARK   14  A    between atoms: C20_45  and  O10_46
REMARK   15  A    between atoms: O10_46  and  C21_47
REMARK   16  A    between atoms: C21_47  and  O12_49
REMARK   17  A    between atoms: O12_49  and  C22_50
REMARK   18  A    between atoms: C22_50  and  O13_53
REMARK   19  A    between atoms: C25_55  and  O14_56
ROOT
HETATM    1  C4  UNL     1      50.758  23.294  25.896  1.00  0.00     0.171 C
HETATM    2  C5  UNL     1      49.447  23.155  25.209  1.00  0.00     0.155 C
HETATM    3  N1  UNL     1      49.196  21.761  25.262  1.00  0.00    -0.191 NA
HETATM    4  C16 UNL     1      50.427  21.068  25.213  1.00  0.00     0.148 C
HETATM    5  C17 UNL     1      51.530  22.132  25.349  1.00  0.00     0.131 C
ENDROOT
BRANCH   3   6
HETATM    6  O3  UNL     1      48.328  21.354  26.083  1.00  0.00    -0.286 OA
BRANCH   6   7
HETATM    7  C6  UNL     1      48.247  20.108  26.592  1.00  0.00     0.268 C
BRANCH   7   8
HETATM    8  C7  UNL     1      48.790  19.980  28.024  1.00  0.00     0.208 C
BRANCH   8   9
HETATM    9  O4  UNL     1      49.442  21.102  28.457  1.00  0.00    -0.398 OA
ATOM     10  H4  UNL     1      49.928  20.967  29.262  1.00  0.00     0.209 HD
ENDBRANCH   8   9
ENDBRANCH   7   8
BRANCH   7  11
HETATM   11  C8  UNL     1      46.864  19.533  26.536  1.00  0.00     0.294 C
HETATM   12  O5  UNL     1      46.571  18.648  27.380  1.00  0.00    -0.262 OA
BRANCH  11  13
HETATM   13  O6  UNL     1      45.898  19.888  25.645  1.00  0.00    -0.293 OA
BRANCH  13  14
HETATM   14  C9  UNL     1      44.525  19.939  25.878  1.00  0.00     0.237 C
HETATM   15  C10 UNL     1      43.680  19.211  24.890  1.00  0.00     0.064 C
BRANCH  14  16
HETATM   16  N2  UNL     1      44.072  21.326  25.933  1.00  0.00    -0.281 N
HETATM   17  C11 UNL     1      43.708  21.964  24.796  1.00  0.00     0.190 A
HETATM   18  N3  UNL     1      43.285  23.242  24.795  1.00  0.00    -0.336 N
HETATM   19  C12 UNL     1      43.202  23.952  25.932  1.00  0.00     0.155 A
ATOM     20  H3  UNL     1      43.021  23.680  23.913  1.00  0.00     0.168 HD
HETATM   21  N4  UNL     1      42.817  25.230  26.216  1.00  0.00    -0.174 N
HETATM   22  C14 UNL     1      43.566  23.332  27.109  1.00  0.00     0.161 A
HETATM   23  C13 UNL     1      42.939  25.400  27.544  1.00  0.00     0.678 A
ATOM     24  H4  UNL     1      42.496  25.927  25.545  1.00  0.00     0.186 HD
HETATM   25  N5  UNL     1      42.675  26.475  28.235  1.00  0.00    -0.234 N
HETATM   26  N6  UNL     1      43.391  24.254  28.082  1.00  0.00    -0.183 N
ATOM     27  H52 UNL     1      42.332  27.345  27.827  1.00  0.00     0.174 HD
ATOM     28  H51 UNL     1      42.768  26.604  29.242  1.00  0.00     0.174 HD
ATOM     29  H6  UNL     1      43.573  24.102  29.075  1.00  0.00     0.184 HD
HETATM   30  C15 UNL     1      43.996  22.021  27.082  1.00  0.00     0.281 A
HETATM   31  O7  UNL     1      44.320  21.480  28.160  1.00  0.00    -0.265 OA
ENDBRANCH  14  16
ENDBRANCH  13  14
ENDBRANCH  11  13
ENDBRANCH   7  11
ENDBRANCH   6   7
ENDBRANCH   3   6
BRANCH   1  32
HETATM   32  O2  UNL     1      51.393  24.525  25.715  1.00  0.00    -0.313 OA
BRANCH  32  33
HETATM   33  C3  UNL     1      52.415  24.919  26.549  1.00  0.00     0.258 C
HETATM   34  O1  UNL     1      52.192  24.855  27.778  1.00  0.00    -0.265 OA
BRANCH  33  35
HETATM   35  C2  UNL     1      53.735  25.402  26.056  1.00  0.00     0.106 C
HETATM   36  C1  UNL     1      54.708  24.277  25.865  1.00  0.00     0.015 C
ENDBRANCH  33  35
ENDBRANCH  32  33
ENDBRANCH   1  32
BRANCH   5  37
HETATM   37  N7  UNL     1      52.031  22.532  24.048  1.00  0.00    -0.347 N
HETATM   38  C18 UNL     1      53.130  21.859  23.416  1.00  0.00     0.280 C
HETATM   39  O8  UNL     1      53.633  20.914  24.035  1.00  0.00    -0.265 OA
ATOM     40  H7  UNL     1      51.589  23.316  23.568  1.00  0.00     0.163 HD
BRANCH  38  41
HETATM   41  C19 UNL     1      53.620  22.274  22.111  1.00  0.00     0.203 A
HETATM   42  O9  UNL     1      53.129  23.211  21.328  1.00  0.00    -0.227 OA
HETATM   43  N8  UNL     1      53.812  23.313  20.248  1.00  0.00    -0.236 N
HETATM   44  C20 UNL     1      54.814  22.430  20.259  1.00  0.00     0.210 A
ATOM     45  H8  UNL     1      53.619  23.971  19.493  1.00  0.00     0.197 HD
HETATM   46  C25 UNL     1      54.703  21.743  21.468  1.00  0.00     0.161 A
BRANCH  44  47
HETATM   47  O10 UNL     1      55.794  22.185  19.311  1.00  0.00    -0.233 OA
BRANCH  47  48
HETATM   48  C21 UNL     1      56.766  23.104  19.019  1.00  0.00     0.415 C
HETATM   49  O11 UNL     1      56.973  24.041  19.857  1.00  0.00    -0.229 OA
BRANCH  48  50
HETATM   50  O12 UNL     1      57.537  23.072  17.863  1.00  0.00    -0.261 OA
BRANCH  50  51
HETATM   51  C22 UNL     1      57.004  23.459  16.602  1.00  0.00     0.165 C
HETATM   52  C23 UNL     1      56.691  22.230  15.784  1.00  0.00     0.079 C
HETATM   53  C24 UNL     1      57.991  24.377  15.924  1.00  0.00     0.079 C
BRANCH  51  54
HETATM   54  O13 UNL     1      55.808  24.187  16.782  1.00  0.00    -0.365 OA
ATOM     55  H13 UNL     1      55.116  23.610  17.084  1.00  0.00     0.213 HD
ENDBRANCH  51  54
ENDBRANCH  50  51
ENDBRANCH  48  50
ENDBRANCH  47  48
ENDBRANCH  44  47
BRANCH  46  56
HETATM   56  O14 UNL     1      55.561  20.741  21.856  1.00  0.00    -0.354 OA
ATOM     57  H14 UNL     1      55.557  19.814  21.644  1.00  0.00     0.218 HD
ENDBRANCH  46  56
ENDBRANCH  38  41
ENDBRANCH   5  37
TORSDOF 19
ENDMDL