MODEL 1
REMARK VINA RESULT: -9.787503401      0.000      0.000
REMARK  18 active torsions:
REMARK  status: ('A' for Active; 'I' for Inactive)
REMARK    1  A    between atoms: C2_2  and  O2_4
REMARK    2  A    between atoms: O2_4  and  C3_5
REMARK    3  A    between atoms: C3_5  and  C4_6
REMARK    4  A    between atoms: C4_6  and  O3_7
REMARK    5  A    between atoms: C6_10  and  O4_11
REMARK    6  A    between atoms: O4_11  and  C7_12
REMARK    7  A    between atoms: C10_15  and  C11_16
REMARK    8  A    between atoms: C14_21  and  O7_22
REMARK    9  A    between atoms: O7_22  and  N1_23
REMARK   10  A    between atoms: C20_32  and  N2_33
REMARK   11  A    between atoms: C20_32  and  C22_37
REMARK   12  A    between atoms: N4_41  and  O10_43
REMARK   13  A    between atoms: C24_45  and  O11_46
REMARK   14  A    between atoms: C24_45  and  C25_48
REMARK   15  A    between atoms: C25_48  and  O12_49
REMARK   16  A    between atoms: C25_48  and  C26_51
REMARK   17  A    between atoms: C26_51  and  O13_52
REMARK   18  A    between atoms: C26_51  and  O14_54
ROOT
HETATM    1  N2  UNL     1      50.272  22.776  27.154  1.00  0.00    -0.303 N
ATOM      2  H2  UNL     1      49.677  23.511  27.536  1.00  0.00     0.173 HD
HETATM    3  C21 UNL     1      50.255  21.478  27.663  1.00  0.00     0.178 C
HETATM    4  N3  UNL     1      50.250  20.400  28.075  1.00  0.00    -0.172 NA
ENDROOT
BRANCH   1   5
HETATM    5  C20 UNL     1      51.193  23.029  26.035  1.00  0.00     0.179 C
HETATM    6  C15 UNL     1      50.523  23.614  24.870  1.00  0.00     0.069 C
HETATM    7  N1  UNL     1      49.289  23.416  24.559  1.00  0.00    -0.269 N
HETATM    8  C16 UNL     1      51.241  24.486  23.884  1.00  0.00     0.055 C
ATOM      9  H1  UNL     1      48.988  23.879  23.701  1.00  0.00     0.194 HD
HETATM   10  C17 UNL     1      51.530  25.845  24.420  1.00  0.00     0.034 C
HETATM   11  C18 UNL     1      50.343  24.711  22.637  1.00  0.00     0.034 C
HETATM   12  S1  UNL     1      52.682  23.591  23.245  1.00  0.00    -0.082 SA
HETATM   13  S2  UNL     1      52.801  21.714  24.213  1.00  0.00    -0.093 SA
HETATM   14  C19 UNL     1      51.774  21.647  25.675  1.00  0.00     0.135 C
BRANCH   7  15
HETATM   15  O7  UNL     1      48.356  22.719  25.159  1.00  0.00    -0.262 OA
BRANCH  15  16
HETATM   16  C14 UNL     1      47.365  21.904  24.560  1.00  0.00     0.259 C
HETATM   17  C6  UNL     1      46.073  22.596  24.813  1.00  0.00     0.090 C
HETATM   18  C5  UNL     1      45.051  22.076  25.425  1.00  0.00     0.052 C
HETATM   19  C4  UNL     1      45.119  20.692  25.932  1.00  0.00     0.139 C
HETATM   20  C24 UNL     1      46.538  20.423  26.381  1.00  0.00     0.168 C
HETATM   21  C23 UNL     1      47.430  20.597  25.268  1.00  0.00     0.088 C
HETATM   22  N4  UNL     1      48.277  19.776  24.799  1.00  0.00    -0.271 N
ATOM     23  H4  UNL     1      48.339  18.874  25.270  1.00  0.00     0.193 HD
BRANCH  17  24
HETATM   24  O4  UNL     1      46.010  23.887  24.338  1.00  0.00    -0.312 OA
BRANCH  24  25
HETATM   25  C7  UNL     1      44.963  24.755  24.410  1.00  0.00     0.075 A
HETATM   26  C8  UNL     1      43.979  24.835  23.465  1.00  0.00     0.038 A
HETATM   27  C9  UNL     1      42.936  25.716  23.559  1.00  0.00     0.021 A
HETATM   28  C10 UNL     1      42.868  26.561  24.648  1.00  0.00     0.041 A
HETATM   29  C12 UNL     1      43.846  26.509  25.624  1.00  0.00     0.021 A
HETATM   30  C13 UNL     1      44.876  25.618  25.502  1.00  0.00     0.038 A
BRANCH  28  31
HETATM   31  C11 UNL     1      41.764  27.502  24.758  1.00  0.00     0.209 C
HETATM   32  O5  UNL     1      41.256  27.772  25.888  1.00  0.00    -0.644 OA
HETATM   33  O6  UNL     1      41.251  28.118  23.627  1.00  0.00    -0.644 OA
ENDBRANCH  28  31
ENDBRANCH  24  25
ENDBRANCH  17  24
BRANCH  19  34
HETATM   34  C3  UNL     1      44.593  19.804  24.862  1.00  0.00     0.224 C
BRANCH  34  35
HETATM   35  O2  UNL     1      43.470  19.062  25.177  1.00  0.00    -0.318 OA
BRANCH  35  36
HETATM   36  C2  UNL     1      42.314  19.258  24.433  1.00  0.00     0.254 C
HETATM   37  C1  UNL     1      41.841  20.611  24.048  1.00  0.00     0.126 C
HETATM   38  O1  UNL     1      41.626  18.271  24.060  1.00  0.00    -0.266 OA
ENDBRANCH  35  36
ENDBRANCH  34  35
ENDBRANCH  19  34
BRANCH  19  39
HETATM   39  O3  UNL     1      44.259  20.609  27.056  1.00  0.00    -0.380 OA
ATOM     40  H3  UNL     1      43.938  21.480  27.258  1.00  0.00     0.211 HD
ENDBRANCH  19  39
BRANCH  20  41
HETATM   41  O11 UNL     1      46.803  21.515  27.269  1.00  0.00    -0.377 OA
ATOM     42  H11 UNL     1      45.982  21.611  27.737  1.00  0.00     0.211 HD
ENDBRANCH  20  41
BRANCH  20  43
HETATM   43  C25 UNL     1      46.569  19.210  27.190  1.00  0.00     0.216 C
BRANCH  43  44
HETATM   44  O12 UNL     1      45.973  18.130  26.549  1.00  0.00    -0.387 OA
ATOM     45  H12 UNL     1      46.596  17.619  26.045  1.00  0.00     0.210 HD
ENDBRANCH  43  44
BRANCH  43  46
HETATM   46  C26 UNL     1      47.853  18.754  27.773  1.00  0.00     0.285 C
BRANCH  46  47
HETATM   47  O13 UNL     1      47.900  19.271  29.096  1.00  0.00    -0.369 OA
ATOM     48  H13 UNL     1      48.732  19.723  29.180  1.00  0.00     0.212 HD
ENDBRANCH  46  47
BRANCH  46  49
HETATM   49  O14 UNL     1      47.955  17.372  27.958  1.00  0.00    -0.369 OA
ATOM     50  H14 UNL     1      48.388  17.108  28.761  1.00  0.00     0.212 HD
ENDBRANCH  46  49
ENDBRANCH  43  46
ENDBRANCH  20  43
BRANCH  22  51
HETATM   51  O10 UNL     1      49.101  19.961  23.753  1.00  0.00    -0.290 OA
ATOM     52  H10 UNL     1      48.870  19.976  22.832  1.00  0.00     0.244 HD
ENDBRANCH  22  51
ENDBRANCH  15  16
ENDBRANCH   7  15
BRANCH   5  53
HETATM   53  C22 UNL     1      52.305  23.799  26.630  1.00  0.00     0.210 C
HETATM   54  O8  UNL     1      52.039  24.707  27.508  1.00  0.00    -0.646 OA
HETATM   55  O9  UNL     1      53.647  23.677  26.372  1.00  0.00    -0.646 OA
ENDBRANCH   5  53
ENDBRANCH   1   5
TORSDOF 18
ENDMDL