MODEL 5
REMARK VINA RESULT: -9.000010952      1.666      1.990
REMARK  17 active torsions:
REMARK  status: ('A' for Active; 'I' for Inactive)
REMARK    1  A    between atoms: N1_1  and  N2_4
REMARK    2  A    between atoms: N2_4  and  S1_6
REMARK    3  A    between atoms: S1_6  and  C1_9
REMARK    4  A    between atoms: C2_14  and  N5_15
REMARK       I    between atoms: N5_15  and  C3_17
REMARK    5  A    between atoms: C3_17  and  C4_19
REMARK    6  A    between atoms: C4_19  and  N6_20
REMARK    7  A    between atoms: C4_19  and  C12_38
REMARK       I    between atoms: N6_20  and  C5_22
REMARK    8  A    between atoms: C5_22  and  C6_24
REMARK    9  A    between atoms: N7_28  and  C8_29
REMARK   10  A    between atoms: C8_29  and  O5_30
REMARK   11  A    between atoms: O5_30  and  C9_31
REMARK   12  A    between atoms: C9_31  and  C10_32
REMARK   13  A    between atoms: C10_32  and  O6_33
REMARK   14  A    between atoms: C11_35  and  O7_36
REMARK   15  A    between atoms: C16_42  and  O8_43
REMARK   16  A    between atoms: O8_43  and  S4_44
REMARK   17  A    between atoms: N8_49  and  N9_50
ROOT
HETATM    1  C4  UNL     1      52.416  23.124  24.500  1.00  0.00     0.211 C
ENDROOT
BRANCH   1   2
HETATM    2  C3  UNL     1      53.346  22.032  24.177  1.00  0.00     0.263 C
HETATM    3  N5  UNL     1      54.547  22.291  23.522  1.00  0.00    -0.154 N
ATOM      4  H5  UNL     1      55.282  22.688  24.108  1.00  0.00     0.187 HD
HETATM    5  O3  UNL     1      53.070  20.824  24.494  1.00  0.00    -0.270 OA
BRANCH   3   6
HETATM    6  C2  UNL     1      54.865  22.110  22.311  1.00  0.00     0.722 A
HETATM    7  N4  UNL     1      54.671  20.964  21.620  1.00  0.00    -0.128 N
HETATM    8  N3  UNL     1      55.122  21.158  20.406  1.00  0.00    -0.258 N
ATOM      9  H4  UNL     1      54.250  20.107  21.978  1.00  0.00     0.205 HD
HETATM   10  C1  UNL     1      55.609  22.413  20.293  1.00  0.00     0.278 A
ATOM     11  H3  UNL     1      55.108  20.465  19.657  1.00  0.00     0.190 HD
HETATM   12  N8  UNL     1      55.441  22.982  21.477  1.00  0.00    -0.060 N
BRANCH  10  13
HETATM   13  S1  UNL     1      56.307  23.087  18.827  1.00  0.00     0.311 S
HETATM   14  O1  UNL     1      56.660  24.531  18.987  1.00  0.00    -0.196 OA
HETATM   15  O2  UNL     1      57.605  22.341  18.553  1.00  0.00    -0.196 OA
BRANCH  13  16
HETATM   16  N2  UNL     1      55.262  22.918  17.482  1.00  0.00    -0.227 N
ATOM     17  H2  UNL     1      54.256  22.750  17.521  1.00  0.00     0.199 HD
BRANCH  16  18
HETATM   18  N1  UNL     1      56.039  23.051  16.305  1.00  0.00    -0.336 N
ATOM     19  H12 UNL     1      56.934  23.536  16.243  1.00  0.00     0.177 HD
ATOM     20  H11 UNL     1      55.545  22.581  15.547  1.00  0.00     0.177 HD
ENDBRANCH  16  18
ENDBRANCH  13  16
ENDBRANCH  10  13
BRANCH  12  21
HETATM   21  N9  UNL     1      55.808  24.289  21.812  1.00  0.00    -0.322 N
ATOM     22  H92 UNL     1      55.997  25.033  21.141  1.00  0.00     0.178 HD
ATOM     23  H91 UNL     1      55.927  24.648  22.759  1.00  0.00     0.178 HD
ENDBRANCH  12  21
ENDBRANCH   3   6
ENDBRANCH   1   2
BRANCH   1  24
HETATM   24  N6  UNL     1      51.071  22.637  24.660  1.00  0.00    -0.339 N
HETATM   25  C5  UNL     1      50.191  23.278  25.543  1.00  0.00     0.264 C
HETATM   26  O4  UNL     1      50.560  24.278  26.202  1.00  0.00    -0.267 OA
ATOM     27  H6  UNL     1      50.757  21.824  24.129  1.00  0.00     0.164 HD
BRANCH  25  28
HETATM   28  C6  UNL     1      48.800  22.790  25.723  1.00  0.00     0.126 A
HETATM   29  S2  UNL     1      47.334  23.657  25.605  1.00  0.00    -0.050 SA
HETATM   30  C7  UNL     1      46.265  22.373  25.935  1.00  0.00     0.149 A
HETATM   31  S3  UNL     1      44.607  22.395  26.011  1.00  0.00    -0.052 SA
HETATM   32  N7  UNL     1      47.086  21.332  26.122  1.00  0.00    -0.289 N
HETATM   33  C11 UNL     1      48.368  21.528  26.017  1.00  0.00     0.168 A
BRANCH  32  34
HETATM   34  C8  UNL     1      46.477  20.007  26.424  1.00  0.00     0.302 C
BRANCH  34  35
HETATM   35  O5  UNL     1      46.748  19.574  27.689  1.00  0.00    -0.369 OA
BRANCH  35  36
HETATM   36  C9  UNL     1      47.321  18.340  27.824  1.00  0.00     0.196 C
BRANCH  36  37
HETATM   37  C10 UNL     1      48.309  18.430  28.990  1.00  0.00     0.190 C
BRANCH  37  38
HETATM   38  O6  UNL     1      49.018  19.632  28.952  1.00  0.00    -0.399 OA
ATOM     39  H6  UNL     1      49.754  19.574  28.353  1.00  0.00     0.209 HD
ENDBRANCH  37  38
ENDBRANCH  36  37
ENDBRANCH  35  36
ENDBRANCH  34  35
ENDBRANCH  32  34
BRANCH  33  40
HETATM   40  O7  UNL     1      49.335  20.491  26.194  1.00  0.00    -0.345 OA
ATOM     41  H7  UNL     1      49.301  19.729  25.627  1.00  0.00     0.219 HD
ENDBRANCH  33  40
ENDBRANCH  25  28
ENDBRANCH   1  24
BRANCH   1  42
HETATM   42  C12 UNL     1      52.430  24.213  23.456  1.00  0.00    -0.024 A
HETATM   43  C13 UNL     1      53.049  25.398  23.763  1.00  0.00     0.010 A
HETATM   44  C14 UNL     1      53.050  26.392  22.800  1.00  0.00     0.003 A
HETATM   45  C15 UNL     1      52.455  26.214  21.570  1.00  0.00     0.038 A
HETATM   46  C16 UNL     1      51.834  25.006  21.286  1.00  0.00     0.092 A
HETATM   47  C17 UNL     1      51.832  24.028  22.229  1.00  0.00     0.048 A
BRANCH  46  48
HETATM   48  O8  UNL     1      51.255  24.898  20.032  1.00  0.00    -0.214 OA
BRANCH  48  49
HETATM   49  S4  UNL     1      49.706  25.596  19.758  1.00  0.00     0.256 S
HETATM   50  O9  UNL     1      48.872  25.501  21.006  1.00  0.00    -0.572 OA
HETATM   51  O10 UNL     1      49.832  27.022  19.339  1.00  0.00    -0.572 OA
HETATM   52  O11 UNL     1      48.936  24.712  18.569  1.00  0.00    -0.572 OA
ENDBRANCH  48  49
ENDBRANCH  46  48
ENDBRANCH   1  42
TORSDOF 17
ENDMDL