MODEL 1
REMARK VINA RESULT: -11.056655376      0.000      0.000
REMARK  15 active torsions:
REMARK  status: ('A' for Active; 'I' for Inactive)
REMARK    1  A    between atoms: O1_2  and  C2_3
REMARK    2  A    between atoms: C3_4  and  N1_5
REMARK    3  A    between atoms: N2_10  and  C5_11
REMARK    4  A    between atoms: C6_14  and  N4_15
REMARK    5  A    between atoms: C10_21  and  N5_22
REMARK    6  A    between atoms: N5_22  and  C11_24
REMARK    7  A    between atoms: C12_27  and  N7_28
REMARK    8  A    between atoms: C17_36  and  N9_37
REMARK    9  A    between atoms: C22_56  and  O4_57
REMARK   10  A    between atoms: O4_57  and  C23_58
REMARK   11  A    between atoms: C23_58  and  C24_59
REMARK   12  A    between atoms: C24_59  and  N15_60
REMARK   13  A    between atoms: N15_60  and  C26_62
REMARK   14  A    between atoms: C26_62  and  C27_63
REMARK   15  A    between atoms: C27_63  and  C28_64
ROOT
HETATM    1  C5  UNL     1      52.741  23.459  22.571  1.00  0.00     0.683 A
HETATM    2  N3  UNL     1      51.740  24.383  22.414  1.00  0.00    -0.176 N
ATOM      3  H3  UNL     1      51.851  25.114  21.711  1.00  0.00     0.186 HD
HETATM    4  C6  UNL     1      50.621  24.358  23.154  1.00  0.00     0.128 A
HETATM    5  C7  UNL     1      50.451  23.378  24.112  1.00  0.00     0.054 A
HETATM    6  C8  UNL     1      49.304  23.331  24.896  1.00  0.00     0.039 A
HETATM    7  C9  UNL     1      49.157  22.346  25.854  1.00  0.00     0.061 A
HETATM    8  C10 UNL     1      48.022  22.258  26.666  1.00  0.00     0.138 A
HETATM    9  N11 UNL     1      47.930  21.286  27.582  1.00  0.00    -0.307 N
ATOM     10  H11 UNL     1      47.115  21.201  28.189  1.00  0.00     0.171 HD
HETATM   11  C18 UNL     1      48.975  20.417  27.668  1.00  0.00     0.225 A
HETATM   12  N12 UNL     1      48.856  19.481  28.570  1.00  0.00    -0.365 N
ATOM     13 1H12 UNL     1      49.639  18.830  28.635  1.00  0.00     0.159 HD
ATOM     14 2H12 UNL     1      48.030  19.415  29.165  1.00  0.00     0.159 HD
HETATM   15  O3  UNL     1      50.035  20.502  26.904  1.00  0.00    -0.261 OA
HETATM   16  C19 UNL     1      50.175  21.444  25.985  1.00  0.00     0.167 A
HETATM   17  N13 UNL     1      51.293  21.494  25.216  1.00  0.00    -0.321 N
ATOM     18  H13 UNL     1      52.028  20.799  25.347  1.00  0.00     0.169 HD
HETATM   19  C20 UNL     1      51.440  22.444  24.288  1.00  0.00     0.137 A
HETATM   20  N14 UNL     1      52.547  22.526  23.506  1.00  0.00    -0.175 N
ATOM     21  H14 UNL     1      53.278  21.827  23.642  1.00  0.00     0.186 HD
ENDROOT
BRANCH   1  22
HETATM   22  N2  UNL     1      53.890  23.579  21.747  1.00  0.00    -0.213 N
HETATM   23  C4  UNL     1      53.957  22.836  20.472  1.00  0.00     0.177 C
HETATM   24  C3  UNL     1      55.092  21.854  20.560  1.00  0.00     0.233 C
HETATM   25  C2  UNL     1      56.382  22.504  21.011  1.00  0.00     0.183 C
HETATM   26  C22 UNL     1      56.204  23.376  22.205  1.00  0.00     0.171 C
HETATM   27  C21 UNL     1      55.066  24.362  22.041  1.00  0.00     0.175 C
BRANCH  24  28
HETATM   28  N1  UNL     1      54.736  20.741  21.411  1.00  0.00    -0.071 N
ATOM     29  H13 UNL     1      53.908  20.256  21.065  1.00  0.00     0.274 HD
ATOM     30  H12 UNL     1      55.410  19.978  21.330  1.00  0.00     0.274 HD
ATOM     31  H11 UNL     1      54.620  21.035  22.380  1.00  0.00     0.274 HD
ENDBRANCH  24  28
BRANCH  25  32
HETATM   32  O1  UNL     1      56.895  23.232  19.939  1.00  0.00    -0.386 OA
HETATM   33  C1  UNL     1      57.339  22.463  18.896  1.00  0.00     0.202 C
ENDBRANCH  25  32
BRANCH  26  34
HETATM   34  O4  UNL     1      57.393  23.877  22.592  1.00  0.00    -0.380 OA
BRANCH  34  35
HETATM   35  C23 UNL     1      57.398  24.709  23.684  1.00  0.00     0.188 C
BRANCH  35  36
HETATM   36  C24 UNL     1      56.662  24.088  24.862  1.00  0.00     0.147 C
BRANCH  36  37
HETATM   37  N15 UNL     1      55.695  24.930  25.462  1.00  0.00    -0.395 N
HETATM   38  C25 UNL     1      55.546  26.166  24.805  1.00  0.00     0.148 C
BRANCH  37  39
HETATM   39  C26 UNL     1      54.505  24.356  25.927  1.00  0.00     0.068 C
BRANCH  39  40
HETATM   40  C27 UNL     1      53.268  25.177  25.826  1.00  0.00     0.157 C
BRANCH  40  41
HETATM   41  C28 UNL     1      52.307  25.076  26.919  1.00  0.00     0.177 C
HETATM   42  O5  UNL     1      51.809  26.138  27.428  1.00  0.00    -0.648 OA
HETATM   43  O6  UNL     1      51.868  23.867  27.480  1.00  0.00    -0.648 OA
ENDBRANCH  40  41
ENDBRANCH  39  40
ENDBRANCH  37  39
ENDBRANCH  36  37
ENDBRANCH  35  36
ENDBRANCH  34  35
ENDBRANCH  26  34
ENDBRANCH   1  22
BRANCH   4  44
HETATM   44  N4  UNL     1      49.681  25.219  23.009  1.00  0.00    -0.384 N
ATOM     45  H42 UNL     1      48.753  24.870  22.767  1.00  0.00     0.157 HD
ATOM     46  H41 UNL     1      49.832  26.220  23.127  1.00  0.00     0.157 HD
ENDBRANCH   4  44
BRANCH   8  47
HETATM   47  N5  UNL     1      47.097  23.102  26.505  1.00  0.00    -0.174 N
ATOM     48  H5  UNL     1      47.430  24.024  26.220  1.00  0.00     0.186 HD
BRANCH  47  49
HETATM   49  C11 UNL     1      45.721  23.024  26.638  1.00  0.00     0.713 A
HETATM   50  N6  UNL     1      45.080  24.044  27.252  1.00  0.00    -0.021 N
HETATM   51  C12 UNL     1      43.766  24.050  27.405  1.00  0.00     0.709 A
ATOM     52  H6  UNL     1      45.625  24.830  27.606  1.00  0.00     0.203 HD
HETATM   53  N8  UNL     1      43.013  23.015  26.942  1.00  0.00    -0.022 N
HETATM   54  C17 UNL     1      43.609  21.985  26.327  1.00  0.00     0.705 A
ATOM     55  H8  UNL     1      42.000  23.024  27.062  1.00  0.00     0.203 HD
HETATM   56  N10 UNL     1      44.951  22.028  26.196  1.00  0.00    -0.021 N
ATOM     57  H10 UNL     1      45.408  21.245  25.729  1.00  0.00     0.203 HD
BRANCH  51  58
HETATM   58  N7  UNL     1      43.120  25.171  28.042  1.00  0.00    -0.213 N
HETATM   59  C13 UNL     1      42.807  25.058  29.445  1.00  0.00     0.167 C
HETATM   60  C14 UNL     1      41.810  26.117  29.821  1.00  0.00     0.188 C
HETATM   61  O2  UNL     1      42.219  27.325  29.268  1.00  0.00    -0.388 OA
HETATM   62  C15 UNL     1      41.830  27.262  27.909  1.00  0.00     0.188 C
HETATM   63  C16 UNL     1      42.839  26.324  27.239  1.00  0.00     0.167 C
ENDBRANCH  51  58
BRANCH  54  64
HETATM   64  N9  UNL     1      42.934  20.972  25.863  1.00  0.00    -0.234 N
ATOM     65  H92 UNL     1      42.037  21.119  25.401  1.00  0.00     0.174 HD
ATOM     66  H91 UNL     1      43.271  20.013  25.946  1.00  0.00     0.174 HD
ENDBRANCH  54  64
ENDBRANCH  47  49
ENDBRANCH   8  47
TORSDOF 15
ENDMDL