MODEL 5
REMARK VINA RESULT: -9.388513575      3.317      7.349
REMARK  17 active torsions:
REMARK  status: ('A' for Active; 'I' for Inactive)
REMARK    1  A    between atoms: O1_2  and  C2_3
REMARK    2  A    between atoms: C2_3  and  C3_5
REMARK    3  A    between atoms: C3_5  and  O3_6
REMARK    4  A    between atoms: C3_5  and  C4_8
REMARK    5  A    between atoms: C3_5  and  O4_10
REMARK    6  A    between atoms: O4_10  and  N1_11
REMARK    7  A    between atoms: C5_13  and  C6_14
REMARK    8  A    between atoms: C5_13  and  N8_41
REMARK    9  A    between atoms: C6_14  and  C7_15
REMARK       I    between atoms: C7_15  and  N2_17
REMARK   10  A    between atoms: C11_22  and  N3_23
REMARK   11  A    between atoms: C11_22  and  C12_27
REMARK   12  A    between atoms: C14_32  and  C15_33
REMARK       I    between atoms: N8_41  and  C17_43
REMARK   13  A    between atoms: C17_43  and  C18_45
REMARK   14  A    between atoms: C19_48  and  O9_49
REMARK   15  A    between atoms: C20_51  and  N10_52
REMARK   16  A    between atoms: N10_52  and  O10_53
REMARK   17  A    between atoms: N10_52  and  O11_55
ROOT
HETATM    1  N1  UNL     1      44.154  20.903  22.501  1.00  0.00    -0.250 N
ATOM      2  H1  UNL     1      44.991  20.594  22.007  1.00  0.00     0.196 HD
HETATM    3  C5  UNL     1      44.253  21.374  23.616  1.00  0.00     0.113 C
ENDROOT
BRANCH   3   4
HETATM    4  C6  UNL     1      46.056  21.089  23.424  1.00  0.00     0.181 C
BRANCH   4   5
HETATM    5  C7  UNL     1      46.512  22.429  23.609  1.00  0.00     0.232 C
HETATM    6  O5  UNL     1      46.066  23.399  22.976  1.00  0.00    -0.273 OA
HETATM    7  N2  UNL     1      47.563  22.697  24.581  1.00  0.00    -0.301 N
HETATM    8  C8  UNL     1      48.226  23.939  24.825  1.00  0.00     0.170 C
HETATM    9  C13 UNL     1      48.113  21.735  25.532  1.00  0.00     0.115 C
HETATM   10  C9  UNL     1      49.474  23.551  25.590  1.00  0.00     0.169 C
HETATM   11  S2  UNL     1      50.992  23.937  24.677  1.00  0.00    -0.137 SA
HETATM   12  N4  UNL     1      49.514  22.069  25.569  1.00  0.00    -0.309 N
HETATM   13  C10 UNL     1      51.578  22.237  24.456  1.00  0.00     0.149 C
HETATM   14  C11 UNL     1      50.868  21.579  25.634  1.00  0.00     0.296 C
HETATM   15  C14 UNL     1      47.374  20.876  26.160  1.00  0.00     0.098 C
BRANCH  14  16
HETATM   16  N3  UNL     1      50.936  20.171  25.384  1.00  0.00    -0.041 N
ATOM     17  H33 UNL     1      51.255  19.936  24.445  1.00  0.00     0.278 HD
ATOM     18  H32 UNL     1      51.689  19.701  25.887  1.00  0.00     0.278 HD
ATOM     19  H31 UNL     1      50.009  19.809  25.604  1.00  0.00     0.278 HD
ENDBRANCH  14  16
BRANCH  14  20
HETATM   20  C12 UNL     1      51.470  21.880  26.893  1.00  0.00     0.233 C
HETATM   21  O6  UNL     1      52.335  22.550  27.305  1.00  0.00    -0.645 OA
HETATM   22  O7  UNL     1      50.824  21.147  28.053  1.00  0.00    -0.645 OA
ENDBRANCH  14  20
BRANCH  15  23
HETATM   23  C15 UNL     1      47.641  19.828  27.116  1.00  0.00     0.124 A
HETATM   24  N5  UNL     1      48.307  19.843  28.330  1.00  0.00    -0.336 N
HETATM   25  C16 UNL     1      48.201  18.518  28.785  1.00  0.00     0.199 A
ATOM     26  H5  UNL     1      48.766  20.630  28.787  1.00  0.00     0.168 HD
HETATM   27  N6  UNL     1      47.535  17.815  27.902  1.00  0.00    -0.295 N
HETATM   28  N7  UNL     1      47.218  18.613  26.929  1.00  0.00    -0.284 N
ATOM     29  H6  UNL     1      47.306  16.823  27.968  1.00  0.00     0.187 HD
ATOM     30  H7  UNL     1      46.695  18.318  26.105  1.00  0.00     0.188 HD
ENDBRANCH  15  23
ENDBRANCH   4   5
ENDBRANCH   3   4
BRANCH   3  31
HETATM   31  N8  UNL     1      44.368  21.886  24.842  1.00  0.00    -0.309 N
HETATM   32  C17 UNL     1      43.579  23.088  25.159  1.00  0.00     0.280 C
HETATM   33  O8  UNL     1      42.931  23.681  24.219  1.00  0.00    -0.265 OA
ATOM     34  H8  UNL     1      44.982  21.459  25.537  1.00  0.00     0.170 HD
BRANCH  32  35
HETATM   35  C18 UNL     1      43.546  23.564  26.526  1.00  0.00     0.146 A
HETATM   36  N9  UNL     1      43.331  22.673  27.553  1.00  0.00    -0.325 N
HETATM   37  C19 UNL     1      43.126  23.192  28.699  1.00  0.00     0.174 A
ATOM     38  H9  UNL     1      43.337  21.664  27.407  1.00  0.00     0.169 HD
HETATM   39  C20 UNL     1      43.131  24.486  28.948  1.00  0.00     0.159 A
HETATM   40  S3  UNL     1      43.450  25.064  27.335  1.00  0.00    -0.046 SA
BRANCH  37  41
HETATM   41  O9  UNL     1      42.868  22.299  29.846  1.00  0.00    -0.344 OA
ATOM     42  H9  UNL     1      43.211  22.540  30.699  1.00  0.00     0.219 HD
ENDBRANCH  37  41
BRANCH  39  43
HETATM   43  N10 UNL     1      42.972  25.246  30.151  1.00  0.00    -0.025 NA
BRANCH  43  44
HETATM   44  O10 UNL     1      42.053  24.637  30.907  1.00  0.00    -0.284 OA
ATOM     45  H10 UNL     1      41.285  24.483  30.370  1.00  0.00     0.240 HD
ENDBRANCH  43  44
BRANCH  43  46
HETATM   46  O11 UNL     1      42.588  26.525  29.903  1.00  0.00    -0.284 OA
ATOM     47  H11 UNL     1      43.278  27.150  30.096  1.00  0.00     0.240 HD
ENDBRANCH  43  46
ENDBRANCH  39  43
ENDBRANCH  32  35
ENDBRANCH   3  31
BRANCH   1  48
HETATM   48  O4  UNL     1      42.895  20.780  21.886  1.00  0.00    -0.227 OA
BRANCH  48  49
HETATM   49  C3  UNL     1      42.750  20.544  20.510  1.00  0.00     0.285 C
BRANCH  49  50
HETATM   50  C2  UNL     1      43.904  19.723  20.074  1.00  0.00     0.324 C
HETATM   51  O2  UNL     1      44.872  20.219  19.462  1.00  0.00    -0.259 OA
BRANCH  50  52
HETATM   52  O1  UNL     1      43.970  18.319  20.325  1.00  0.00    -0.322 OA
HETATM   53  C1  UNL     1      44.478  17.498  19.243  1.00  0.00     0.213 C
ENDBRANCH  50  52
ENDBRANCH  49  50
BRANCH  49  54
HETATM   54  O3  UNL     1      42.654  21.767  19.838  1.00  0.00    -0.355 OA
ATOM     55  H3  UNL     1      41.759  22.052  19.699  1.00  0.00     0.213 HD
ENDBRANCH  49  54
BRANCH  49  56
HETATM   56  C4  UNL     1      41.428  19.793  20.336  1.00  0.00     0.168 C
HETATM   57  S1  UNL     1      40.212  20.515  21.499  1.00  0.00    -0.091 SA
ENDBRANCH  49  56
ENDBRANCH  48  49
ENDBRANCH   1  48
TORSDOF 17
ENDMDL