MODEL 2
REMARK VINA RESULT: -10.694507154      1.938      3.131
REMARK  17 active torsions:
REMARK  status: ('A' for Active; 'I' for Inactive)
REMARK    1  A    between atoms: O1_2  and  C2_3
REMARK    2  A    between atoms: C2_3  and  C3_5
REMARK    3  A    between atoms: C3_5  and  O3_6
REMARK    4  A    between atoms: C3_5  and  C6_10
REMARK    5  A    between atoms: O3_6  and  C4_7
REMARK    6  A    between atoms: C7_11  and  O5_12
REMARK    7  A    between atoms: O5_12  and  C8_13
REMARK    8  A    between atoms: C8_13  and  C9_15
REMARK    9  A    between atoms: C11_17  and  O7_18
REMARK   10  A    between atoms: C12_20  and  O8_21
REMARK   11  A    between atoms: C13_23  and  O9_24
REMARK   12  A    between atoms: C16_28  and  C17_29
REMARK       I    between atoms: C17_29  and  N1_31
REMARK   13  A    between atoms: N1_31  and  C18_33
REMARK   14  A    between atoms: C18_33  and  C19_34
REMARK   15  A    between atoms: C18_33  and  C26_49
REMARK   16  A    between atoms: C19_34  and  N2_35
REMARK   17  A    between atoms: C21_39  and  N3_40
REMARK       I    between atoms: N3_40  and  C22_42
ROOT
HETATM    1  C6  UNL     1      44.577  22.712  24.455  1.00  0.00     0.057 C
HETATM    2  C7  UNL     1      45.288  23.709  24.951  1.00  0.00     0.071 C
HETATM    3  C15 UNL     1      46.700  23.281  25.156  1.00  0.00     0.088 C
HETATM    4  C16 UNL     1      46.850  22.060  24.275  1.00  0.00     0.158 C
HETATM    5  C27 UNL     1      45.448  21.549  24.287  1.00  0.00     0.174 C
HETATM    6  O17 UNL     1      45.164  20.334  24.169  1.00  0.00    -0.292 OA
ENDROOT
BRANCH   4   7
HETATM    7  C17 UNL     1      47.792  21.107  24.951  1.00  0.00     0.230 C
HETATM    8  O10 UNL     1      48.422  20.339  24.190  1.00  0.00    -0.273 OA
HETATM    9  N1  UNL     1      47.942  21.090  26.345  1.00  0.00    -0.344 N
ATOM     10  H1  UNL     1      47.396  21.739  26.913  1.00  0.00     0.163 HD
BRANCH   9  11
HETATM   11  C18 UNL     1      48.850  20.176  26.995  1.00  0.00     0.206 C
BRANCH  11  12
HETATM   12  C19 UNL     1      50.030  20.973  27.466  1.00  0.00     0.196 C
BRANCH  12  13
HETATM   13  N2  UNL     1      50.570  21.846  26.458  1.00  0.00    -0.209 N
HETATM   14  O11 UNL     1      50.015  23.019  26.243  1.00  0.00    -0.188 OA
HETATM   15  C20 UNL     1      50.450  23.836  25.320  1.00  0.00     0.334 A
HETATM   16  O12 UNL     1      49.871  24.942  25.170  1.00  0.00    -0.256 OA
HETATM   17  C21 UNL     1      51.519  23.531  24.504  1.00  0.00     0.142 A
HETATM   18  C24 UNL     1      52.141  22.299  24.693  1.00  0.00     0.149 A
HETATM   19  N4  UNL     1      53.247  21.929  23.884  1.00  0.00    -0.094 NA
HETATM   20  C25 UNL     1      51.627  21.502  25.679  1.00  0.00     0.294 A
HETATM   21  O14 UNL     1      52.158  20.370  25.898  1.00  0.00    -0.264 OA
BRANCH  17  22
HETATM   22  N3  UNL     1      52.007  24.405  23.493  1.00  0.00    -0.321 N
HETATM   23  C22 UNL     1      52.869  25.478  23.771  1.00  0.00     0.218 C
HETATM   24  C23 UNL     1      53.343  26.349  22.693  1.00  0.00     0.117 C
HETATM   25  O13 UNL     1      53.226  25.678  24.962  1.00  0.00    -0.274 OA
ATOM     26  H3  UNL     1      51.719  24.246  22.528  1.00  0.00     0.169 HD
ENDBRANCH  17  22
ENDBRANCH  12  13
ENDBRANCH  11  12
BRANCH  11  27
HETATM   27  C26 UNL     1      48.212  19.297  27.967  1.00  0.00     0.198 C
HETATM   28  O15 UNL     1      48.789  18.931  29.042  1.00  0.00    -0.646 OA
HETATM   29  O16 UNL     1      46.928  18.792  27.815  1.00  0.00    -0.646 OA
ENDBRANCH  11  27
ENDBRANCH   9  11
ENDBRANCH   4   7
BRANCH   2  30
HETATM   30  O5  UNL     1      44.822  24.968  25.246  1.00  0.00    -0.279 OA
BRANCH  30  31
HETATM   31  C8  UNL     1      43.936  25.280  26.237  1.00  0.00     0.298 C
HETATM   32  O6  UNL     1      43.976  24.669  27.309  1.00  0.00    -0.259 OA
BRANCH  31  33
HETATM   33  C9  UNL     1      42.957  26.336  25.998  1.00  0.00     0.045 A
HETATM   34  C10 UNL     1      42.355  27.012  27.047  1.00  0.00     0.057 A
HETATM   35  C11 UNL     1      41.432  28.011  26.842  1.00  0.00     0.102 A
HETATM   36  C12 UNL     1      41.077  28.369  25.564  1.00  0.00     0.132 A
HETATM   37  C13 UNL     1      41.659  27.715  24.506  1.00  0.00     0.102 A
HETATM   38  C14 UNL     1      42.596  26.702  24.722  1.00  0.00     0.057 A
BRANCH  35  39
HETATM   39  O7  UNL     1      40.842  28.675  27.900  1.00  0.00    -0.358 OA
ATOM     40  H7  UNL     1      39.904  28.821  27.932  1.00  0.00     0.217 HD
ENDBRANCH  35  39
BRANCH  36  41
HETATM   41  O8  UNL     1      40.138  29.383  25.315  1.00  0.00    -0.356 OA
ATOM     42  H8  UNL     1      39.484  29.301  24.631  1.00  0.00     0.218 HD
ENDBRANCH  36  41
BRANCH  37  43
HETATM   43  O9  UNL     1      41.297  28.080  23.219  1.00  0.00    -0.358 OA
ATOM     44  H9  UNL     1      40.864  27.438  22.669  1.00  0.00     0.217 HD
ENDBRANCH  37  43
ENDBRANCH  31  33
ENDBRANCH  30  31
ENDBRANCH   2  30
BRANCH   1  45
HETATM   45  C3  UNL     1      43.144  22.743  24.116  1.00  0.00     0.270 C
BRANCH  45  46
HETATM   46  C2  UNL     1      42.353  21.764  24.883  1.00  0.00     0.293 C
HETATM   47  O2  UNL     1      42.404  21.763  26.122  1.00  0.00    -0.262 OA
BRANCH  46  48
HETATM   48  O1  UNL     1      41.564  20.858  24.224  1.00  0.00    -0.324 OA
HETATM   49  C1  UNL     1      41.952  19.489  24.036  1.00  0.00     0.213 C
ENDBRANCH  46  48
ENDBRANCH  45  46
BRANCH  45  50
HETATM   50  O3  UNL     1      42.931  22.632  22.723  1.00  0.00    -0.301 OA
BRANCH  50  51
HETATM   51  C4  UNL     1      43.308  23.613  21.852  1.00  0.00     0.255 C
HETATM   52  C5  UNL     1      44.404  23.399  20.891  1.00  0.00     0.126 C
HETATM   53  O4  UNL     1      42.703  24.714  21.878  1.00  0.00    -0.266 OA
ENDBRANCH  50  51
ENDBRANCH  45  50
ENDBRANCH   1  45
TORSDOF 17
ENDMDL