MODEL 4
REMARK VINA RESULT: -9.251310963      0.080      1.524
REMARK  4 active torsions:
REMARK  status: ('A' for Active; 'I' for Inactive)
REMARK    1  A    between atoms: C4_5  and  C5_6
REMARK    2  A    between atoms: C6_9  and  C7_10
REMARK    3  A    between atoms: C7_10  and  N2_11
REMARK    4  A    between atoms: N2_11  and  C8_13
ROOT
HETATM    1  C5  UNL     1      24.557 -18.642   7.172  1.00  0.00     0.084 A
HETATM    2  N1  UNL     1      24.849 -17.361   7.048  1.00  0.00    -0.351 N
ATOM      3  H1  UNL     1      24.104 -16.685   6.877  1.00  0.00     0.166 HD
HETATM    4  C6  UNL     1      26.072 -16.957   7.143  1.00  0.00     0.034 A
HETATM    5  C18 UNL     1      27.038 -17.907   7.375  1.00  0.00     0.078 A
HETATM    6  S1  UNL     1      26.093 -19.338   7.440  1.00  0.00    -0.081 SA
ENDROOT
BRANCH   4   7
HETATM    7  C7  UNL     1      26.472 -15.501   7.017  1.00  0.00     0.172 C
BRANCH   7   8
HETATM    8  N2  UNL     1      25.503 -14.747   7.712  1.00  0.00    -0.407 N
ATOM      9  H2  UNL     1      25.468 -14.737   8.731  1.00  0.00     0.154 HD
BRANCH   8  10
HETATM   10  C8  UNL     1      24.578 -14.003   6.934  1.00  0.00     0.027 C
HETATM   11  C9  UNL     1      23.132 -14.336   7.170  1.00  0.00     0.035 C
HETATM   12  C10 UNL     1      22.283 -13.380   6.361  1.00  0.00    -0.012 C
HETATM   13  C11 UNL     1      22.529 -11.939   6.699  1.00  0.00     0.009 C
HETATM   14  C15 UNL     1      22.560 -13.660   4.891  1.00  0.00     0.009 C
HETATM   15  C12 UNL     1      23.969 -11.635   6.366  1.00  0.00    -0.012 C
HETATM   16  C13 UNL     1      24.277 -11.901   4.912  1.00  0.00     0.009 C
HETATM   17  C17 UNL     1      24.822 -12.538   7.213  1.00  0.00     0.035 C
HETATM   18  C14 UNL     1      24.006 -13.350   4.620  1.00  0.00    -0.012 C
HETATM   19  C16 UNL     1      24.868 -14.254   5.458  1.00  0.00     0.035 C
ENDBRANCH   8  10
ENDBRANCH   7   8
ENDBRANCH   4   7
BRANCH   1  20
HETATM   20  C4  UNL     1      23.236 -19.302   7.098  1.00  0.00    -0.002 A
HETATM   21  C3  UNL     1      22.927 -20.248   6.157  1.00  0.00     0.016 A
HETATM   22  C2  UNL     1      21.670 -20.853   6.115  1.00  0.00     0.024 A
HETATM   23  C1  UNL     1      20.714 -20.495   7.036  1.00  0.00     0.034 A
HETATM   24 CL1  UNL     1      19.128 -21.274   6.973  1.00  0.00    -0.084 Cl
HETATM   25  C20 UNL     1      21.009 -19.541   7.992  1.00  0.00     0.024 A
HETATM   26  C19 UNL     1      22.278 -18.948   8.016  1.00  0.00     0.016 A
ENDBRANCH   1  20
TORSDOF 4
ENDMDL