MODEL 5
REMARK VINA RESULT: -9.156209897      2.201      4.286
REMARK  5 active torsions:
REMARK  status: ('A' for Active; 'I' for Inactive)
REMARK    1  A    between atoms: C2_2  and  C10_10
REMARK    2  A    between atoms: C3_3  and  C4_4
REMARK    3  A    between atoms: C12_13  and  N1_14
REMARK    4  A    between atoms: N1_14  and  N2_16
REMARK    5  A    between atoms: C13_18  and  C14_19
ROOT
HETATM    1  C10 UNL     1      21.080 -14.131   7.016  1.00  0.00     0.046 A
HETATM    2  C11 UNL     1      20.039 -13.872   6.157  1.00  0.00     0.083 A
HETATM    3  S1  UNL     1      20.404 -12.297   5.594  1.00  0.00    -0.062 SA
HETATM    4  C12 UNL     1      21.836 -12.051   6.465  1.00  0.00     0.163 A
HETATM    5  N3  UNL     1      21.978 -13.188   7.154  1.00  0.00    -0.335 N
ATOM      6  H3  UNL     1      22.775 -13.320   7.777  1.00  0.00     0.168 HD
ENDROOT
BRANCH   4   7
HETATM    7  N1  UNL     1      22.638 -11.002   6.481  1.00  0.00    -0.280 N
ATOM      8  H1  UNL     1      22.449 -10.213   7.099  1.00  0.00     0.189 HD
BRANCH   7   9
HETATM    9  N2  UNL     1      23.701 -10.992   5.672  1.00  0.00    -0.309 N
HETATM   10  C13 UNL     1      24.667 -11.712   5.386  1.00  0.00     0.118 C
ATOM     11  H2  UNL     1      23.724 -10.131   5.125  1.00  0.00     0.186 HD
BRANCH  10  12
HETATM   12  C14 UNL     1      25.004 -13.000   5.926  1.00  0.00    -0.019 A
HETATM   13  C15 UNL     1      24.645 -14.154   5.232  1.00  0.00     0.014 A
HETATM   14  C16 UNL     1      24.944 -15.402   5.708  1.00  0.00     0.024 A
HETATM   15  C17 UNL     1      25.616 -15.501   6.903  1.00  0.00     0.034 A
HETATM   16 CL1  UNL     1      25.998 -17.101   7.512  1.00  0.00    -0.084 Cl
HETATM   17  C18 UNL     1      25.991 -14.395   7.625  1.00  0.00     0.024 A
HETATM   18  C19 UNL     1      25.669 -13.139   7.110  1.00  0.00     0.014 A
ENDBRANCH  10  12
ENDBRANCH   7   9
ENDBRANCH   4   7
BRANCH   1  19
HETATM   19  C2  UNL     1      21.163 -15.456   7.728  1.00  0.00    -0.038 C
HETATM   20  C1  UNL     1      20.436 -15.604   8.988  1.00  0.00     0.050 C
HETATM   21  C3  UNL     1      21.850 -16.415   7.205  1.00  0.00    -0.013 C
BRANCH  21  22
HETATM   22  C4  UNL     1      22.144 -17.789   7.569  1.00  0.00     0.009 C
HETATM   23  C5  UNL     1      22.984 -18.481   6.480  1.00  0.00     0.008 C
HETATM   24  C6  UNL     1      23.563 -19.718   7.088  1.00  0.00     0.001 C
HETATM   25  C7  UNL     1      22.424 -20.625   7.522  1.00  0.00     0.000 C
HETATM   26  C8  UNL     1      21.740 -19.924   8.676  1.00  0.00     0.001 C
HETATM   27  C9  UNL     1      21.057 -18.676   8.044  1.00  0.00     0.008 C
ENDBRANCH  21  22
ENDBRANCH   1  19
TORSDOF 5
ENDMDL