MODEL 4
REMARK VINA RESULT: -9.374656683      2.025      2.503
REMARK  5 active torsions:
REMARK  status: ('A' for Active; 'I' for Inactive)
REMARK    1  A    between atoms: C2_2  and  O1_3
REMARK    2  A    between atoms: O1_3  and  C3_4
REMARK    3  A    between atoms: C3_4  and  C4_6
REMARK    4  A    between atoms: C10_12  and  C11_13
REMARK    5  A    between atoms: C11_13  and  C12_14
ROOT
HETATM    1  C4  UNL     1      23.717 -13.354   5.773  1.00  0.00     0.048 C
HETATM    2  C5  UNL     1      22.920 -13.720   4.514  1.00  0.00     0.026 C
HETATM    3  C6  UNL     1      22.781 -12.896   6.870  1.00  0.00     0.020 C
HETATM    4  C7  UNL     1      21.716 -13.951   6.926  1.00  0.00     0.002 C
HETATM    5  C8  UNL     1      22.259 -15.313   7.290  1.00  0.00     0.005 C
HETATM    6  C9  UNL     1      23.716 -15.481   7.184  1.00  0.00    -0.005 C
HETATM    7  C10 UNL     1      24.232 -16.847   6.849  1.00  0.00    -0.002 C
HETATM    8  C18 UNL     1      25.735 -16.703   6.661  1.00  0.00    -0.014 C
HETATM    9  C19 UNL     1      26.486 -17.910   7.187  1.00  0.00     0.010 C
HETATM   10  C20 UNL     1      26.313 -15.520   7.399  1.00  0.00     0.005 C
HETATM   11  C21 UNL     1      25.769 -14.215   6.905  1.00  0.00     0.007 C
HETATM   12  C22 UNL     1      24.435 -14.558   6.221  1.00  0.00     0.008 C
ENDROOT
BRANCH   7  13
HETATM   13  C11 UNL     1      23.878 -18.014   7.647  1.00  0.00     0.046 C
BRANCH  13  14
HETATM   14  C12 UNL     1      23.078 -19.104   7.104  1.00  0.00    -0.031 A
HETATM   15  C13 UNL     1      23.530 -19.979   6.149  1.00  0.00     0.051 A
HETATM   16  C14 UNL     1      22.782 -20.975   5.599  1.00  0.00     0.117 A
HETATM   17  F1  UNL     1      23.278 -21.823   4.650  1.00  0.00    -0.206 F
HETATM   18  C15 UNL     1      21.487 -21.146   5.999  1.00  0.00     0.044 A
HETATM   19  C16 UNL     1      20.978 -20.296   6.956  1.00  0.00     0.030 A
HETATM   20  C17 UNL     1      21.746 -19.291   7.505  1.00  0.00     0.052 A
HETATM   21  N1  UNL     1      21.155 -18.466   8.475  1.00  0.00    -0.102 NA
ENDBRANCH  13  14
ENDBRANCH   7  13
BRANCH   1  22
HETATM   22  C3  UNL     1      24.579 -12.210   5.422  1.00  0.00     0.267 C
HETATM   23  O2  UNL     1      25.307 -12.186   4.396  1.00  0.00    -0.264 OA
BRANCH  22  24
HETATM   24  O1  UNL     1      24.656 -11.057   6.203  1.00  0.00    -0.321 OA
BRANCH  24  25
HETATM   25  C2  UNL     1      25.856 -10.325   6.388  1.00  0.00     0.174 C
HETATM   26  C1  UNL     1      26.343 -10.616   7.791  1.00  0.00     0.034 C
ENDBRANCH  24  25
ENDBRANCH  22  24
ENDBRANCH   1  22
TORSDOF 5
ENDMDL