MODEL 5
REMARK VINA RESULT: -8.640270542      3.752      8.859
REMARK  3 active torsions:
REMARK  status: ('A' for Active; 'I' for Inactive)
REMARK    1  A    between atoms: C2_2  and  C3_3
REMARK    2  A    between atoms: C6_6  and  C7_7
REMARK       I    between atoms: C7_7  and  N1_9
REMARK    3  A    between atoms: N1_9  and  N2_11
ROOT
HETATM    1  N2  UNL     1      26.103 -16.407   7.093  1.00  0.00    -0.303 N
ATOM      2  H2  UNL     1      27.099 -16.434   7.310  1.00  0.00     0.186 HD
HETATM    3  C8  UNL     1      25.676 -15.457   6.339  1.00  0.00     0.037 C
HETATM    4  C9  UNL     1      26.645 -14.470   5.837  1.00  0.00     0.057 C
HETATM    5  C10 UNL     1      27.625 -13.979   6.839  1.00  0.00     0.006 C
HETATM    6  C11 UNL     1      27.105 -12.852   7.703  1.00  0.00     0.000 C
HETATM    7  C12 UNL     1      27.083 -11.599   6.829  1.00  0.00     0.000 C
HETATM    8  C13 UNL     1      25.923 -10.709   7.155  1.00  0.00     0.000 C
HETATM    9  C14 UNL     1      25.249 -10.316   5.853  1.00  0.00     0.000 C
HETATM   10  C15 UNL     1      23.746 -10.485   5.929  1.00  0.00     0.000 C
HETATM   11  C16 UNL     1      23.260 -11.575   4.996  1.00  0.00     0.000 C
HETATM   12  C17 UNL     1      22.111 -12.354   5.552  1.00  0.00     0.000 C
HETATM   13  C18 UNL     1      22.380 -13.851   5.601  1.00  0.00     0.003 C
HETATM   14  C19 UNL     1      23.553 -14.159   6.502  1.00  0.00     0.043 C
HETATM   15  C20 UNL     1      24.228 -15.434   6.033  1.00  0.00     0.217 C
HETATM   16  F1  UNL     1      24.024 -15.614   4.657  1.00  0.00    -0.243 F
ENDROOT
BRANCH   1  17
HETATM   17  N1  UNL     1      25.290 -17.401   7.630  1.00  0.00    -0.264 N
HETATM   18  C7  UNL     1      25.450 -18.782   7.342  1.00  0.00     0.293 C
HETATM   19  O1  UNL     1      26.354 -19.191   6.570  1.00  0.00    -0.264 OA
ATOM     20  H1  UNL     1      24.540 -17.123   8.264  1.00  0.00     0.190 HD
BRANCH  18  21
HETATM   21  C6  UNL     1      24.571 -19.781   7.932  1.00  0.00     0.144 A
HETATM   22  C5  UNL     1      24.906 -21.065   8.351  1.00  0.00     0.045 A
HETATM   23  C4  UNL     1      23.776 -21.673   8.849  1.00  0.00     0.036 A
HETATM   24  C3  UNL     1      22.780 -20.735   8.717  1.00  0.00     0.053 A
HETATM   25  O2  UNL     1      23.290 -19.647   8.178  1.00  0.00    -0.309 OA
BRANCH  24  26
HETATM   26  C2  UNL     1      21.366 -20.966   9.135  1.00  0.00     0.060 C
HETATM   27  C1  UNL     1      20.392 -20.200   8.255  1.00  0.00     0.012 C
ENDBRANCH  24  26
ENDBRANCH  18  21
ENDBRANCH   1  17
TORSDOF 3
ENDMDL