MODEL 3
REMARK VINA RESULT: -8.229974576      3.506      6.841
REMARK  4 active torsions:
REMARK  status: ('A' for Active; 'I' for Inactive)
REMARK    1  A    between atoms: C2_2  and  C3_3
REMARK    2  A    between atoms: C3_3  and  C4_4
REMARK    3  A    between atoms: C4_4  and  N1_5
REMARK    4  A    between atoms: N1_5  and  C5_7
ROOT
HETATM    1  C5  UNL     1      24.344 -14.660   5.873  1.00  0.00     0.059 A
HETATM    2  C6  UNL     1      25.376 -13.742   5.882  1.00  0.00     0.050 A
HETATM    3  C7  UNL     1      26.620 -14.036   6.412  1.00  0.00     0.029 A
HETATM    4  N2  UNL     1      26.864 -15.226   6.935  1.00  0.00    -0.358 N
ATOM      5  H2  UNL     1      27.785 -15.431   7.322  1.00  0.00     0.166 HD
HETATM    6  C8  UNL     1      25.907 -16.166   6.960  1.00  0.00     0.045 A
HETATM    7  C9  UNL     1      26.147 -17.430   7.509  1.00  0.00     0.032 A
HETATM    8  C10 UNL     1      25.138 -18.361   7.512  1.00  0.00     0.021 A
HETATM    9  C11 UNL     1      23.879 -18.112   6.994  1.00  0.00     0.011 A
HETATM   10 BR1  UNL     1      22.517 -19.442   7.026  1.00  0.00    -0.051 Br
HETATM   11  C12 UNL     1      23.681 -16.855   6.461  1.00  0.00     0.035 A
HETATM   12  C13 UNL     1      24.651 -15.897   6.435  1.00  0.00     0.020 A
HETATM   13  C14 UNL     1      27.634 -12.937   6.349  1.00  0.00     0.059 C
HETATM   14  C15 UNL     1      27.131 -11.663   6.961  1.00  0.00     0.017 C
HETATM   15  C16 UNL     1      26.241 -10.942   5.964  1.00  0.00     0.080 C
HETATM   16  S1  UNL     1      25.111 -12.137   5.198  1.00  0.00    -0.126 SA
ENDROOT
BRANCH   1  17
HETATM   17  N1  UNL     1      23.069 -14.407   5.348  1.00  0.00    -0.388 N
ATOM     18  H1  UNL     1      22.833 -14.868   4.468  1.00  0.00     0.159 HD
BRANCH  17  19
HETATM   19  C4  UNL     1      22.069 -13.565   5.924  1.00  0.00     0.120 C
BRANCH  19  20
HETATM   20  C3  UNL     1      21.754 -13.910   7.353  1.00  0.00     0.019 C
BRANCH  20  21
HETATM   21  C2  UNL     1      20.505 -14.800   7.392  1.00  0.00    -0.003 C
HETATM   22  C1  UNL     1      20.834 -15.990   8.264  1.00  0.00     0.005 C
ENDBRANCH  20  21
ENDBRANCH  19  20
ENDBRANCH  17  19
ENDBRANCH   1  17
TORSDOF 4
ENDMDL