MODEL 2
REMARK VINA RESULT: -10.843892117      1.135      2.346
REMARK  5 active torsions:
REMARK  status: ('A' for Active; 'I' for Inactive)
REMARK    1  A    between atoms: C2_2  and  C3_3
REMARK    2  A    between atoms: C5_5  and  O1_6
REMARK    3  A    between atoms: C6_8  and  C7_9
REMARK    4  A    between atoms: C10_13  and  O3_14
REMARK    5  A    between atoms: O3_14  and  C11_15
ROOT
HETATM    1  C3  UNL     1      22.322 -12.118   6.375  1.00  0.00    -0.045 A
HETATM    2  C4  UNL     1      23.324 -11.329   5.890  1.00  0.00     0.045 A
HETATM    3  C5  UNL     1      24.541 -11.830   5.463  1.00  0.00     0.080 A
HETATM    4  C6  UNL     1      24.781 -13.220   5.522  1.00  0.00     0.046 A
HETATM    5  C8  UNL     1      23.777 -14.033   6.009  1.00  0.00    -0.007 A
HETATM    6  C9  UNL     1      23.918 -15.387   6.097  1.00  0.00     0.050 A
HETATM    7  C10 UNL     1      22.913 -16.263   6.587  1.00  0.00     0.077 A
HETATM    8  C20 UNL     1      21.736 -15.649   6.985  1.00  0.00     0.038 A
HETATM    9  C21 UNL     1      21.561 -14.290   6.909  1.00  0.00     0.015 A
HETATM   10  C22 UNL     1      22.560 -13.471   6.429  1.00  0.00    -0.018 A
ENDROOT
BRANCH   7  11
HETATM   11  O3  UNL     1      23.169 -17.539   6.622  1.00  0.00    -0.310 OA
BRANCH  11  12
HETATM   12  C11 UNL     1      23.583 -18.621   7.254  1.00  0.00     0.085 A
HETATM   13  C12 UNL     1      24.907 -19.070   7.323  1.00  0.00     0.080 A
HETATM   14  C13 UNL     1      25.238 -20.217   8.012  1.00  0.00     0.119 A
HETATM   15  F1  UNL     1      26.549 -20.617   8.052  1.00  0.00    -0.206 F
HETATM   16  C14 UNL     1      24.253 -20.931   8.640  1.00  0.00     0.050 A
HETATM   17  C15 UNL     1      22.922 -20.526   8.600  1.00  0.00    -0.046 A
HETATM   18  C16 UNL     1      22.612 -19.397   7.920  1.00  0.00    -0.018 A
HETATM   19  C19 UNL     1      21.691 -21.154   9.208  1.00  0.00     0.039 C
HETATM   20  C17 UNL     1      21.124 -19.153   8.013  1.00  0.00     0.042 C
HETATM   21  C18 UNL     1      20.736 -19.985   9.218  1.00  0.00     0.009 C
ENDBRANCH  11  12
ENDBRANCH   7  11
BRANCH   4  22
HETATM   22  C7  UNL     1      26.032 -13.745   5.086  1.00  0.00     0.273 C
HETATM   23  O2  UNL     1      27.151 -13.465   5.485  1.00  0.00    -0.301 OA
ENDBRANCH   4  22
BRANCH   3  24
HETATM   24  O1  UNL     1      25.507 -10.976   4.987  1.00  0.00    -0.360 OA
ATOM     25  H1  UNL     1      25.453 -10.646   4.098  1.00  0.00     0.217 HD
ENDBRANCH   3  24
BRANCH   1  26
HETATM   26  C2  UNL     1      21.029 -11.560   6.842  1.00  0.00     0.035 C
HETATM   27  C1  UNL     1      20.032 -11.400   5.701  1.00  0.00     0.010 C
ENDBRANCH   1  26
TORSDOF 5
ENDMDL