MODEL 2
REMARK VINA RESULT: -8.973642969      1.212      1.461
REMARK  5 active torsions:
REMARK  status: ('A' for Active; 'I' for Inactive)
REMARK    1  A    between atoms: C1_2  and  O2_3
REMARK    2  A    between atoms: C1_2  and  C8_10
REMARK    3  A    between atoms: O2_3  and  C2_4
REMARK    4  A    between atoms: C13_16  and  N1_17
REMARK       I    between atoms: N1_17  and  C14_19
REMARK    5  A    between atoms: C14_19  and  C15_21
ROOT
HETATM    1  C8  UNL     1      24.222 -17.816   7.168  1.00  0.00     0.067 A
HETATM    2  C9  UNL     1      24.673 -19.118   7.520  1.00  0.00     0.044 A
HETATM    3  C10 UNL     1      23.803 -20.141   7.769  1.00  0.00     0.035 A
HETATM    4 CL1  UNL     1      24.339 -21.746   8.200  1.00  0.00    -0.084 Cl
HETATM    5  C11 UNL     1      22.460 -19.901   7.677  1.00  0.00     0.026 A
HETATM    6  C12 UNL     1      22.020 -18.626   7.335  1.00  0.00     0.032 A
HETATM    7  C13 UNL     1      22.881 -17.568   7.077  1.00  0.00     0.051 A
ENDROOT
BRANCH   1   8
HETATM    8  C1  UNL     1      25.225 -16.816   6.864  1.00  0.00     0.296 C
HETATM    9  O1  UNL     1      26.433 -16.818   7.139  1.00  0.00    -0.259 OA
BRANCH   8  10
HETATM   10  O2  UNL     1      24.843 -15.641   6.151  1.00  0.00    -0.312 OA
BRANCH  10  11
HETATM   11  C2  UNL     1      25.472 -14.391   6.359  1.00  0.00     0.132 C
HETATM   12  C3  UNL     1      25.309 -13.488   5.184  1.00  0.00     0.032 C
HETATM   13  C4  UNL     1      24.854 -12.107   5.475  1.00  0.00     0.002 C
HETATM   14  C5  UNL     1      25.165 -11.547   6.800  1.00  0.00     0.000 C
HETATM   15  C6  UNL     1      25.643 -12.497   7.840  1.00  0.00     0.002 C
HETATM   16  C7  UNL     1      24.901 -13.808   7.636  1.00  0.00     0.032 C
ENDBRANCH  10  11
ENDBRANCH   8  10
ENDBRANCH   1   8
BRANCH   7  17
HETATM   17  N1  UNL     1      22.384 -16.293   6.820  1.00  0.00    -0.326 N
HETATM   18  C14 UNL     1      21.387 -15.643   7.599  1.00  0.00     0.226 C
HETATM   19  O3  UNL     1      20.801 -16.084   8.601  1.00  0.00    -0.273 OA
ATOM     20  H1  UNL     1      22.760 -15.790   6.017  1.00  0.00     0.169 HD
BRANCH  18  21
HETATM   21  C15 UNL     1      20.953 -14.239   7.198  1.00  0.00     0.078 C
HETATM   22  C16 UNL     1      21.647 -13.849   5.908  1.00  0.00     0.014 C
HETATM   23  C17 UNL     1      20.682 -12.851   5.326  1.00  0.00     0.001 C
HETATM   24  C18 UNL     1      19.309 -13.237   5.810  1.00  0.00     0.001 C
HETATM   25  C19 UNL     1      19.490 -14.304   6.857  1.00  0.00     0.014 C
ENDBRANCH  18  21
ENDBRANCH   7  17
TORSDOF 5
ENDMDL