MODEL 3
REMARK VINA RESULT: -7.696310471      2.095      3.742
REMARK  5 active torsions:
REMARK  status: ('A' for Active; 'I' for Inactive)
REMARK    1  A    between atoms: C2_2  and  C3_3
REMARK    2  A    between atoms: C6_6  and  O1_7
REMARK    3  A    between atoms: C9_11  and  O2_12
REMARK    4  A    between atoms: C14_17  and  C15_18
REMARK    5  A    between atoms: C15_18  and  O3_21
ROOT
HETATM    1  C3  UNL     1      22.119 -18.781   7.978  1.00  0.00    -0.016 A
HETATM    2  C4  UNL     1      22.444 -17.580   7.398  1.00  0.00    -0.040 A
HETATM    3  C5  UNL     1      23.713 -17.380   6.922  1.00  0.00    -0.011 A
HETATM    4  C6  UNL     1      24.678 -18.356   7.006  1.00  0.00     0.100 A
HETATM    5  C8  UNL     1      24.330 -19.553   7.591  1.00  0.00     0.101 A
HETATM    6 CL1  UNL     1      25.552 -20.805   7.705  1.00  0.00    -0.078 Cl
HETATM    7  C9  UNL     1      23.069 -19.799   8.084  1.00  0.00     0.099 A
HETATM    8  C11 UNL     1      24.065 -16.092   6.301  1.00  0.00     0.027 C
HETATM    9  C12 UNL     1      23.510 -15.887   4.916  1.00  0.00     0.010 C
HETATM   10  C13 UNL     1      23.169 -14.390   4.807  1.00  0.00     0.009 C
HETATM   11  C14 UNL     1      23.757 -13.855   6.053  1.00  0.00     0.024 C
HETATM   12  C18 UNL     1      23.412 -14.940   7.058  1.00  0.00     0.001 C
HETATM   13  C19 UNL     1      21.970 -15.124   7.301  1.00  0.00     0.010 C
HETATM   14  C20 UNL     1      21.446 -16.518   7.271  1.00  0.00     0.040 C
ENDROOT
BRANCH  11  15
HETATM   15  C15 UNL     1      23.497 -12.476   6.435  1.00  0.00     0.054 C
HETATM   16  C16 UNL     1      24.579 -12.044   7.431  1.00  0.00     0.045 C
HETATM   17  C17 UNL     1      22.150 -12.103   6.919  1.00  0.00     0.045 C
BRANCH  15  18
HETATM   18  O3  UNL     1      23.752 -11.677   5.290  1.00  0.00    -0.390 OA
ATOM     19  H3  UNL     1      24.689 -11.703   5.139  1.00  0.00     0.210 HD
ENDBRANCH  15  18
ENDBRANCH  11  15
BRANCH   4  20
HETATM   20  O1  UNL     1      25.964 -18.123   6.510  1.00  0.00    -0.354 OA
HETATM   21  C7  UNL     1      27.077 -17.936   7.358  1.00  0.00     0.210 C
ENDBRANCH   4  20
BRANCH   1  22
HETATM   22  C2  UNL     1      20.769 -19.083   8.546  1.00  0.00     0.037 C
HETATM   23  C1  UNL     1      20.027 -20.141   7.792  1.00  0.00     0.010 C
ENDBRANCH   1  22
BRANCH   7  24
HETATM   24  O2  UNL     1      22.803 -21.037   8.658  1.00  0.00    -0.354 OA
HETATM   25  C10 UNL     1      23.302 -21.329   9.972  1.00  0.00     0.210 C
ENDBRANCH   7  24
TORSDOF 5
ENDMDL