MODEL 5
REMARK VINA RESULT: -9.721411415      1.254      1.536
REMARK  4 active torsions:
REMARK  status: ('A' for Active; 'I' for Inactive)
REMARK    1  A    between atoms: C2_2  and  C3_3
REMARK    2  A    between atoms: C6_8  and  O1_9
REMARK    3  A    between atoms: O1_9  and  N2_10
REMARK    4  A    between atoms: C11_16  and  C12_17
ROOT
HETATM    1  C3  UNL     1      26.451  -9.585   6.642  1.00  0.00     0.081 A
HETATM    2  N1  UNL     1      27.323 -10.602   6.630  1.00  0.00    -0.344 N
ATOM      3  H1  UNL     1      28.339 -10.519   6.629  1.00  0.00     0.167 HD
HETATM    4  C4  UNL     1      26.610 -11.775   6.618  1.00  0.00     0.065 A
HETATM    5  C5  UNL     1      26.996 -13.075   6.603  1.00  0.00     0.071 A
HETATM    6  C6  UNL     1      26.054 -14.087   6.594  1.00  0.00     0.102 A
HETATM    7  C18 UNL     1      24.703 -13.730   6.599  1.00  0.00     0.065 A
HETATM    8  C19 UNL     1      24.323 -12.417   6.614  1.00  0.00     0.065 A
HETATM    9 CL1  UNL     1      22.638 -11.949   6.621  1.00  0.00    -0.082 Cl
HETATM   10  C20 UNL     1      25.278 -11.428   6.623  1.00  0.00     0.082 A
HETATM   11  N3  UNL     1      25.201 -10.075   6.639  1.00  0.00    -0.343 N
ATOM     12  H3  UNL     1      24.342  -9.524   6.646  1.00  0.00     0.167 HD
ENDROOT
BRANCH   6  13
HETATM   13  O1  UNL     1      26.441 -15.405   6.576  1.00  0.00    -0.238 OA
BRANCH  13  14
HETATM   14  N2  UNL     1      25.774 -16.467   6.902  1.00  0.00    -0.269 N
HETATM   15  C7  UNL     1      25.950 -17.636   7.298  1.00  0.00     0.015 C
HETATM   16  C8  UNL     1      27.223 -18.329   7.578  1.00  0.00     0.055 C
HETATM   17  C11 UNL     1      24.914 -18.686   7.613  1.00  0.00     0.037 C
HETATM   18  C9  UNL     1      26.998 -19.701   6.969  1.00  0.00     0.006 C
HETATM   19  C10 UNL     1      25.502 -19.891   6.912  1.00  0.00     0.011 C
ATOM     20  H2  UNL     1      24.775 -16.287   6.803  1.00  0.00     0.194 HD
BRANCH  17  21
HETATM   21  C12 UNL     1      23.591 -18.377   6.955  1.00  0.00    -0.005 C
HETATM   22  C13 UNL     1      22.774 -17.366   7.686  1.00  0.00     0.005 C
HETATM   23  C14 UNL     1      21.309 -17.716   7.532  1.00  0.00     0.000 C
HETATM   24  C15 UNL     1      20.952 -18.996   8.259  1.00  0.00     0.000 C
HETATM   25  C16 UNL     1      22.183 -19.876   8.249  1.00  0.00     0.000 C
HETATM   26  C17 UNL     1      22.830 -19.682   6.873  1.00  0.00     0.005 C
ENDBRANCH  17  21
ENDBRANCH  13  14
ENDBRANCH   6  13
BRANCH   1  27
HETATM   27  C2  UNL     1      26.815  -8.159   6.657  1.00  0.00     0.072 C
HETATM   28  C1  UNL     1      26.768  -7.584   8.077  1.00  0.00     0.013 C
ENDBRANCH   1  27
TORSDOF 4
ENDMDL