MODEL 5
REMARK VINA RESULT: -7.350518554      0.989      1.105
REMARK  5 active torsions:
REMARK  status: ('A' for Active; 'I' for Inactive)
REMARK    1  A    between atoms: C2_2  and  C3_3
REMARK    2  A    between atoms: C3_3  and  C4_4
REMARK    3  A    between atoms: C4_4  and  C5_5
REMARK    4  A    between atoms: C16_18  and  O2_19
REMARK    5  A    between atoms: C21_24  and  O3_26
ROOT
HETATM    1  C5  UNL     1      23.146 -13.023   7.093  1.00  0.00    -0.017 C
HETATM    2  C6  UNL     1      24.030 -13.467   6.284  1.00  0.00    -0.011 C
HETATM    3  C7  UNL     1      25.270 -12.587   6.106  1.00  0.00     0.087 C
HETATM    4  C8  UNL     1      25.225 -11.793   4.851  1.00  0.00     0.051 C
HETATM    5  C9  UNL     1      25.454 -11.683   7.299  1.00  0.00     0.051 C
HETATM    6  O1  UNL     1      26.329 -13.519   6.156  1.00  0.00    -0.336 OA
HETATM    7  C10 UNL     1      26.154 -14.864   6.549  1.00  0.00     0.080 A
HETATM    8  C11 UNL     1      27.121 -15.475   7.262  1.00  0.00     0.038 A
HETATM    9  C12 UNL     1      26.984 -16.777   7.657  1.00  0.00     0.015 A
HETATM   10  C13 UNL     1      25.866 -17.474   7.333  1.00  0.00    -0.022 A
HETATM   11  C14 UNL     1      25.721 -18.781   7.730  1.00  0.00     0.057 A
HETATM   12  C15 UNL     1      24.575 -19.465   7.392  1.00  0.00     0.150 A
HETATM   13  F1  UNL     1      24.415 -20.753   7.773  1.00  0.00    -0.203 F
HETATM   14  C16 UNL     1      23.574 -18.867   6.665  1.00  0.00     0.107 A
HETATM   15  C18 UNL     1      23.722 -17.549   6.264  1.00  0.00     0.053 A
HETATM   16  C19 UNL     1      24.849 -16.834   6.583  1.00  0.00    -0.011 A
HETATM   17  C20 UNL     1      24.963 -15.548   6.183  1.00  0.00     0.025 A
HETATM   18  C21 UNL     1      24.049 -14.768   5.461  1.00  0.00     0.111 C
HETATM   19  C22 UNL     1      22.873 -14.831   4.732  1.00  0.00     0.056 C
ENDROOT
BRANCH   1  20
HETATM   20  C4  UNL     1      21.876 -13.686   7.443  1.00  0.00     0.027 C
BRANCH  20  21
HETATM   21  C3  UNL     1      21.992 -15.002   8.111  1.00  0.00     0.003 C
BRANCH  21  22
HETATM   22  C2  UNL     1      21.068 -16.058   7.562  1.00  0.00    -0.004 C
HETATM   23  C1  UNL     1      20.943 -17.152   8.600  1.00  0.00     0.005 C
ENDBRANCH  21  22
ENDBRANCH  20  21
ENDBRANCH   1  20
BRANCH  18  24
HETATM   24  O3  UNL     1      24.965 -14.289   4.360  1.00  0.00    -0.381 OA
ATOM     25  H3  UNL     1      24.939 -15.075   3.828  1.00  0.00     0.211 HD
ENDBRANCH  18  24
BRANCH  14  26
HETATM   26  O2  UNL     1      22.404 -19.566   6.320  1.00  0.00    -0.353 OA
HETATM   27  C17 UNL     1      22.470 -20.610   5.372  1.00  0.00     0.210 C
ENDBRANCH  14  26
TORSDOF 5
ENDMDL