MODEL 1
REMARK VINA RESULT: -5.383012809      0.000      0.000
REMARK  0 active torsions:
REMARK  status: ('A' for Active; 'I' for Inactive)
ROOT
HETATM    1  C1  UNL     1      13.955   3.836  17.795  1.00  0.00     0.004 C
HETATM    2  C2  UNL     1      14.629   2.627  18.460  1.00  0.00     0.033 C
HETATM    3  C3  UNL     1      14.133   1.425  17.724  1.00  0.00     0.186 C
HETATM    4  C4  UNL     1      15.168   0.357  17.530  1.00  0.00     0.033 C
HETATM    5  C5  UNL     1      16.102   0.618  16.400  1.00  0.00     0.004 C
HETATM    6  C6  UNL     1      16.019   1.979  15.810  1.00  0.00     0.033 C
HETATM    7  C7  UNL     1      14.657   2.572  15.762  1.00  0.00     0.186 C
HETATM    8  C8  UNL     1      14.580   3.950  16.407  1.00  0.00     0.033 C
HETATM    9  N1  UNL     1      13.635   1.764  16.384  1.00  0.00    -0.067 N
ATOM     10  H11 UNL     1      12.718   2.210  16.395  1.00  0.00     0.278 HD
ATOM     11  H12 UNL     1      13.371   0.948  15.832  1.00  0.00     0.278 HD
ENDROOT
TORSDOF 0
ENDMDL