MODEL 4
REMARK VINA RESULT: -4.798235220      1.853      2.789
REMARK  1 active torsions:
REMARK  status: ('A' for Active; 'I' for Inactive)
REMARK    1  A    between atoms: N1_1  and  C1_5
ROOT
HETATM    1  C1  UNL     1      14.692   3.298  15.336  1.00  0.00     0.183 C
HETATM    2  C2  UNL     1      14.474   3.867  16.696  1.00  0.00     0.033 C
HETATM    3  C3  UNL     1      14.271   2.881  17.779  1.00  0.00     0.002 C
HETATM    4  C4  UNL     1      14.286   1.448  17.358  1.00  0.00     0.000 C
HETATM    5  C5  UNL     1      15.613   0.930  16.936  1.00  0.00     0.000 C
HETATM    6  C6  UNL     1      15.975   1.242  15.510  1.00  0.00     0.002 C
HETATM    7  C7  UNL     1      16.112   2.727  15.302  1.00  0.00     0.033 C
ENDROOT
BRANCH   1   8
HETATM    8  N1  UNL     1      14.615   4.319  14.329  1.00  0.00    -0.075 N
ATOM      9  H13 UNL     1      15.479   4.858  14.275  1.00  0.00     0.274 HD
ATOM     10  H12 UNL     1      14.620   3.921  13.389  1.00  0.00     0.274 HD
ATOM     11  H11 UNL     1      13.805   4.922  14.477  1.00  0.00     0.274 HD
ENDBRANCH   1   8
TORSDOF 1
ENDMDL