MODEL 2
REMARK VINA RESULT: -4.989412798      1.253      3.657
REMARK  0 active torsions:
REMARK  status: ('A' for Active; 'I' for Inactive)
ROOT
HETATM    1  C1  UNL     1      15.020   0.957  16.962  1.00  0.00     0.000 C
HETATM    2  C2  UNL     1      16.252   1.397  16.244  1.00  0.00     0.000 C
HETATM    3  C3  UNL     1      16.034   1.726  14.796  1.00  0.00     0.002 C
HETATM    4  C4  UNL     1      16.685   3.050  14.446  1.00  0.00     0.027 C
HETATM    5  C5  UNL     1      15.571   4.035  14.089  1.00  0.00     0.232 C
HETATM    6  N1  UNL     1      14.442   3.761  14.935  1.00  0.00    -0.075 N
ATOM      7  H11 UNL     1      14.172   2.779  14.901  1.00  0.00     0.277 HD
ATOM      8  H12 UNL     1      13.583   4.168  14.565  1.00  0.00     0.277 HD
HETATM    9  C6  UNL     1      14.708   4.201  16.292  1.00  0.00     0.232 C
HETATM   10  C7  UNL     1      14.160   3.286  17.335  1.00  0.00     0.027 C
HETATM   11  C8  UNL     1      13.862   1.902  16.850  1.00  0.00     0.002 C
ENDROOT
TORSDOF 0
ENDMDL