MODEL 1
REMARK VINA RESULT: -4.811642790      0.000      0.000
REMARK  0 active torsions:
REMARK  status: ('A' for Active; 'I' for Inactive)
ROOT
HETATM    1  O1  UNL     1      13.711   1.687  15.885  1.00  0.00    -0.064 OA
HETATM    2  N1  UNL     1      14.989   2.015  16.144  1.00  0.00     0.018 N
HETATM    3  C1  UNL     1      15.487   3.047  15.331  1.00  0.00     0.312 C
HETATM    4  C2  UNL     1      14.689   4.266  15.824  1.00  0.00     0.039 C
HETATM    5  C3  UNL     1      14.095   3.822  17.173  1.00  0.00     0.044 C
HETATM    6  C4  UNL     1      14.971   2.666  17.472  1.00  0.00     0.255 C
HETATM    7  C5  UNL     1      14.394   1.568  18.282  1.00  0.00     0.044 C
HETATM    8  C6  UNL     1      15.120   0.353  17.677  1.00  0.00     0.039 C
HETATM    9  C7  UNL     1      15.829   0.910  16.430  1.00  0.00     0.312 C
ENDROOT
TORSDOF 0
ENDMDL