MODEL 2
REMARK VINA RESULT: -6.162404763      0.914      1.136
REMARK  1 active torsions:
REMARK  status: ('A' for Active; 'I' for Inactive)
REMARK    1  A    between atoms: O1_1  and  C1_3
ROOT
HETATM    1  C1  UNL     1      15.035   0.885  16.809  1.00  0.00     0.118 C
HETATM    2  C2  UNL     1      16.117   1.728  16.170  1.00  0.00     0.032 C
HETATM    3  C3  UNL     1      15.696   2.363  14.887  1.00  0.00     0.002 C
HETATM    4  C4  UNL     1      15.515   3.833  14.938  1.00  0.00     0.000 C
HETATM    5  C5  UNL     1      14.911   4.376  16.174  1.00  0.00     0.000 C
HETATM    6  C6  UNL     1      13.878   3.539  16.823  1.00  0.00     0.000 C
HETATM    7  C7  UNL     1      14.442   2.960  18.096  1.00  0.00     0.002 C
HETATM    8  C8  UNL     1      14.490   1.468  18.068  1.00  0.00     0.032 C
ENDROOT
BRANCH   1   9
HETATM    9  O1  UNL     1      15.518  -0.404  17.139  1.00  0.00    -0.396 OA
ATOM     10  H1  UNL     1      15.190  -0.688  17.984  1.00  0.00     0.210 HD
ENDBRANCH   1   9
TORSDOF 1
ENDMDL