MODEL 5
REMARK VINA RESULT: -4.402338537      5.304      6.585
REMARK  1 active torsions:
REMARK  status: ('A' for Active; 'I' for Inactive)
REMARK    1  A    between atoms: N1_1  and  C1_5
ROOT
HETATM    1  C1  UNL     1      17.138   1.889  11.964  1.00  0.00     0.127 C
HETATM    2  C2  UNL     1      16.240   0.943  11.233  1.00  0.00     0.039 C
HETATM    3  C3  UNL     1      16.855  -0.460  11.235  1.00  0.00     0.002 C
HETATM    4  C4  UNL     1      18.106  -0.324  10.361  1.00  0.00     0.001 C
HETATM    5  C5  UNL     1      19.076   0.525  11.115  1.00  0.00     0.007 C
HETATM    6  C6  UNL     1      18.569   1.818  11.590  1.00  0.00     0.021 C
HETATM    7  C7  UNL     1      18.255   2.802  10.455  1.00  0.00     0.009 C
HETATM    8  C8  UNL     1      17.132   3.306  11.369  1.00  0.00     0.039 C
ENDROOT
BRANCH   1   9
HETATM    9  N1  UNL     1      16.834   2.002  13.379  1.00  0.00    -0.070 N
ATOM     10  H13 UNL     1      15.844   1.826  13.551  1.00  0.00     0.275 HD
ATOM     11  H12 UNL     1      17.238   1.223  13.898  1.00  0.00     0.275 HD
ATOM     12  H11 UNL     1      17.118   2.892  13.787  1.00  0.00     0.275 HD
ENDBRANCH   1   9
TORSDOF 1
ENDMDL