MODEL 3
REMARK VINA RESULT: -5.075315221      1.152      2.149
REMARK  0 active torsions:
REMARK  status: ('A' for Active; 'I' for Inactive)
ROOT
HETATM    1  C1  UNL     1      15.522   4.536  15.343  1.00  0.00     0.001 C
HETATM    2  C2  UNL     1      14.268   4.860  16.166  1.00  0.00     0.002 C
HETATM    3  C3  UNL     1      14.354   3.922  17.372  1.00  0.00     0.033 C
HETATM    4  C4  UNL     1      14.088   2.538  16.854  1.00  0.00     0.190 C
HETATM    5  N1  UNL     1      14.301   1.577  17.932  1.00  0.00    -0.070 N
ATOM      6  H11 UNL     1      13.433   1.249  18.357  1.00  0.00     0.277 HD
ATOM      7  H12 UNL     1      14.703   1.995  18.771  1.00  0.00     0.277 HD
HETATM    8  C5  UNL     1      15.105   0.512  17.382  1.00  0.00     0.233 C
HETATM    9  C6  UNL     1      16.021   1.300  16.431  1.00  0.00     0.034 C
HETATM   10  C7  UNL     1      14.935   2.121  15.720  1.00  0.00     0.018 C
HETATM   11  C8  UNL     1      15.458   3.150  14.828  1.00  0.00     0.007 C
ENDROOT
TORSDOF 0
ENDMDL