MODEL 2
REMARK VINA RESULT: -4.872518443      4.951      6.126
REMARK  0 active torsions:
REMARK  status: ('A' for Active; 'I' for Inactive)
ROOT
HETATM    1  C1  UNL     1      19.375   1.840  10.433  1.00  0.00     0.044 C
HETATM    2  C2  UNL     1      19.257   0.425  10.972  1.00  0.00     0.005 C
HETATM    3  C3  UNL     1      18.085  -0.316  10.442  1.00  0.00     0.005 C
HETATM    4  C4  UNL     1      16.782  -0.023  11.083  1.00  0.00    -0.011 C
HETATM    5  C5  UNL     1      16.813   0.150  12.560  1.00  0.00     0.029 C
HETATM    6  C6  UNL     1      16.742   1.667  12.326  1.00  0.00     0.081 C
HETATM    7  C7  UNL     1      16.319   1.394  10.944  1.00  0.00     0.029 C
HETATM    8  N1  UNL     1      18.055   2.171  12.482  1.00  0.00    -0.398 N
ATOM      9  H1  UNL     1      18.546   2.089  13.373  1.00  0.00     0.159 HD
HETATM   10  C8  UNL     1      18.665   2.788  11.376  1.00  0.00     0.056 C
ENDROOT
TORSDOF 0
ENDMDL