MODEL 3
REMARK VINA RESULT: -5.720600920      0.753      2.454
REMARK  1 active torsions:
REMARK  status: ('A' for Active; 'I' for Inactive)
REMARK    1  A    between atoms: N1_1  and  C1_5
ROOT
HETATM    1  C1  UNL     1      15.763   1.078  15.938  1.00  0.00     0.184 C
HETATM    2  C2  UNL     1      15.627   0.875  17.381  1.00  0.00     0.044 C
HETATM    3  C3  UNL     1      14.443   1.617  18.088  1.00  0.00     0.082 C
HETATM    4  C4  UNL     1      14.379   2.859  17.435  1.00  0.00    -0.183 C
HETATM    5  C5  UNL     1      13.962   4.130  17.011  1.00  0.00     0.080 C
HETATM    6  C6  UNL     1      14.934   4.483  15.835  1.00  0.00     0.011 C
HETATM    7  C7  UNL     1      15.332   3.365  14.968  1.00  0.00     0.003 C
HETATM    8  C8  UNL     1      16.372   2.354  15.371  1.00  0.00     0.033 C
ENDROOT
BRANCH   1   9
HETATM    9  N1  UNL     1      16.631  -0.044  15.494  1.00  0.00    -0.075 N
ATOM     10  H13 UNL     1      16.963   0.039  14.532  1.00  0.00     0.274 HD
ATOM     11  H12 UNL     1      17.553  -0.058  15.929  1.00  0.00     0.274 HD
ATOM     12  H11 UNL     1      16.072  -0.878  15.672  1.00  0.00     0.274 HD
ENDBRANCH   1   9
TORSDOF 1
ENDMDL