MODEL 3
REMARK VINA RESULT: -4.821944260      1.437      3.374
REMARK  0 active torsions:
REMARK  status: ('A' for Active; 'I' for Inactive)
ROOT
HETATM    1  C1  UNL     1      16.073   2.273  15.268  1.00  0.00     0.001 C
HETATM    2  C2  UNL     1      15.933   1.213  16.274  1.00  0.00     0.005 C
HETATM    3  C3  UNL     1      14.609   1.018  16.904  1.00  0.00     0.044 C
HETATM    4  C4  UNL     1      14.469   1.738  18.247  1.00  0.00     0.060 C
HETATM    5  N1  UNL     1      14.608   3.123  18.186  1.00  0.00    -0.382 N
ATOM      6  H1  UNL     1      15.214   3.611  18.845  1.00  0.00     0.163 HD
HETATM    7  C5  UNL     1      13.899   3.838  17.202  1.00  0.00     0.060 C
HETATM    8  C6  UNL     1      14.831   4.262  16.109  1.00  0.00     0.044 C
HETATM    9  C7  UNL     1      14.919   3.180  15.057  1.00  0.00     0.005 C
ENDROOT
TORSDOF 0
ENDMDL