MODEL 4
REMARK VINA RESULT: -8.082512417      6.558      9.613
REMARK  2 active torsions:
REMARK  status: ('A' for Active; 'I' for Inactive)
REMARK    1  A    between atoms: C4_7  and  S1_8
REMARK    2  A    between atoms: S1_8  and  C5_9
ROOT
HETATM    1  N1  UNL     1     -39.421 -50.105  28.676  1.00  0.00    -0.191 NA
HETATM    2  C1  UNL     1     -40.295 -49.345  28.746  1.00  0.00     0.106 C
HETATM    3  C2  UNL     1     -41.376 -48.415  28.853  1.00  0.00     0.127 A
HETATM    4  C3  UNL     1     -42.660 -48.817  29.168  1.00  0.00     0.118 A
HETATM    5  N2  UNL     1     -43.681 -47.954  29.271  1.00  0.00    -0.345 N
ATOM      6  H2  UNL     1     -44.615 -48.290  29.506  1.00  0.00     0.167 HD
HETATM    7  C4  UNL     1     -43.464 -46.626  29.059  1.00  0.00     0.152 A
HETATM    8  N3  UNL     1     -42.239 -46.188  28.751  1.00  0.00    -0.302 N
ATOM      9  H3  UNL     1     -42.080 -45.192  28.593  1.00  0.00     0.171 HD
HETATM   10  C11 UNL     1     -41.220 -47.052  28.649  1.00  0.00     0.269 A
HETATM   11  O1  UNL     1     -40.043 -46.658  28.357  1.00  0.00    -0.266 OA
ENDROOT
BRANCH   7  12
HETATM   12  S1  UNL     1     -44.880 -45.518  29.216  1.00  0.00    -0.052 SA
BRANCH  12  13
HETATM   13  C5  UNL     1     -46.373 -46.431  29.554  1.00  0.00     0.032 A
HETATM   14  C6  UNL     1     -47.309 -46.689  28.547  1.00  0.00     0.046 A
HETATM   15  C7  UNL     1     -48.427 -47.391  28.885  1.00  0.00     0.057 A
HETATM   16 CL1  UNL     1     -49.610 -47.726  27.648  1.00  0.00    -0.083 Cl
HETATM   17  C8  UNL     1     -48.651 -47.839  30.164  1.00  0.00     0.057 A
HETATM   18 CL2  UNL     1     -50.112 -48.742  30.554  1.00  0.00    -0.082 Cl
HETATM   19  C9  UNL     1     -47.735 -47.583  31.138  1.00  0.00     0.051 A
HETATM   20  C10 UNL     1     -46.588 -46.876  30.839  1.00  0.00     0.052 A
HETATM   21 CL3  UNL     1     -45.459 -46.580  32.145  1.00  0.00    -0.083 Cl
ENDBRANCH  12  13
ENDBRANCH   7  12
TORSDOF 2
ENDMDL