MODEL 2
REMARK VINA RESULT: -8.305578980      2.054      2.161
REMARK  4 active torsions:
REMARK  status: ('A' for Active; 'I' for Inactive)
REMARK    1  A    between atoms: C3_5  and  N2_6
REMARK    2  A    between atoms: N2_6  and  N3_8
REMARK    3  A    between atoms: N3_8  and  O1_10
REMARK    4  A    between atoms: C4_14  and  C5_15
ROOT
HETATM    1  N1  UNL     1     -44.793 -42.913  30.713  1.00  0.00    -0.191 NA
HETATM    2  C1  UNL     1     -44.457 -43.903  30.205  1.00  0.00     0.109 C
HETATM    3  C2  UNL     1     -44.032 -45.112  29.527  1.00  0.00     0.116 A
HETATM    4  S1  UNL     1     -42.512 -45.280  28.694  1.00  0.00    -0.039 SA
HETATM    5  C3  UNL     1     -42.750 -46.843  28.073  1.00  0.00     0.166 A
HETATM    6  N4  UNL     1     -43.950 -47.162  28.519  1.00  0.00    -0.333 N
ATOM      7  H4  UNL     1     -44.356 -48.070  28.292  1.00  0.00     0.168 HD
HETATM    8  C4  UNL     1     -44.624 -46.303  29.262  1.00  0.00     0.074 A
ENDROOT
BRANCH   8   9
HETATM    9  C5  UNL     1     -45.995 -46.609  29.680  1.00  0.00     0.016 A
HETATM   10  C6  UNL     1     -46.891 -46.914  28.642  1.00  0.00     0.041 A
HETATM   11  C7  UNL     1     -48.186 -47.296  28.844  1.00  0.00     0.056 A
HETATM   12 CL1  UNL     1     -49.259 -47.664  27.509  1.00  0.00    -0.083 Cl
HETATM   13  C8  UNL     1     -48.656 -47.390  30.135  1.00  0.00     0.057 A
HETATM   14 CL2  UNL     1     -50.305 -47.871  30.438  1.00  0.00    -0.082 Cl
HETATM   15  C9  UNL     1     -47.799 -47.100  31.165  1.00  0.00     0.050 A
HETATM   16  C10 UNL     1     -46.471 -46.712  30.937  1.00  0.00     0.048 A
HETATM   17 CL3  UNL     1     -45.428 -46.508  32.345  1.00  0.00    -0.083 Cl
ENDBRANCH   8   9
BRANCH   5  18
HETATM   18  N2  UNL     1     -41.920 -47.516  27.342  1.00  0.00    -0.260 N
ATOM     19  H2  UNL     1     -41.897 -47.377  26.332  1.00  0.00     0.191 HD
BRANCH  18  20
HETATM   20  N3  UNL     1     -41.041 -48.449  27.953  1.00  0.00    -0.208 N
ATOM     21  H3  UNL     1     -40.421 -49.049  27.408  1.00  0.00     0.215 HD
BRANCH  20  22
HETATM   22  O1  UNL     1     -41.077 -48.489  29.215  1.00  0.00    -0.274 OA
ATOM     23  H1  UNL     1     -41.355 -49.315  29.592  1.00  0.00     0.246 HD
ENDBRANCH  20  22
ENDBRANCH  18  20
ENDBRANCH   5  18
TORSDOF 4
ENDMDL