MODEL 2
REMARK VINA RESULT: -7.170402817      2.480      3.013
REMARK  2 active torsions:
REMARK  status: ('A' for Active; 'I' for Inactive)
REMARK    1  A    between atoms: C1_2  and  C2_4
REMARK    2  A    between atoms: C3_5  and  C4_6
ROOT
HETATM    1  C2  UNL     1     -43.209 -47.501  28.785  1.00  0.00     0.105 C
HETATM    2  C3  UNL     1     -44.013 -46.576  29.367  1.00  0.00     0.019 C
HETATM    3  C8  UNL     1     -43.573 -45.352  29.881  1.00  0.00     0.101 C
HETATM    4  N1  UNL     1     -42.703 -44.484  29.283  1.00  0.00    -0.373 N
ATOM      5  H1  UNL     1     -42.843 -43.487  29.446  1.00  0.00     0.164 HD
HETATM    6  C9  UNL     1     -41.658 -44.856  28.482  1.00  0.00     0.115 C
HETATM    7  C10 UNL     1     -41.182 -46.121  28.188  1.00  0.00     0.100 C
HETATM    8 CL3  UNL     1     -39.547 -46.214  27.567  1.00  0.00    -0.079 Cl
HETATM    9  C11 UNL     1     -41.864 -47.307  28.336  1.00  0.00     0.212 C
HETATM   10  O3  UNL     1     -41.240 -48.354  28.045  1.00  0.00    -0.285 OA
ENDROOT
BRANCH   2  11
HETATM   11  C4  UNL     1     -45.425 -46.862  29.527  1.00  0.00     0.041 A
HETATM   12  S1  UNL     1     -46.639 -47.172  28.345  1.00  0.00    -0.075 SA
HETATM   13  C5  UNL     1     -47.998 -47.342  29.333  1.00  0.00     0.077 A
HETATM   14 CL1  UNL     1     -49.646 -47.678  28.844  1.00  0.00    -0.076 Cl
HETATM   15  C6  UNL     1     -47.483 -47.154  30.574  1.00  0.00     0.056 A
HETATM   16  C7  UNL     1     -46.172 -46.908  30.697  1.00  0.00     0.054 A
HETATM   17 CL2  UNL     1     -45.380 -46.592  32.279  1.00  0.00    -0.083 Cl
ENDBRANCH   2  11
BRANCH   1  18
HETATM   18  C1  UNL     1     -43.708 -48.831  28.548  1.00  0.00     0.214 C
HETATM   19  O1  UNL     1     -43.756 -49.760  29.406  1.00  0.00    -0.644 OA
HETATM   20  O2  UNL     1     -44.173 -49.126  27.251  1.00  0.00    -0.644 OA
ENDBRANCH   1  18
TORSDOF 2
ENDMDL