MODEL 4
REMARK VINA RESULT: -6.977307110     12.847     14.531
REMARK  3 active torsions:
REMARK  status: ('A' for Active; 'I' for Inactive)
REMARK    1  A    between atoms: C2_2  and  N1_3
REMARK    2  A    between atoms: C5_6  and  C6_7
REMARK    3  A    between atoms: C12_18  and  O1_19
ROOT
HETATM    1  N1  UNL     1     -56.928 -51.084  33.797  1.00  0.00    -0.316 N
HETATM    2  C3  UNL     1     -56.720 -49.786  33.547  1.00  0.00     0.023 A
HETATM    3  C4  UNL     1     -57.389 -49.035  32.472  1.00  0.00     0.069 C
HETATM    4  C5  UNL     1     -55.813 -49.124  34.371  1.00  0.00     0.018 A
HETATM    5  C11 UNL     1     -55.156 -49.767  35.399  1.00  0.00     0.058 A
HETATM    6  C12 UNL     1     -55.398 -51.105  35.626  1.00  0.00     0.135 A
HETATM    7  C13 UNL     1     -56.289 -51.730  34.805  1.00  0.00     0.281 A
HETATM    8  O2  UNL     1     -56.503 -52.970  35.027  1.00  0.00    -0.265 OA
ENDROOT
BRANCH   4   9
HETATM    9  C6  UNL     1     -55.517 -47.690  34.146  1.00  0.00     0.068 A
HETATM   10  N2  UNL     1     -56.281 -46.733  34.707  1.00  0.00    -0.362 N
HETATM   11  C7  UNL     1     -56.047 -45.420  34.536  1.00  0.00     0.114 A
ATOM     12  H2  UNL     1     -57.070 -47.016  35.287  1.00  0.00     0.165 HD
HETATM   13  C8  UNL     1     -54.969 -45.023  33.744  1.00  0.00     0.072 A
HETATM   14 CL1  UNL     1     -54.707 -43.305  33.554  1.00  0.00    -0.081 Cl
HETATM   15  C9  UNL     1     -54.153 -45.962  33.146  1.00  0.00     0.081 A
HETATM   16 CL2  UNL     1     -52.823 -45.389  32.169  1.00  0.00    -0.081 Cl
HETATM   17  C10 UNL     1     -54.449 -47.285  33.362  1.00  0.00     0.085 A
HETATM   18 CL3  UNL     1     -53.426 -48.480  32.606  1.00  0.00    -0.080 Cl
ENDBRANCH   4   9
BRANCH   1  19
HETATM   19  C2  UNL     1     -57.854 -51.845  32.995  1.00  0.00     0.128 C
HETATM   20  C1  UNL     1     -57.161 -52.474  31.793  1.00  0.00     0.027 C
ENDBRANCH   1  19
BRANCH   6  21
HETATM   21  O1  UNL     1     -54.750 -51.798  36.662  1.00  0.00    -0.356 OA
ATOM     22  H1  UNL     1     -53.908 -52.216  36.525  1.00  0.00     0.218 HD
ENDBRANCH   6  21
TORSDOF 3
ENDMDL