MODEL 4
REMARK VINA RESULT: -6.929300853      2.673      4.212
REMARK  3 active torsions:
REMARK  status: ('A' for Active; 'I' for Inactive)
REMARK    1  A    between atoms: O1_2  and  C2_3
REMARK    2  A    between atoms: C3_4  and  O2_5
REMARK    3  A    between atoms: C5_8  and  N1_9
ROOT
HETATM    1  C2  UNL     1     -46.381 -47.023  29.900  1.00  0.00     0.123 A
HETATM    2  C3  UNL     1     -46.264 -47.432  28.596  1.00  0.00     0.102 A
HETATM    3  C4  UNL     1     -45.002 -47.679  28.076  1.00  0.00     0.069 A
HETATM    4  C5  UNL     1     -43.864 -47.528  28.828  1.00  0.00     0.047 A
HETATM    5  C13 UNL     1     -44.000 -47.117  30.137  1.00  0.00     0.057 A
HETATM    6  C14 UNL     1     -45.261 -46.859  30.688  1.00  0.00     0.072 A
HETATM    7 CL3  UNL     1     -45.405 -46.341  32.346  1.00  0.00    -0.081 Cl
ENDROOT
BRANCH   4   8
HETATM    8  N1  UNL     1     -42.576 -47.790  28.265  1.00  0.00    -0.280 N
HETATM    9  C6  UNL     1     -42.062 -49.048  28.277  1.00  0.00     0.038 A
HETATM   10  C7  UNL     1     -42.862 -50.133  28.883  1.00  0.00     0.070 C
HETATM   11  C8  UNL     1     -40.827 -49.299  27.735  1.00  0.00     0.064 A
HETATM   12 CL1  UNL     1     -40.184 -50.922  27.760  1.00  0.00    -0.082 Cl
HETATM   13  C9  UNL     1     -40.060 -48.315  27.165  1.00  0.00    -0.011 A
HETATM   14  C10 UNL     1     -38.725 -48.534  26.569  1.00  0.00     0.052 C
HETATM   15  C11 UNL     1     -40.595 -47.030  27.158  1.00  0.00     0.110 A
HETATM   16 CL2  UNL     1     -39.732 -45.675  26.465  1.00  0.00    -0.078 Cl
HETATM   17  C12 UNL     1     -41.829 -46.821  27.706  1.00  0.00     0.275 A
HETATM   18  O3  UNL     1     -42.316 -45.660  27.701  1.00  0.00    -0.266 OA
ENDBRANCH   4   8
BRANCH   2  19
HETATM   19  O2  UNL     1     -47.413 -47.580  27.848  1.00  0.00    -0.358 OA
ATOM     20  H2  UNL     1     -48.250 -47.582  28.297  1.00  0.00     0.217 HD
ENDBRANCH   2  19
BRANCH   1  21
HETATM   21  O1  UNL     1     -47.615 -46.762  30.469  1.00  0.00    -0.351 OA
HETATM   22  C1  UNL     1     -48.647 -47.717  30.561  1.00  0.00     0.210 C
ENDBRANCH   1  21
TORSDOF 3
ENDMDL