MODEL 3
REMARK VINA RESULT: -7.538178569      1.629      2.765
REMARK  3 active torsions:
REMARK  status: ('A' for Active; 'I' for Inactive)
REMARK    1  A    between atoms: C2_2  and  C3_3
REMARK    2  A    between atoms: C4_7  and  O2_8
REMARK    3  A    between atoms: C4_7  and  C5_10
ROOT
HETATM    1  C3  UNL     1     -41.157 -48.124  26.715  1.00  0.00     0.033 C
HETATM    2  N1  UNL     1     -40.581 -48.324  27.834  1.00  0.00    -0.270 N
ATOM      3  H1  UNL     1     -39.605 -48.613  27.907  1.00  0.00     0.194 HD
HETATM    4  O1  UNL     1     -41.363 -48.122  28.911  1.00  0.00    -0.233 OA
HETATM    5  C4  UNL     1     -42.703 -47.970  28.470  1.00  0.00     0.239 C
HETATM    6  C12 UNL     1     -42.554 -47.725  26.982  1.00  0.00     0.209 C
HETATM    7  C13 UNL     1     -43.484 -48.600  26.208  1.00  0.00     0.076 C
HETATM    8  N2  UNL     1     -44.198 -49.294  25.617  1.00  0.00    -0.196 NA
ENDROOT
BRANCH   1   9
HETATM    9  C2  UNL     1     -40.552 -48.266  25.385  1.00  0.00     0.051 C
HETATM   10  C1  UNL     1     -39.705 -47.060  25.058  1.00  0.00     0.011 C
ENDBRANCH   1   9
BRANCH   5  11
HETATM   11  O2  UNL     1     -43.341 -49.206  28.565  1.00  0.00    -0.359 OA
ATOM     12  H2  UNL     1     -43.834 -49.227  29.376  1.00  0.00     0.213 HD
ENDBRANCH   5  11
BRANCH   5  13
HETATM   13  C5  UNL     1     -43.414 -46.935  29.204  1.00  0.00     0.036 A
HETATM   14  C6  UNL     1     -42.834 -45.660  29.252  1.00  0.00     0.048 A
HETATM   15 CL1  UNL     1     -41.291 -45.289  28.514  1.00  0.00    -0.084 Cl
HETATM   16  C7  UNL     1     -43.452 -44.624  29.911  1.00  0.00     0.050 A
HETATM   17  C8  UNL     1     -44.658 -44.869  30.524  1.00  0.00     0.058 A
HETATM   18 CL2  UNL     1     -45.466 -43.560  31.371  1.00  0.00    -0.082 Cl
HETATM   19  C9  UNL     1     -45.254 -46.108  30.497  1.00  0.00     0.062 A
HETATM   20 CL3  UNL     1     -46.801 -46.386  31.294  1.00  0.00    -0.082 Cl
HETATM   21  C10 UNL     1     -44.621 -47.163  29.824  1.00  0.00    -0.025 A
HETATM   22  C11 UNL     1     -45.316 -48.468  29.838  1.00  0.00     0.050 C
ENDBRANCH   5  13
TORSDOF 3
ENDMDL