MODEL 3
REMARK VINA RESULT: -7.634527934      3.004      6.399
REMARK  4 active torsions:
REMARK  status: ('A' for Active; 'I' for Inactive)
REMARK    1  A    between atoms: C2_2  and  O1_5
REMARK    2  A    between atoms: O1_5  and  N1_6
REMARK    3  A    between atoms: C6_10  and  O3_11
REMARK    4  A    between atoms: C6_10  and  C7_13
ROOT
HETATM    1  N1  UNL     1     -42.094 -45.995  28.936  1.00  0.00    -0.243 N
ATOM      2  H1  UNL     1     -42.046 -46.881  28.432  1.00  0.00     0.196 HD
HETATM    3  C5  UNL     1     -43.253 -45.532  29.248  1.00  0.00     0.178 A
HETATM    4  O2  UNL     1     -43.575 -44.372  29.919  1.00  0.00    -0.290 OA
HETATM    5  C6  UNL     1     -44.966 -44.230  30.060  1.00  0.00     0.212 A
HETATM    6  C8  UNL     1     -45.534 -45.434  29.401  1.00  0.00     0.023 A
HETATM    7  C9  UNL     1     -46.851 -45.822  29.236  1.00  0.00     0.037 A
HETATM    8  C10 UNL     1     -47.082 -47.010  28.573  1.00  0.00     0.036 A
HETATM    9 CL2  UNL     1     -48.733 -47.542  28.341  1.00  0.00    -0.084 Cl
HETATM   10  C11 UNL     1     -46.053 -47.797  28.083  1.00  0.00     0.048 A
HETATM   11  C12 UNL     1     -44.739 -47.409  28.246  1.00  0.00     0.051 A
HETATM   12 CL3  UNL     1     -43.411 -48.375  27.642  1.00  0.00    -0.083 Cl
HETATM   13  C13 UNL     1     -44.496 -46.222  28.910  1.00  0.00     0.050 A
ENDROOT
BRANCH   1  14
HETATM   14  O1  UNL     1     -40.918 -45.358  29.248  1.00  0.00    -0.268 OA
BRANCH  14  15
HETATM   15  C2  UNL     1     -39.913 -45.349  28.249  1.00  0.00     0.078 C
HETATM   16  C1  UNL     1     -39.148 -44.071  28.369  1.00  0.00     0.048 C
HETATM   17  C3  UNL     1     -39.031 -46.569  28.510  1.00  0.00     0.048 C
HETATM   18  C4  UNL     1     -40.493 -45.422  26.859  1.00  0.00     0.048 C
ENDBRANCH  14  15
ENDBRANCH   1  14
BRANCH   5  19
HETATM   19  O3  UNL     1     -45.441 -43.063  29.460  1.00  0.00    -0.360 OA
ATOM     20  H3  UNL     1     -46.238 -42.747  29.869  1.00  0.00     0.213 HD
ENDBRANCH   5  19
BRANCH   5  21
HETATM   21  C7  UNL     1     -45.355 -44.185  31.530  1.00  0.00     0.189 C
HETATM   22 CL1  UNL     1     -45.541 -45.866  32.096  1.00  0.00    -0.124 Cl
ENDBRANCH   5  21
TORSDOF 4
ENDMDL