MODEL 1
REMARK VINA RESULT: -8.508855315      0.000      0.000
REMARK  4 active torsions:
REMARK  status: ('A' for Active; 'I' for Inactive)
REMARK    1  A    between atoms: O1_2  and  C2_3
REMARK    2  A    between atoms: C2_3  and  C3_5
REMARK    3  A    between atoms: C5_9  and  N2_10
REMARK    4  A    between atoms: N2_10  and  C6_12
ROOT
HETATM    1  N2  UNL     1     -51.123 -48.295  30.151  1.00  0.00    -0.335 N
ATOM      2  H2  UNL     1     -51.513 -49.159  29.775  1.00  0.00     0.168 HD
ENDROOT
BRANCH   1   3
HETATM    3  C5  UNL     1     -51.857 -47.538  30.942  1.00  0.00     0.149 A
HETATM    4  N1  UNL     1     -51.862 -46.207  31.021  1.00  0.00    -0.345 N
HETATM    5  C4  UNL     1     -52.662 -45.636  31.868  1.00  0.00     0.115 A
ATOM      6  H1  UNL     1     -51.249 -45.649  30.427  1.00  0.00     0.167 HD
HETATM    7  C3  UNL     1     -53.464 -46.431  32.641  1.00  0.00     0.099 A
HETATM    8  S1  UNL     1     -53.023 -47.989  32.105  1.00  0.00    -0.046 SA
BRANCH   7   9
HETATM    9  C2  UNL     1     -54.439 -46.037  33.658  1.00  0.00     0.301 C
HETATM   10  O2  UNL     1     -55.020 -46.924  34.328  1.00  0.00    -0.259 OA
BRANCH   9  11
HETATM   11  O1  UNL     1     -54.752 -44.719  33.912  1.00  0.00    -0.322 OA
HETATM   12  C1  UNL     1     -56.031 -44.219  34.126  1.00  0.00     0.213 C
ENDBRANCH   9  11
ENDBRANCH   7   9
ENDBRANCH   1   3
BRANCH   1  13
HETATM   13  C6  UNL     1     -49.803 -47.925  29.819  1.00  0.00     0.057 A
HETATM   14  C7  UNL     1     -48.788 -48.000  30.743  1.00  0.00     0.057 A
HETATM   15  C8  UNL     1     -47.518 -47.617  30.335  1.00  0.00     0.058 A
HETATM   16 CL1  UNL     1     -46.214 -47.708  31.506  1.00  0.00    -0.082 Cl
HETATM   17  C9  UNL     1     -47.262 -47.175  29.051  1.00  0.00     0.057 A
HETATM   18 CL2  UNL     1     -45.633 -46.695  28.564  1.00  0.00    -0.082 Cl
HETATM   19  C10 UNL     1     -48.284 -47.103  28.135  1.00  0.00     0.051 A
HETATM   20  C11 UNL     1     -49.550 -47.483  28.538  1.00  0.00     0.062 A
HETATM   21 CL3  UNL     1     -50.827 -47.381  27.346  1.00  0.00    -0.082 Cl
ENDBRANCH   1  13
TORSDOF 4
ENDMDL