MODEL 5
REMARK VINA RESULT: -7.059037624      3.175      4.894
REMARK  3 active torsions:
REMARK  status: ('A' for Active; 'I' for Inactive)
REMARK    1  A    between atoms: C5_7  and  N2_8
REMARK    2  A    between atoms: C6_11  and  N3_12
REMARK    3  A    between atoms: N3_12  and  C7_14
ROOT
HETATM    1  C1  UNL     1     -39.629 -45.790  24.812  1.00  0.00     0.070 C
HETATM    2  C2  UNL     1     -40.285 -46.894  25.579  1.00  0.00     0.029 A
HETATM    3  N1  UNL     1     -40.224 -48.157  25.148  1.00  0.00    -0.360 N
ATOM      4  H1  UNL     1     -39.720 -48.363  24.285  1.00  0.00     0.165 HD
HETATM    5  C3  UNL     1     -40.808 -49.165  25.821  1.00  0.00     0.041 A
HETATM    6  C4  UNL     1     -40.695 -50.549  25.274  1.00  0.00     0.071 C
HETATM    7  C5  UNL     1     -41.492 -48.914  26.990  1.00  0.00     0.153 A
HETATM    8  C6  UNL     1     -41.591 -47.610  27.495  1.00  0.00     0.092 A
HETATM    9  C12 UNL     1     -40.971 -46.642  26.752  1.00  0.00     0.085 A
HETATM   10 CL2  UNL     1     -41.043 -44.987  27.281  1.00  0.00    -0.080 Cl
ENDROOT
BRANCH   8  11
HETATM   11  N3  UNL     1     -42.237 -47.460  28.549  1.00  0.00    -0.350 N
ATOM     12  H3  UNL     1     -41.757 -47.832  29.369  1.00  0.00     0.166 HD
BRANCH  11  13
HETATM   13  C7  UNL     1     -43.472 -46.893  28.848  1.00  0.00     0.076 A
HETATM   14  C8  UNL     1     -44.681 -47.357  28.390  1.00  0.00     0.075 A
HETATM   15  C9  UNL     1     -45.853 -46.732  28.725  1.00  0.00     0.105 A
HETATM   16 CL1  UNL     1     -47.417 -47.318  28.146  1.00  0.00    -0.064 Cl
HETATM   17  N4  UNL     1     -45.814 -45.637  29.526  1.00  0.00    -0.353 N
HETATM   18  C10 UNL     1     -44.638 -45.162  29.991  1.00  0.00     0.133 A
ATOM     19  H4  UNL     1     -46.683 -45.167  29.780  1.00  0.00     0.166 HD
HETATM   20  C11 UNL     1     -43.470 -45.777  29.661  1.00  0.00     0.158 A
HETATM   21  F1  UNL     1     -42.303 -45.259  30.153  1.00  0.00    -0.202 F
ENDBRANCH  11  13
ENDBRANCH   8  11
BRANCH   7  22
HETATM   22  N2  UNL     1     -42.077 -50.029  27.646  1.00  0.00    -0.111 N
HETATM   23  O1  UNL     1     -43.222 -50.416  27.337  1.00  0.00    -0.532 OA
HETATM   24  O2  UNL     1     -41.401 -50.687  28.617  1.00  0.00    -0.532 OA
ENDBRANCH   7  22
TORSDOF 3
ENDMDL