MODEL 1
REMARK VINA RESULT: -8.485183770      0.000      0.000
REMARK  6 active torsions:
REMARK  status: ('A' for Active; 'I' for Inactive)
REMARK    1  A    between atoms: C4_5  and  N1_6
REMARK    2  A    between atoms: N1_6  and  C5_7
REMARK    3  A    between atoms: C5_7  and  C6_8
REMARK    4  A    between atoms: C6_8  and  C8_11
REMARK    5  A    between atoms: C9_12  and  C10_13
REMARK    6  A    between atoms: C14_20  and  O2_21
ROOT
HETATM    1  C1  UNL     1     -43.243 -48.688  28.467  1.00  0.00     0.210 C
HETATM    2  O1  UNL     1     -44.238 -48.225  29.132  1.00  0.00    -0.353 OA
HETATM    3  C2  UNL     1     -45.241 -47.757  29.804  1.00  0.00     0.106 A
HETATM    4  C3  UNL     1     -46.486 -48.332  29.856  1.00  0.00     0.084 A
HETATM    5  C4  UNL     1     -47.576 -47.829  30.581  1.00  0.00     0.110 A
HETATM    6  C12 UNL     1     -47.320 -46.635  31.298  1.00  0.00     0.071 A
HETATM    7  C13 UNL     1     -46.106 -46.037  31.271  1.00  0.00     0.073 A
HETATM    8 CL3  UNL     1     -45.824 -44.543  32.181  1.00  0.00    -0.081 Cl
HETATM    9  C14 UNL     1     -45.089 -46.577  30.547  1.00  0.00     0.121 A
ENDROOT
BRANCH   9  10
HETATM   10  O2  UNL     1     -43.841 -45.986  30.504  1.00  0.00    -0.356 OA
ATOM     11  H2  UNL     1     -43.826 -45.047  30.361  1.00  0.00     0.218 HD
ENDBRANCH   9  10
BRANCH   5  12
HETATM   12  N1  UNL     1     -48.777 -48.409  30.614  1.00  0.00    -0.420 NA
BRANCH  12  13
HETATM   13  C5  UNL     1     -49.798 -48.955  30.688  1.00  0.00     0.187 C
BRANCH  13  14
HETATM   14  C6  UNL     1     -51.076 -48.610  29.906  1.00  0.00     0.223 C
HETATM   15  C7  UNL     1     -50.677 -47.664  28.889  1.00  0.00     0.083 C
HETATM   16  N2  UNL     1     -50.374 -46.892  28.078  1.00  0.00    -0.196 NA
BRANCH  14  17
HETATM   17  C8  UNL     1     -52.045 -47.957  30.785  1.00  0.00    -0.077 C
HETATM   18  C9  UNL     1     -52.856 -47.438  31.508  1.00  0.00    -0.062 C
BRANCH  18  19
HETATM   19  C10 UNL     1     -53.852 -46.831  32.393  1.00  0.00     0.172 C
HETATM   20  C11 UNL     1     -53.936 -47.598  33.713  1.00  0.00     0.065 C
HETATM   21 CL1  UNL     1     -53.254 -45.181  32.778  1.00  0.00    -0.088 Cl
HETATM   22 CL2  UNL     1     -55.449 -46.747  31.667  1.00  0.00    -0.088 Cl
ENDBRANCH  18  19
ENDBRANCH  14  17
ENDBRANCH  13  14
ENDBRANCH  12  13
ENDBRANCH   5  12
TORSDOF 6
ENDMDL