MODEL 4
REMARK VINA RESULT: -6.278665933      3.571      7.734
REMARK  3 active torsions:
REMARK  status: ('A' for Active; 'I' for Inactive)
REMARK    1  A    between atoms: N1_1  and  C1_5
REMARK    2  A    between atoms: C5_12  and  C6_13
REMARK    3  A    between atoms: C7_16  and  C8_17
ROOT
HETATM    1  C6  UNL     1      -6.861  24.222   8.963  1.00  0.00     0.154 A
HETATM    2  N3  UNL     1      -7.411  25.446   9.013  1.00  0.00    -0.325 N
ATOM      3  H3  UNL     1      -6.967  26.310   8.705  1.00  0.00     0.169 HD
HETATM    4  C7  UNL     1      -8.648  25.343   9.541  1.00  0.00     0.134 A
HETATM    5  N5  UNL     1      -8.811  24.027   9.799  1.00  0.00    -0.245 N
ATOM      6  H5  UNL     1      -9.646  23.604  10.205  1.00  0.00     0.196 HD
HETATM    7  O1  UNL     1      -7.752  23.391   9.451  1.00  0.00    -0.222 OA
ENDROOT
BRANCH   1   8
HETATM    8  C5  UNL     1      -5.549  23.782   8.484  1.00  0.00     0.096 C
HETATM    9  C1  UNL     1      -5.611  23.353   7.016  1.00  0.00     0.221 C
HETATM   10  C2  UNL     1      -4.292  22.617   6.757  1.00  0.00     0.265 C
HETATM   11  N2  UNL     1      -3.210  23.550   6.914  1.00  0.00    -0.073 N
HETATM   12  C3  UNL     1      -3.176  24.194   8.197  1.00  0.00     0.233 C
ATOM     13  H22 UNL     1      -2.317  23.098   6.715  1.00  0.00     0.277 HD
ATOM     14  H21 UNL     1      -3.222  24.242   6.165  1.00  0.00     0.277 HD
HETATM   15  C4  UNL     1      -4.489  24.850   8.560  1.00  0.00     0.042 C
BRANCH   9  16
HETATM   16  N1  UNL     1      -5.587  24.537   6.189  1.00  0.00    -0.073 N
ATOM     17  H13 UNL     1      -5.592  25.405   6.724  1.00  0.00     0.274 HD
ATOM     18  H12 UNL     1      -4.693  24.684   5.719  1.00  0.00     0.274 HD
ATOM     19  H11 UNL     1      -6.373  24.454   5.544  1.00  0.00     0.274 HD
ENDBRANCH   9  16
ENDBRANCH   1   8
BRANCH   4  20
HETATM   20  C8  UNL     1      -9.639  26.389   9.799  1.00  0.00     0.254 C
HETATM   21  C9  UNL     1     -10.279  26.164  11.172  1.00  0.00     0.042 C
HETATM   22  C10 UNL     1     -11.011  27.500  11.331  1.00  0.00     0.030 C
HETATM   23  C11 UNL     1      -9.964  28.457  10.812  1.00  0.00     0.233 C
HETATM   24  N4  UNL     1      -9.083  27.700   9.957  1.00  0.00    -0.064 N
ATOM     25  H42 UNL     1      -8.121  27.683  10.298  1.00  0.00     0.278 HD
ATOM     26  H41 UNL     1      -8.903  28.163   9.067  1.00  0.00     0.278 HD
ENDBRANCH   4  20
TORSDOF 3
ENDMDL