MODEL 1
REMARK VINA RESULT: -5.830548169      0.000      0.000
REMARK  3 active torsions:
REMARK  status: ('A' for Active; 'I' for Inactive)
REMARK    1  A    between atoms: C2_2  and  C5_5
REMARK    2  A    between atoms: N2_9  and  C7_10
REMARK    3  A    between atoms: C9_12  and  O1_13
ROOT
HETATM    1  C5  UNL     1      -3.680  25.929   6.784  1.00  0.00     0.059 A
HETATM    2  N1  UNL     1      -3.790  27.012   7.547  1.00  0.00    -0.352 N
ATOM      3  H1  UNL     1      -3.055  27.704   7.695  1.00  0.00     0.166 HD
HETATM    4  C6  UNL     1      -5.017  27.056   8.093  1.00  0.00     0.185 A
HETATM    5  N2  UNL     1      -5.720  25.974   7.671  1.00  0.00    -0.316 N
HETATM    6  C11 UNL     1      -4.886  25.277   6.859  1.00  0.00     0.144 A
HETATM    7  N3  UNL     1      -5.249  24.072   6.214  1.00  0.00    -0.080 NA
ENDROOT
BRANCH   5   8
HETATM    8  C7  UNL     1      -7.068  25.705   8.060  1.00  0.00     0.156 C
HETATM    9  C8  UNL     1      -7.775  27.006   8.363  1.00  0.00     0.069 C
HETATM   10  C9  UNL     1      -8.987  26.660   9.196  1.00  0.00     0.130 C
HETATM   11  C10 UNL     1      -8.485  25.958  10.436  1.00  0.00     0.107 C
HETATM   12  S1  UNL     1      -7.146  24.923   9.721  1.00  0.00    -0.141 SA
BRANCH  10  13
HETATM   13  O1  UNL     1      -9.888  25.881   8.494  1.00  0.00    -0.395 OA
ATOM     14  H1  UNL     1     -10.406  25.334   9.072  1.00  0.00     0.210 HD
ENDBRANCH  10  13
ENDBRANCH   5   8
BRANCH   1  15
HETATM   15  C2  UNL     1      -2.510  25.507   6.012  1.00  0.00    -0.005 C
HETATM   16  C1  UNL     1      -2.467  26.185   4.643  1.00  0.00     0.021 C
HETATM   17  C3  UNL     1      -2.452  24.015   5.796  1.00  0.00     0.021 C
HETATM   18  C4  UNL     1      -1.228  25.898   6.734  1.00  0.00     0.021 C
ENDBRANCH   1  15
TORSDOF 3
ENDMDL