MODEL 4
REMARK VINA RESULT: -5.636802886      1.617      2.558
REMARK  2 active torsions:
REMARK  status: ('A' for Active; 'I' for Inactive)
REMARK    1  A    between atoms: S1_2  and  C2_3
REMARK    2  A    between atoms: C5_9  and  C6_10
ROOT
HETATM    1  C2  UNL     1      -7.723  25.543  10.328  1.00  0.00     0.050 C
HETATM    2  C3  UNL     1      -6.627  26.559  10.573  1.00  0.00     0.043 C
HETATM    3  C4  UNL     1      -6.049  27.017   9.266  1.00  0.00     0.234 C
HETATM    4  N1  UNL     1      -5.447  25.915   8.542  1.00  0.00    -0.069 N
ATOM      5  H11 UNL     1      -4.609  25.571   9.011  1.00  0.00     0.277 HD
ATOM      6  H12 UNL     1      -5.020  26.228   7.670  1.00  0.00     0.277 HD
HETATM    7  C5  UNL     1      -6.397  24.861   8.317  1.00  0.00     0.209 C
HETATM    8  C10 UNL     1      -7.099  24.406   9.549  1.00  0.00     0.050 C
ENDROOT
BRANCH   7   9
HETATM    9  C6  UNL     1      -5.782  23.693   7.617  1.00  0.00     0.116 C
HETATM   10  C7  UNL     1      -5.652  22.455   8.460  1.00  0.00     0.047 C
HETATM   11  C8  UNL     1      -5.195  21.326   7.538  1.00  0.00     0.124 C
HETATM   12  N2  UNL     1      -4.186  21.719   6.609  1.00  0.00    -0.365 N
HETATM   13  C9  UNL     1      -3.822  22.941   6.362  1.00  0.00     0.184 C
ATOM     14  H2  UNL     1      -3.711  20.978   6.096  1.00  0.00     0.162 HD
HETATM   15  N3  UNL     1      -2.804  23.204   5.414  1.00  0.00    -0.064 NA
HETATM   16  N4  UNL     1      -4.476  23.986   7.072  1.00  0.00    -0.358 N
ATOM     17  H4  UNL     1      -4.042  24.901   7.191  1.00  0.00     0.162 HD
ENDBRANCH   7   9
BRANCH   1  18
HETATM   18  S1  UNL     1      -9.134  26.269   9.493  1.00  0.00    -0.169 SA
HETATM   19  C1  UNL     1     -10.420  26.676  10.696  1.00  0.00     0.090 C
ENDBRANCH   1  18
TORSDOF 2
ENDMDL