MODEL 1
REMARK VINA RESULT: -5.455423721      0.000      0.000
REMARK  6 active torsions:
REMARK  status: ('A' for Active; 'I' for Inactive)
REMARK    1  A    between atoms: C2_2  and  O1_4
REMARK    2  A    between atoms: C2_2  and  C4_6
REMARK    3  A    between atoms: C4_6  and  S1_7
REMARK    4  A    between atoms: S1_7  and  C5_8
REMARK    5  A    between atoms: C5_8  and  N1_10
REMARK    6  A    between atoms: N1_10  and  C6_12
ROOT
HETATM    1  C5  UNL     1      -5.860  26.237   6.802  1.00  0.00     0.141 C
HETATM    2  S2  UNL     1      -7.089  26.886   7.704  1.00  0.00    -0.052 SA
ENDROOT
BRANCH   1   3
HETATM    3  S1  UNL     1      -4.412  27.158   6.614  1.00  0.00    -0.097 SA
BRANCH   3   4
HETATM    4  C4  UNL     1      -2.927  26.190   6.619  1.00  0.00     0.118 C
BRANCH   4   5
HETATM    5  C2  UNL     1      -2.411  25.883   5.263  1.00  0.00     0.059 C
HETATM    6  C1  UNL     1      -1.007  25.312   5.431  1.00  0.00     0.046 C
HETATM    7  C3  UNL     1      -2.445  26.962   4.264  1.00  0.00     0.046 C
BRANCH   5   8
HETATM    8  O1  UNL     1      -3.224  24.840   4.768  1.00  0.00    -0.390 OA
ATOM      9  H1  UNL     1      -3.100  24.095   5.345  1.00  0.00     0.210 HD
ENDBRANCH   5   8
ENDBRANCH   4   5
ENDBRANCH   3   4
ENDBRANCH   1   3
BRANCH   1  10
HETATM   10  N1  UNL     1      -6.097  24.962   6.250  1.00  0.00    -0.314 N
ATOM     11  H1  UNL     1      -6.539  24.893   5.333  1.00  0.00     0.170 HD
BRANCH  10  12
HETATM   12  C6  UNL     1      -5.730  23.742   6.950  1.00  0.00     0.176 C
HETATM   13  N2  UNL     1      -4.869  22.881   6.574  1.00  0.00    -0.361 N
HETATM   14  C7  UNL     1      -4.726  21.771   7.487  1.00  0.00     0.142 C
ATOM     15  H2  UNL     1      -4.332  22.968   5.711  1.00  0.00     0.162 HD
HETATM   16  C8  UNL     1      -5.868  21.951   8.456  1.00  0.00     0.142 C
HETATM   17  N3  UNL     1      -6.278  23.310   8.182  1.00  0.00    -0.361 N
ATOM     18  H3  UNL     1      -6.875  23.874   8.787  1.00  0.00     0.162 HD
ENDBRANCH  10  12
ENDBRANCH   1  10
TORSDOF 6
ENDMDL