MODEL 3
REMARK VINA RESULT: -6.019933917      1.132      2.546
REMARK  3 active torsions:
REMARK  status: ('A' for Active; 'I' for Inactive)
REMARK    1  A    between atoms: N1_2  and  C2_4
REMARK    2  A    between atoms: C6_13  and  N5_14
REMARK    3  A    between atoms: N5_14  and  C7_16
ROOT
HETATM    1  C2  UNL     1      -4.621  24.971   6.503  1.00  0.00     0.110 A
HETATM    2  C3  UNL     1      -3.596  24.068   6.341  1.00  0.00     0.145 A
HETATM    3  C4  UNL     1      -2.364  24.556   5.779  1.00  0.00     0.120 C
HETATM    4  N2  UNL     1      -1.359  24.932   5.318  1.00  0.00    -0.190 NA
HETATM    5  N3  UNL     1      -3.697  22.771   6.679  1.00  0.00    -0.342 N
ATOM      6  H3  UNL     1      -2.908  22.141   6.538  1.00  0.00     0.167 HD
HETATM    7  C5  UNL     1      -4.844  22.311   7.204  1.00  0.00     0.183 A
HETATM    8  N4  UNL     1      -5.880  23.188   7.377  1.00  0.00    -0.337 N
ATOM      9  H4  UNL     1      -6.749  22.835   7.775  1.00  0.00     0.168 HD
HETATM   10  C6  UNL     1      -5.815  24.477   7.053  1.00  0.00     0.132 A
ENDROOT
BRANCH   1  11
HETATM   11  N1  UNL     1      -4.468  26.334   6.131  1.00  0.00    -0.389 N
HETATM   12  C1  UNL     1      -3.991  27.351   7.031  1.00  0.00     0.146 C
ATOM     13  H1  UNL     1      -4.708  26.606   5.177  1.00  0.00     0.159 HD
ENDBRANCH   1  11
BRANCH  10  14
HETATM   14  N5  UNL     1      -6.768  25.271   7.215  1.00  0.00    -0.370 N
ATOM     15  H5  UNL     1      -7.341  25.385   6.377  1.00  0.00     0.161 HD
BRANCH  14  16
HETATM   16  C7  UNL     1      -7.223  26.043   8.302  1.00  0.00     0.086 C
HETATM   17  C8  UNL     1      -8.025  25.332   9.343  1.00  0.00     0.052 C
HETATM   18  C9  UNL     1      -9.193  26.191   9.796  1.00  0.00     0.234 C
HETATM   19  N6  UNL     1      -8.751  27.510  10.157  1.00  0.00    -0.075 N
HETATM   20  C10 UNL     1      -8.173  28.210   9.054  1.00  0.00     0.234 C
ATOM     21  H62 UNL     1      -9.508  28.049  10.578  1.00  0.00     0.277 HD
ATOM     22  H61 UNL     1      -8.111  27.480  10.950  1.00  0.00     0.277 HD
HETATM   23  C11 UNL     1      -7.900  27.336   7.851  1.00  0.00     0.052 C
ENDBRANCH  14  16
ENDBRANCH  10  14
TORSDOF 3
ENDMDL