MODEL 2
REMARK VINA RESULT: -5.576098000      1.571      2.564
REMARK  3 active torsions:
REMARK  status: ('A' for Active; 'I' for Inactive)
REMARK    1  A    between atoms: N1_2  and  C2_4
REMARK    2  A    between atoms: C4_8  and  N3_9
REMARK    3  A    between atoms: C5_14  and  N5_15
ROOT
HETATM    1  C2  UNL     1      -6.785  25.504   9.472  1.00  0.00     0.088 A
HETATM    2  C3  UNL     1      -8.086  25.790   9.914  1.00  0.00     0.139 A
HETATM    3  N2  UNL     1      -8.972  24.792   9.968  1.00  0.00    -0.200 N
ATOM      4  H2  UNL     1      -9.922  24.981  10.287  1.00  0.00     0.183 HD
HETATM    5  C4  UNL     1      -8.632  23.539   9.610  1.00  0.00     0.677 A
HETATM    6  N4  UNL     1      -7.381  23.280   9.190  1.00  0.00    -0.175 N
ATOM      7  H4  UNL     1      -7.147  22.324   8.925  1.00  0.00     0.186 HD
HETATM    8  C5  UNL     1      -6.413  24.234   9.101  1.00  0.00     0.147 A
ENDROOT
BRANCH   8   9
HETATM    9  N5  UNL     1      -5.119  23.889   8.671  1.00  0.00    -0.356 N
HETATM   10  C6  UNL     1      -4.160  23.425   9.692  1.00  0.00     0.125 C
HETATM   11  C7  UNL     1      -2.785  23.984   9.380  1.00  0.00     0.020 C
HETATM   12  C8  UNL     1      -2.874  25.259   8.593  1.00  0.00     0.004 C
HETATM   13  C9  UNL     1      -3.487  24.982   7.270  1.00  0.00     0.030 C
HETATM   14  C10 UNL     1      -4.602  23.943   7.330  1.00  0.00     0.027 C
HETATM   15  C11 UNL     1      -3.992  22.644   6.846  1.00  0.00     0.038 C
HETATM   16  C12 UNL     1      -5.691  24.407   6.385  1.00  0.00     0.038 C
ENDBRANCH   8   9
BRANCH   1  17
HETATM   17  N1  UNL     1      -5.878  26.563   9.402  1.00  0.00    -0.390 N
HETATM   18  C1  UNL     1      -5.991  27.574   8.377  1.00  0.00     0.146 C
ATOM     19  H1  UNL     1      -5.124  26.625  10.086  1.00  0.00     0.159 HD
ENDBRANCH   1  17
BRANCH   5  20
HETATM   20  N3  UNL     1      -9.496  22.569   9.663  1.00  0.00    -0.234 N
ATOM     21  H32 UNL     1      -9.200  21.626   9.412  1.00  0.00     0.174 HD
ATOM     22  H31 UNL     1     -10.459  22.738   9.953  1.00  0.00     0.174 HD
ENDBRANCH   5  20
TORSDOF 3
ENDMDL