MODEL 2
REMARK VINA RESULT: -5.857551479      3.246      4.275
REMARK  3 active torsions:
REMARK  status: ('A' for Active; 'I' for Inactive)
REMARK    1  A    between atoms: C2_3  and  S1_4
REMARK    2  A    between atoms: S1_4  and  C3_5
REMARK    3  A    between atoms: C9_18  and  N5_19
ROOT
HETATM    1  C1  UNL     1      -3.231  23.893   7.988  1.00  0.00     0.177 C
HETATM    2  N1  UNL     1      -4.358  24.397   7.213  1.00  0.00    -0.164 N
HETATM    3  C2  UNL     1      -4.494  25.655   6.753  1.00  0.00     0.176 A
HETATM    4  N3  UNL     1      -5.673  25.679   6.094  1.00  0.00    -0.265 N
ATOM      5  H3  UNL     1      -6.073  26.491   5.624  1.00  0.00     0.189 HD
HETATM    6  N4  UNL     1      -6.224  24.478   6.157  1.00  0.00    -0.130 N
ATOM      7  H4  UNL     1      -7.118  24.217   5.743  1.00  0.00     0.205 HD
HETATM    8  C9  UNL     1      -5.414  23.648   6.858  1.00  0.00     0.694 A
ENDROOT
BRANCH   3   9
HETATM    9  S1  UNL     1      -3.322  27.002   6.997  1.00  0.00    -0.085 SA
BRANCH   9  10
HETATM   10  C3  UNL     1      -2.432  27.208   5.421  1.00  0.00     0.083 C
HETATM   11  C4  UNL     1      -2.362  25.842   4.770  1.00  0.00     0.248 C
HETATM   12  N2  UNL     1      -1.230  25.247   5.427  1.00  0.00    -0.066 N
HETATM   13  C5  UNL     1      -0.298  26.280   5.771  1.00  0.00     0.119 C
ATOM     14  H22 UNL     1      -1.500  24.682   6.232  1.00  0.00     0.278 HD
ATOM     15  H21 UNL     1      -0.801  24.507   4.871  1.00  0.00     0.278 HD
HETATM   16  C6  UNL     1       0.870  26.182   4.791  1.00  0.00     0.046 C
HETATM   17  C7  UNL     1       0.187  26.196   7.200  1.00  0.00     0.046 C
HETATM   18  C8  UNL     1      -1.001  27.598   5.607  1.00  0.00     0.055 C
ENDBRANCH   9  10
ENDBRANCH   3   9
BRANCH   8  19
HETATM   19  N5  UNL     1      -5.640  22.394   7.113  1.00  0.00    -0.233 N
ATOM     20  H52 UNL     1      -6.487  22.009   7.531  1.00  0.00     0.174 HD
ATOM     21  H51 UNL     1      -5.032  21.592   6.948  1.00  0.00     0.174 HD
ENDBRANCH   8  19
TORSDOF 3
ENDMDL