MODEL 4
REMARK VINA RESULT: -5.676054657      2.079      4.830
REMARK  2 active torsions:
REMARK  status: ('A' for Active; 'I' for Inactive)
REMARK    1  A    between atoms: S1_2  and  C2_3
REMARK    2  A    between atoms: N4_12  and  C4_13
ROOT
HETATM    1  C2  UNL     1      -5.544  24.863   6.977  1.00  0.00     0.177 A
HETATM    2  N1  UNL     1      -6.097  23.651   7.105  1.00  0.00    -0.265 N
ATOM      3  H1  UNL     1      -7.052  23.486   7.422  1.00  0.00     0.189 HD
HETATM    4  N2  UNL     1      -5.263  22.711   6.773  1.00  0.00    -0.130 N
ATOM      5  H2  UNL     1      -5.448  21.708   6.786  1.00  0.00     0.205 HD
HETATM    6  C3  UNL     1      -4.071  23.320   6.397  1.00  0.00     0.695 A
HETATM    7  N3  UNL     1      -3.089  22.630   6.009  1.00  0.00    -0.233 N
ATOM      8  H31 UNL     1      -2.215  23.076   5.733  1.00  0.00     0.174 HD
ATOM      9  H32 UNL     1      -2.938  21.626   5.905  1.00  0.00     0.174 HD
HETATM   10  N4  UNL     1      -4.271  24.648   6.534  1.00  0.00    -0.153 N
ENDROOT
BRANCH  10  11
HETATM   11  C4  UNL     1      -3.337  25.700   6.275  1.00  0.00     0.142 C
HETATM   12  C5  UNL     1      -2.596  25.639   4.976  1.00  0.00     0.259 C
HETATM   13  N5  UNL     1      -1.387  26.447   5.317  1.00  0.00    -0.069 N
HETATM   14  C6  UNL     1      -0.985  25.586   6.449  1.00  0.00     0.192 C
ATOM     15  H52 UNL     1      -0.703  26.621   4.580  1.00  0.00     0.277 HD
ATOM     16  H51 UNL     1      -1.510  27.443   5.493  1.00  0.00     0.277 HD
HETATM   17  C7  UNL     1       0.116  26.164   7.251  1.00  0.00     0.033 C
HETATM   18  C10 UNL     1      -2.238  25.842   7.324  1.00  0.00     0.042 C
HETATM   19  C8  UNL     1      -0.485  27.422   7.821  1.00  0.00     0.002 C
HETATM   20  C9  UNL     1      -1.990  27.273   7.677  1.00  0.00     0.009 C
ENDBRANCH  10  11
BRANCH   1  21
HETATM   21  S1  UNL     1      -6.316  26.444   7.282  1.00  0.00    -0.096 SA
HETATM   22  C1  UNL     1      -7.610  26.274   8.510  1.00  0.00     0.099 C
ENDBRANCH   1  21
TORSDOF 2
ENDMDL