MODEL 1
REMARK VINA RESULT: -6.374558701      0.000      0.000
REMARK  2 active torsions:
REMARK  status: ('A' for Active; 'I' for Inactive)
REMARK    1  A    between atoms: C2_2  and  C3_3
REMARK    2  A    between atoms: C3_3  and  C4_4
ROOT
HETATM    1  C4  UNL     1      -2.351  26.289   8.331  1.00  0.00     0.008 C
HETATM    2  C5  UNL     1      -3.815  26.035   8.426  1.00  0.00     0.035 C
HETATM    3  C6  UNL     1      -4.461  25.541   7.180  1.00  0.00     0.125 C
HETATM    4  C7  UNL     1      -5.874  25.159   7.377  1.00  0.00     0.149 C
HETATM    5  N1  UNL     1      -6.142  23.931   8.039  1.00  0.00    -0.362 N
ATOM      6  H1  UNL     1      -6.826  24.008   8.792  1.00  0.00     0.162 HD
HETATM    7  C8  UNL     1      -5.686  22.741   7.869  1.00  0.00     0.190 C
HETATM    8  N2  UNL     1      -6.170  21.708   8.718  1.00  0.00    -0.063 NA
HETATM    9  N3  UNL     1      -4.714  22.380   6.875  1.00  0.00    -0.304 N
ATOM     10  H3  UNL     1      -4.729  21.410   6.559  1.00  0.00     0.171 HD
HETATM   11  C9  UNL     1      -3.814  23.152   6.331  1.00  0.00     0.209 C
HETATM   12  N4  UNL     1      -2.973  22.541   5.371  1.00  0.00    -0.062 NA
HETATM   13  N5  UNL     1      -3.608  24.531   6.616  1.00  0.00    -0.262 N
HETATM   14  N6  UNL     1      -2.331  24.911   6.263  1.00  0.00    -0.131 NA
HETATM   15  C10 UNL     1      -1.597  25.569   7.295  1.00  0.00     0.099 C
HETATM   16  C11 UNL     1      -0.609  26.497   6.572  1.00  0.00     0.030 C
ENDROOT
BRANCH   1  17
HETATM   17  C3  UNL     1      -1.803  26.059   9.739  1.00  0.00     0.006 C
BRANCH  17  18
HETATM   18  C2  UNL     1      -1.861  24.612  10.139  1.00  0.00    -0.004 C
HETATM   19  C1  UNL     1      -2.202  24.587  11.625  1.00  0.00     0.005 C
ENDBRANCH  17  18
ENDBRANCH   1  17
TORSDOF 2
ENDMDL