MODEL 3
REMARK VINA RESULT: -6.089808430      4.247      5.800
REMARK  3 active torsions:
REMARK  status: ('A' for Active; 'I' for Inactive)
REMARK    1  A    between atoms: C2_2  and  C4_4
REMARK    2  A    between atoms: C4_4  and  O1_5
REMARK    3  A    between atoms: N1_9  and  C7_10
ROOT
HETATM    1  C4  UNL     1      -2.436  26.759   4.592  1.00  0.00     0.193 C
HETATM    2  C5  UNL     1      -1.001  26.462   4.965  1.00  0.00     0.094 C
HETATM    3  C6  UNL     1      -1.130  25.167   5.728  1.00  0.00     0.181 C
HETATM    4  N1  UNL     1      -2.551  25.108   5.991  1.00  0.00    -0.083 N
HETATM    5  O2  UNL     1      -3.104  26.336   5.759  1.00  0.00    -0.224 OA
ENDROOT
BRANCH   4   6
HETATM    6  C7  UNL     1      -3.236  23.940   6.416  1.00  0.00     0.721 A
HETATM    7  N2  UNL     1      -3.149  22.674   5.976  1.00  0.00    -0.128 N
HETATM    8  N3  UNL     1      -3.971  21.881   6.656  1.00  0.00    -0.261 N
ATOM      9  H2  UNL     1      -2.535  22.363   5.224  1.00  0.00     0.205 HD
HETATM   10  C8  UNL     1      -4.616  22.630   7.565  1.00  0.00     0.205 A
ATOM     11  H3  UNL     1      -4.092  20.879   6.512  1.00  0.00     0.190 HD
HETATM   12  S1  UNL     1      -5.735  22.150   8.654  1.00  0.00    -0.039 SA
HETATM   13  N4  UNL     1      -4.165  23.880   7.416  1.00  0.00    -0.162 N
ATOM     14  H4  UNL     1      -4.473  24.678   7.972  1.00  0.00     0.187 HD
ENDBRANCH   4   6
BRANCH   1  15
HETATM   15  C2  UNL     1      -2.567  28.218   4.323  1.00  0.00     0.042 C
HETATM   16  C1  UNL     1      -3.886  28.657   4.955  1.00  0.00     0.015 C
HETATM   17  C3  UNL     1      -1.455  29.058   4.880  1.00  0.00     0.015 C
ENDBRANCH   1  15
BRANCH   1  18
HETATM   18  O1  UNL     1      -2.857  25.975   3.519  1.00  0.00    -0.363 OA
ATOM     19  H1  UNL     1      -3.798  26.001   3.394  1.00  0.00     0.213 HD
ENDBRANCH   1  18
TORSDOF 3
ENDMDL