MODEL 5
REMARK VINA RESULT: -6.090416581      6.058      7.092
REMARK  9 active torsions:
REMARK  status: ('A' for Active; 'I' for Inactive)
REMARK    1  A    between atoms: C2_2  and  N1_3
REMARK    2  A    between atoms: N1_3  and  C3_4
REMARK    3  A    between atoms: N1_3  and  C5_6
REMARK    4  A    between atoms: C5_6  and  C6_7
REMARK    5  A    between atoms: C7_8  and  C8_9
REMARK    6  A    between atoms: C9_10  and  C10_11
REMARK    7  A    between atoms: C11_12  and  C12_13
REMARK    8  A    between atoms: C12_13  and  C15_16
REMARK    9  A    between atoms: C17_20  and  N3_21
ROOT
HETATM    1  C12 UNL     1      24.708  50.949  -1.714  1.00  0.00     0.046 C
HETATM    2  C13 UNL     1      25.279  52.287  -1.199  1.00  0.00     0.034 C
HETATM    3  C14 UNL     1      23.295  51.297  -2.169  1.00  0.00     0.034 C
ENDROOT
BRANCH   1   4
HETATM    4  C11 UNL     1      25.521  50.456  -2.820  1.00  0.00    -0.087 C
HETATM    5  C10 UNL     1      26.212  50.065  -3.757  1.00  0.00    -0.077 C
BRANCH   5   6
HETATM    6  C9  UNL     1      27.035  49.638  -4.864  1.00  0.00     0.073 C
HETATM    7  C8  UNL     1      28.249  49.166  -4.714  1.00  0.00     0.073 C
BRANCH   7   8
HETATM    8  C7  UNL     1      29.094  48.734  -5.763  1.00  0.00    -0.076 C
HETATM    9  C6  UNL     1      29.797  48.325  -6.671  1.00  0.00    -0.072 C
BRANCH   9  10
HETATM   10  C5  UNL     1      30.603  47.783  -7.745  1.00  0.00     0.366 C
BRANCH  10  11
HETATM   11  N1  UNL     1      31.864  47.253  -7.281  1.00  0.00     0.098 N
BRANCH  11  12
HETATM   12  C2  UNL     1      31.924  45.804  -7.573  1.00  0.00     0.269 C
HETATM   13  C1  UNL     1      33.103  45.190  -6.834  1.00  0.00     0.037 C
ENDBRANCH  11  12
BRANCH  11  14
HETATM   14  C3  UNL     1      32.934  47.900  -8.065  1.00  0.00     0.269 C
HETATM   15  C4  UNL     1      33.180  49.260  -7.442  1.00  0.00     0.037 C
ENDBRANCH  11  14
ENDBRANCH  10  11
ENDBRANCH   9  10
ENDBRANCH   7   8
ENDBRANCH   5   6
ENDBRANCH   1   4
BRANCH   1  16
HETATM   16  C15 UNL     1      24.702  49.946  -0.648  1.00  0.00    -0.006 A
HETATM   17  C16 UNL     1      25.821  49.712   0.124  1.00  0.00     0.116 A
HETATM   18  N2  UNL     1      25.787  48.807   1.116  1.00  0.00    -0.202 N
HETATM   19  C17 UNL     1      24.694  48.090   1.410  1.00  0.00     0.675 A
ATOM     20  H2  UNL     1      26.630  48.659   1.670  1.00  0.00     0.183 HD
HETATM   21  N4  UNL     1      23.592  48.296   0.673  1.00  0.00    -0.202 N
HETATM   22  C18 UNL     1      23.591  49.204  -0.338  1.00  0.00     0.116 A
ATOM     23  H4  UNL     1      22.745  47.765   0.874  1.00  0.00     0.183 HD
BRANCH  19  24
HETATM   24  N3  UNL     1      24.754  47.249   2.390  1.00  0.00    -0.234 N
ATOM     25  H32 UNL     1      25.233  47.440   3.270  1.00  0.00     0.174 HD
ATOM     26  H31 UNL     1      24.306  46.339   2.278  1.00  0.00     0.174 HD
ENDBRANCH  19  24
ENDBRANCH   1  16
TORSDOF 9
ENDMDL