MODEL 3
REMARK VINA RESULT: -7.268111469      3.056      7.789
REMARK  6 active torsions:
REMARK  status: ('A' for Active; 'I' for Inactive)
REMARK       I    between atoms: C1_2  and  N1_3
REMARK    1  A    between atoms: C1_2  and  C7_12
REMARK    2  A    between atoms: N1_3  and  C2_5
REMARK    3  A    between atoms: C2_5  and  C3_6
REMARK    4  A    between atoms: C3_6  and  O2_7
REMARK    5  A    between atoms: C11_16  and  C12_17
REMARK    6  A    between atoms: C12_17  and  N2_18
ROOT
HETATM    1  C7  UNL     1      25.471  50.592  -0.317  1.00  0.00     0.078 C
HETATM    2  C8  UNL     1      24.197  51.009  -0.929  1.00  0.00     0.014 C
HETATM    3  C9  UNL     1      22.946  50.488  -0.321  1.00  0.00     0.002 C
HETATM    4  C10 UNL     1      23.064  48.996  -0.137  1.00  0.00     0.010 C
HETATM    5  C11 UNL     1      24.160  48.814   0.911  1.00  0.00     0.025 C
HETATM    6  C17 UNL     1      25.488  49.300   0.415  1.00  0.00     0.024 C
ENDROOT
BRANCH   1   7
HETATM    7  C1  UNL     1      26.531  50.652  -1.366  1.00  0.00     0.222 C
HETATM    8  O1  UNL     1      27.684  50.976  -0.990  1.00  0.00    -0.273 OA
HETATM    9  N1  UNL     1      26.304  50.370  -2.715  1.00  0.00    -0.349 N
ATOM     10  H1  UNL     1      25.353  50.111  -2.976  1.00  0.00     0.163 HD
BRANCH   9  11
HETATM   11  C2  UNL     1      27.279  50.408  -3.776  1.00  0.00     0.054 C
HETATM   12  C4  UNL     1      28.326  49.322  -3.680  1.00  0.00     0.033 C
HETATM   13  C5  UNL     1      27.723  48.566  -4.834  1.00  0.00     0.005 C
HETATM   14  C6  UNL     1      26.787  49.730  -5.063  1.00  0.00     0.033 C
BRANCH  11  15
HETATM   15  C3  UNL     1      27.878  51.764  -4.020  1.00  0.00     0.195 C
BRANCH  15  16
HETATM   16  O2  UNL     1      29.159  51.806  -3.469  1.00  0.00    -0.398 OA
ATOM     17  H2  UNL     1      29.233  52.570  -2.908  1.00  0.00     0.209 HD
ENDBRANCH  15  16
ENDBRANCH  11  15
ENDBRANCH   9  11
ENDBRANCH   1   7
BRANCH   5  18
HETATM   18  C12 UNL     1      24.205  47.387   1.327  1.00  0.00     0.072 C
BRANCH  18  19
HETATM   19  N2  UNL     1      23.594  47.044   2.527  1.00  0.00    -0.354 N
HETATM   20  C13 UNL     1      24.352  46.687   3.641  1.00  0.00     0.068 C
HETATM   21  C14 UNL     1      23.628  45.478   4.204  1.00  0.00     0.050 C
HETATM   22  C15 UNL     1      22.174  45.834   3.902  1.00  0.00     0.050 C
HETATM   23  C16 UNL     1      22.299  46.501   2.533  1.00  0.00     0.068 C
ENDBRANCH  18  19
ENDBRANCH   5  18
TORSDOF 6
ENDMDL