MODEL 5
REMARK VINA RESULT: -5.662659113      2.402      4.117
REMARK  5 active torsions:
REMARK  status: ('A' for Active; 'I' for Inactive)
REMARK    1  A    between atoms: C2_2  and  C3_3
REMARK    2  A    between atoms: C2_2  and  N2_10
REMARK    3  A    between atoms: C2_2  and  C14_21
REMARK    4  A    between atoms: C3_3  and  N1_4
REMARK       I    between atoms: N2_10  and  C8_12
REMARK       I    between atoms: C8_12  and  N3_14
REMARK    5  A    between atoms: N3_14  and  C9_16
ROOT
HETATM    1  C1  UNL     1      27.027  52.299  -3.879  1.00  0.00     0.045 C
HETATM    2  C2  UNL     1      26.674  50.839  -4.250  1.00  0.00     0.066 C
ENDROOT
BRANCH   2   3
HETATM    3  C3  UNL     1      26.301  50.787  -5.704  1.00  0.00     0.089 C
BRANCH   3   4
HETATM    4  N1  UNL     1      25.032  50.446  -6.107  1.00  0.00    -0.387 N
HETATM    5  C4  UNL     1      24.675  49.428  -6.978  1.00  0.00     0.148 C
HETATM    6  C5  UNL     1      24.838  49.802  -8.454  1.00  0.00     0.187 C
HETATM    7  O1  UNL     1      24.103  50.936  -8.726  1.00  0.00    -0.388 OA
HETATM    8  C6  UNL     1      24.477  51.983  -7.917  1.00  0.00     0.187 C
HETATM    9  C7  UNL     1      24.283  51.659  -6.455  1.00  0.00     0.148 C
ENDBRANCH   3   4
ENDBRANCH   2   3
BRANCH   2  10
HETATM   10  N2  UNL     1      25.619  50.440  -3.358  1.00  0.00    -0.329 N
HETATM   11  C8  UNL     1      25.639  50.541  -1.961  1.00  0.00     0.317 C
HETATM   12  O2  UNL     1      26.615  51.009  -1.302  1.00  0.00    -0.247 OA
HETATM   13  N3  UNL     1      24.531  50.112  -1.159  1.00  0.00    -0.339 N
ATOM     14  H3  UNL     1      23.715  49.726  -1.634  1.00  0.00     0.164 HD
ATOM     15  H2  UNL     1      24.778  50.047  -3.781  1.00  0.00     0.165 HD
BRANCH  13  16
HETATM   16  C9  UNL     1      24.503  50.194   0.278  1.00  0.00     0.086 C
HETATM   17  C10 UNL     1      24.702  48.790   0.867  1.00  0.00     0.025 C
HETATM   18  C11 UNL     1      23.417  48.123   0.440  1.00  0.00     0.002 C
HETATM   19  C12 UNL     1      22.368  49.203   0.554  1.00  0.00     0.002 C
HETATM   20  C13 UNL     1      23.100  50.508   0.758  1.00  0.00     0.025 C
ENDBRANCH  13  16
ENDBRANCH   2  10
BRANCH   2  21
HETATM   21  C14 UNL     1      27.908  49.996  -4.017  1.00  0.00     0.019 A
HETATM   22  C15 UNL     1      27.890  48.598  -4.588  1.00  0.00     0.008 A
HETATM   23  C16 UNL     1      28.773  49.639  -5.178  1.00  0.00     0.008 A
ENDBRANCH   2  21
TORSDOF 5
ENDMDL