MODEL 3
REMARK VINA RESULT: -6.504348853      1.996      3.282
REMARK  5 active torsions:
REMARK  status: ('A' for Active; 'I' for Inactive)
REMARK    1  A    between atoms: C2_2  and  C4_4
REMARK    2  A    between atoms: C4_4  and  N1_5
REMARK    3  A    between atoms: C4_4  and  C10_14
REMARK       I    between atoms: N1_5  and  C5_7
REMARK    4  A    between atoms: C5_7  and  C6_9
REMARK       I    between atoms: C10_14  and  N2_16
REMARK    5  A    between atoms: N2_16  and  C11_18
ROOT
HETATM    1  C4  UNL     1      25.966  51.335  -1.853  1.00  0.00     0.180 C
ENDROOT
BRANCH   1   2
HETATM    2  C2  UNL     1      24.863  52.296  -2.146  1.00  0.00     0.009 C
HETATM    3  C1  UNL     1      24.078  51.960  -3.372  1.00  0.00     0.012 C
HETATM    4  C3  UNL     1      25.394  53.716  -2.358  1.00  0.00     0.012 C
ENDBRANCH   1   2
BRANCH   1   5
HETATM    5  N1  UNL     1      26.177  50.364  -2.890  1.00  0.00    -0.345 N
HETATM    6  C5  UNL     1      27.426  49.975  -3.393  1.00  0.00     0.247 C
HETATM    7  O1  UNL     1      28.478  50.473  -2.948  1.00  0.00    -0.271 OA
ATOM      8  H1  UNL     1      25.351  49.921  -3.291  1.00  0.00     0.163 HD
BRANCH   6   9
HETATM    9  C6  UNL     1      27.557  48.951  -4.484  1.00  0.00     0.213 C
HETATM   10  C7  UNL     1      28.932  48.901  -5.066  1.00  0.00     0.043 C
HETATM   11  C8  UNL     1      28.769  49.668  -6.345  1.00  0.00     0.029 C
HETATM   12  C9  UNL     1      27.296  49.646  -6.576  1.00  0.00     0.168 C
HETATM   13  O2  UNL     1      26.658  49.129  -5.495  1.00  0.00    -0.376 OA
ENDBRANCH   6   9
ENDBRANCH   1   5
BRANCH   1  14
HETATM   14  C10 UNL     1      25.648  50.602  -0.590  1.00  0.00     0.241 C
HETATM   15  O3  UNL     1      26.585  50.484   0.283  1.00  0.00    -0.271 OA
HETATM   16  N2  UNL     1      24.386  50.050  -0.352  1.00  0.00    -0.355 N
ATOM     17  H2  UNL     1      23.684  50.168  -1.083  1.00  0.00     0.162 HD
BRANCH  16  18
HETATM   18  C11 UNL     1      23.981  49.322   0.842  1.00  0.00     0.084 C
HETATM   19  C12 UNL     1      24.738  47.989   0.733  1.00  0.00     0.025 C
HETATM   20  C13 UNL     1      24.443  47.106   1.911  1.00  0.00     0.002 C
HETATM   21  C14 UNL     1      23.010  47.060   2.309  1.00  0.00     0.000 C
HETATM   22  C15 UNL     1      22.061  47.772   1.402  1.00  0.00     0.002 C
HETATM   23  C16 UNL     1      22.536  48.990   0.722  1.00  0.00     0.025 C
ENDBRANCH  16  18
ENDBRANCH   1  14
TORSDOF 5
ENDMDL