MODEL 1
REMARK VINA RESULT: -7.073739248      0.000      0.000
REMARK  5 active torsions:
REMARK  status: ('A' for Active; 'I' for Inactive)
REMARK    1  A    between atoms: C2_2  and  N1_3
REMARK    2  A    between atoms: N1_3  and  C3_4
REMARK       I    between atoms: N1_3  and  C10_13
REMARK    3  A    between atoms: C3_4  and  C4_5
REMARK       I    between atoms: C4_5  and  N2_7
REMARK    4  A    between atoms: N2_7  and  C5_8
REMARK       I    between atoms: C10_13  and  N5_18
REMARK    5  A    between atoms: N5_18  and  C12_20
ROOT
HETATM    1  N1  UNL     1      24.910  51.317  -1.112  1.00  0.00    -0.208 N
HETATM    2  C10 UNL     1      26.259  50.758  -1.430  1.00  0.00     0.685 C
HETATM    3  N3  UNL     1      27.104  51.033  -0.570  1.00  0.00    -0.126 N
ATOM      4  H3  UNL     1      26.656  51.589   0.158  1.00  0.00     0.197 HD
HETATM    5  C11 UNL     1      28.386  50.869  -0.247  1.00  0.00     0.196 C
HETATM    6  N4  UNL     1      29.486  50.724   0.054  1.00  0.00    -0.171 NA
HETATM    7  N5  UNL     1      26.303  50.012  -2.608  1.00  0.00    -0.221 N
ATOM      8  H5  UNL     1      25.562  49.313  -2.670  1.00  0.00     0.178 HD
ENDROOT
BRANCH   1   9
HETATM    9  C2  UNL     1      24.252  52.039  -2.129  1.00  0.00     0.137 C
HETATM   10  C1  UNL     1      25.007  53.309  -2.524  1.00  0.00     0.027 C
ENDBRANCH   1   9
BRANCH   1  11
HETATM   11  C3  UNL     1      24.441  51.072   0.218  1.00  0.00     0.260 C
BRANCH  11  12
HETATM   12  C4  UNL     1      23.208  50.195   0.234  1.00  0.00     0.305 C
HETATM   13  O1  UNL     1      22.146  50.809   0.029  1.00  0.00    -0.256 OA
HETATM   14  N2  UNL     1      23.336  48.849   0.457  1.00  0.00    -0.408 NA
BRANCH  14  15
HETATM   15  C5  UNL     1      23.465  47.494   0.684  1.00  0.00     0.167 C
HETATM   16  C6  UNL     1      22.424  46.850   1.613  1.00  0.00     0.039 C
HETATM   17  C7  UNL     1      23.039  46.921   2.965  1.00  0.00     0.003 C
HETATM   18  C8  UNL     1      24.519  46.967   2.773  1.00  0.00     0.003 C
HETATM   19  C9  UNL     1      24.775  47.137   1.302  1.00  0.00     0.039 C
ENDBRANCH  14  15
ENDBRANCH  11  12
ENDBRANCH   1  11
BRANCH   7  20
HETATM   20  C12 UNL     1      27.149  50.019  -3.725  1.00  0.00     0.099 C
HETATM   21  C13 UNL     1      28.357  49.142  -3.737  1.00  0.00     0.026 C
HETATM   22  C14 UNL     1      28.783  49.105  -5.189  1.00  0.00     0.002 C
HETATM   23  C15 UNL     1      27.776  49.964  -5.937  1.00  0.00     0.002 C
HETATM   24  C16 UNL     1      26.512  49.666  -5.068  1.00  0.00     0.026 C
ENDBRANCH   7  20
TORSDOF 5
ENDMDL