MODEL 5
REMARK VINA RESULT: -6.348277913      2.194      3.145
REMARK  6 active torsions:
REMARK  status: ('A' for Active; 'I' for Inactive)
REMARK    1  A    between atoms: N1_1  and  C1_5
REMARK    2  A    between atoms: C1_5  and  C2_6
REMARK       I    between atoms: N2_10  and  C6_11
REMARK    3  A    between atoms: C6_11  and  C7_13
REMARK    4  A    between atoms: C10_16  and  C11_17
REMARK    5  A    between atoms: C11_17  and  N3_18
REMARK    6  A    between atoms: N3_18  and  C12_21
ROOT
HETATM    1  C7  UNL     1      24.706  50.899  -1.198  1.00  0.00     0.078 C
HETATM    2  C8  UNL     1      23.299  50.565  -1.567  1.00  0.00     0.014 C
HETATM    3  C9  UNL     1      22.464  50.085  -0.371  1.00  0.00     0.007 C
HETATM    4  C10 UNL     1      23.172  48.905   0.206  1.00  0.00     0.011 C
HETATM    5  C15 UNL     1      24.473  49.461   0.804  1.00  0.00     0.007 C
HETATM    6  C16 UNL     1      25.343  49.800  -0.361  1.00  0.00     0.014 C
ENDROOT
BRANCH   1   7
HETATM    7  C6  UNL     1      25.541  51.046  -2.410  1.00  0.00     0.224 C
HETATM    8  N2  UNL     1      25.527  52.204  -3.209  1.00  0.00    -0.351 N
HETATM    9  C5  UNL     1      26.359  52.258  -4.398  1.00  0.00     0.126 C
HETATM   10  C17 UNL     1      24.705  53.327  -2.835  1.00  0.00     0.132 C
HETATM   11  C4  UNL     1      27.297  53.446  -4.361  1.00  0.00     0.020 C
HETATM   12  C3  UNL     1      26.890  54.458  -3.320  1.00  0.00     0.009 C
HETATM   13  C2  UNL     1      25.394  54.626  -3.221  1.00  0.00     0.029 C
HETATM   14  O1  UNL     1      26.320  50.083  -2.770  1.00  0.00    -0.273 OA
BRANCH  13  15
HETATM   15  C1  UNL     1      24.787  55.196  -4.463  1.00  0.00     0.235 C
BRANCH  15  16
HETATM   16  N1  UNL     1      24.653  56.622  -4.391  1.00  0.00    -0.079 N
ATOM     17  H13 UNL     1      24.375  56.921  -3.456  1.00  0.00     0.274 HD
ATOM     18  H12 UNL     1      25.562  57.082  -4.443  1.00  0.00     0.274 HD
ATOM     19  H11 UNL     1      24.014  56.982  -5.100  1.00  0.00     0.274 HD
ENDBRANCH  15  16
ENDBRANCH  13  15
ENDBRANCH   1   7
BRANCH   4  20
HETATM   20  C11 UNL     1      22.425  48.242   1.343  1.00  0.00     0.237 C
BRANCH  20  21
HETATM   21  N3  UNL     1      23.028  47.009   1.752  1.00  0.00    -0.071 N
ATOM     22  H32 UNL     1      22.619  46.212   1.264  1.00  0.00     0.277 HD
ATOM     23  H31 UNL     1      23.985  46.928   1.409  1.00  0.00     0.277 HD
BRANCH  21  24
HETATM   24  C12 UNL     1      22.962  46.851   3.158  1.00  0.00     0.186 A
HETATM   25  C13 UNL     1      24.092  46.366   3.983  1.00  0.00     0.035 A
HETATM   26  C14 UNL     1      22.973  45.436   3.688  1.00  0.00     0.035 A
ENDBRANCH  21  24
ENDBRANCH  20  21
ENDBRANCH   4  20
TORSDOF 6
ENDMDL