MODEL 1
REMARK VINA RESULT: -6.536842355      0.000      0.000
REMARK  5 active torsions:
REMARK  status: ('A' for Active; 'I' for Inactive)
REMARK    1  A    between atoms: N1_2  and  C3_4
REMARK    2  A    between atoms: C3_4  and  C4_5
REMARK    3  A    between atoms: C3_4  and  C17_21
REMARK    4  A    between atoms: C4_5  and  C5_6
REMARK       I    between atoms: C5_6  and  N2_8
REMARK    5  A    between atoms: N2_8  and  C6_10
ROOT
HETATM    1  C5  UNL     1      23.834  50.287   0.336  1.00  0.00     0.224 C
HETATM    2  O1  UNL     1      24.643  50.914   1.044  1.00  0.00    -0.273 OA
HETATM    3  N2  UNL     1      24.038  50.155  -1.072  1.00  0.00    -0.351 N
ATOM      4  H2  UNL     1      23.346  49.632  -1.609  1.00  0.00     0.163 HD
ENDROOT
BRANCH   3   5
HETATM    5  C6  UNL     1      25.153  50.712  -1.775  1.00  0.00     0.034 C
HETATM    6  C7  UNL     1      25.291  52.202  -1.598  1.00  0.00     0.035 C
HETATM    7  C8  UNL     1      26.462  52.687  -2.415  1.00  0.00    -0.012 C
HETATM    8  C9  UNL     1      26.142  52.843  -3.879  1.00  0.00     0.005 C
HETATM    9  C14 UNL     1      27.713  51.917  -2.229  1.00  0.00     0.009 C
HETATM   10  C10 UNL     1      26.555  51.661  -4.711  1.00  0.00     0.005 C
HETATM   11  C11 UNL     1      26.191  50.335  -4.063  1.00  0.00    -0.012 C
HETATM   12  C12 UNL     1      27.369  49.712  -3.372  1.00  0.00     0.009 C
HETATM   13  C16 UNL     1      24.969  50.411  -3.232  1.00  0.00     0.035 C
HETATM   14  C13 UNL     1      27.570  50.451  -2.074  1.00  0.00    -0.012 C
HETATM   15  C15 UNL     1      26.409  50.114  -1.197  1.00  0.00     0.035 C
ENDBRANCH   3   5
BRANCH   1  16
HETATM   16  C4  UNL     1      22.660  49.678   0.948  1.00  0.00     0.165 C
BRANCH  16  17
HETATM   17  C3  UNL     1      22.809  48.427   1.714  1.00  0.00     0.081 C
BRANCH  17  18
HETATM   18  N1  UNL     1      23.937  47.622   1.606  1.00  0.00    -0.388 N
HETATM   19  C1  UNL     1      24.150  46.665   0.612  1.00  0.00     0.149 C
HETATM   20  C2  UNL     1      24.512  47.223   2.891  1.00  0.00     0.149 C
ENDBRANCH  17  18
BRANCH  17  21
HETATM   21  C17 UNL     1      21.568  47.589   1.687  1.00  0.00     0.277 C
HETATM   22  N3  UNL     1      21.263  46.647   2.685  1.00  0.00    -0.056 NA
HETATM   23  O2  UNL     1      20.778  47.744   0.732  1.00  0.00    -0.270 OA
ENDBRANCH  17  21
ENDBRANCH  16  17
ENDBRANCH   1  16
TORSDOF 5
ENDMDL