MODEL 4
REMARK VINA RESULT: -6.825518802      1.542      2.131
REMARK  5 active torsions:
REMARK  status: ('A' for Active; 'I' for Inactive)
REMARK    1  A    between atoms: C1_2  and  C2_3
REMARK       I    between atoms: C1_2  and  N1_18
REMARK    2  A    between atoms: C2_3  and  C3_4
REMARK    3  A    between atoms: C6_7  and  C7_8
REMARK    4  A    between atoms: C6_7  and  C8_11
REMARK    5  A    between atoms: C7_8  and  O2_9
ROOT
HETATM    1  C3  UNL     1      23.233  49.360  -0.289  1.00  0.00     0.132 C
HETATM    2  C4  UNL     1      23.091  50.413   0.760  1.00  0.00     0.036 C
HETATM    3  C5  UNL     1      24.211  51.352   0.459  1.00  0.00     0.047 C
HETATM    4  C6  UNL     1      24.613  50.983  -0.985  1.00  0.00     0.100 C
HETATM    5  O3  UNL     1      24.431  49.607  -0.937  1.00  0.00    -0.368 OA
ENDROOT
BRANCH   4   6
HETATM    6  C7  UNL     1      26.074  51.242  -1.023  1.00  0.00     0.206 C
BRANCH   6   7
HETATM    7  O2  UNL     1      26.855  50.366  -0.277  1.00  0.00    -0.398 OA
ATOM      8  H2  UNL     1      27.733  50.669  -0.080  1.00  0.00     0.209 HD
ENDBRANCH   6   7
ENDBRANCH   4   6
BRANCH   4   9
HETATM    9  C8  UNL     1      23.713  51.719  -1.855  1.00  0.00     0.016 C
HETATM   10  C9  UNL     1      23.854  51.897  -3.285  1.00  0.00    -0.081 C
HETATM   11  C10 UNL     1      23.892  50.685  -4.169  1.00  0.00     0.034 C
HETATM   12  C13 UNL     1      24.900  52.838  -3.812  1.00  0.00     0.034 C
HETATM   13  C11 UNL     1      25.340  50.605  -4.677  1.00  0.00     0.005 C
HETATM   14  C12 UNL     1      25.949  51.967  -4.477  1.00  0.00     0.005 C
ENDBRANCH   4   9
BRANCH   1  15
HETATM   15  C2  UNL     1      23.129  47.984   0.268  1.00  0.00     0.135 C
BRANCH  15  16
HETATM   16  C1  UNL     1      24.146  47.614   1.254  1.00  0.00     0.222 C
HETATM   17  O1  UNL     1      25.365  47.860   1.083  1.00  0.00    -0.273 OA
HETATM   18  N1  UNL     1      23.764  46.956   2.446  1.00  0.00    -0.352 N
HETATM   19  C14 UNL     1      22.407  46.602   2.793  1.00  0.00     0.126 C
HETATM   20  C17 UNL     1      24.638  46.515   3.536  1.00  0.00     0.126 C
HETATM   21  C15 UNL     1      22.468  45.725   3.998  1.00  0.00     0.021 C
HETATM   22  C16 UNL     1      23.726  46.244   4.700  1.00  0.00     0.021 C
ENDBRANCH  15  16
ENDBRANCH   1  15
TORSDOF 5
ENDMDL