MODEL 1
REMARK VINA RESULT: -6.846103732      0.000      0.000
REMARK  5 active torsions:
REMARK  status: ('A' for Active; 'I' for Inactive)
REMARK    1  A    between atoms: C2_2  and  N1_4
REMARK    2  A    between atoms: N1_4  and  C4_6
REMARK    3  A    between atoms: N2_9  and  C7_10
REMARK    4  A    between atoms: C7_10  and  C8_11
REMARK       I    between atoms: C8_11  and  N3_13
REMARK    5  A    between atoms: N3_13  and  C9_15
ROOT
HETATM    1  C7  UNL     1      22.892  50.748  -1.303  1.00  0.00     0.220 C
ENDROOT
BRANCH   1   2
HETATM    2  N2  UNL     1      23.586  50.467  -0.099  1.00  0.00    -0.404 N
HETATM    3  C6  UNL     1      22.741  50.088   0.980  1.00  0.00     0.119 C
HETATM    4  C5  UNL     1      22.556  48.588   1.121  1.00  0.00     0.044 C
HETATM    5  C4  UNL     1      23.796  47.807   0.772  1.00  0.00     0.080 C
HETATM    6  C17 UNL     1      24.961  48.777   0.926  1.00  0.00     0.044 C
HETATM    7  C16 UNL     1      24.815  49.757  -0.233  1.00  0.00     0.119 C
BRANCH   5   8
HETATM    8  N1  UNL     1      24.037  46.679   1.610  1.00  0.00    -0.414 N
ATOM      9  H1  UNL     1      24.587  45.879   1.295  1.00  0.00     0.153 HD
BRANCH   8  10
HETATM   10  C2  UNL     1      23.463  46.732   2.915  1.00  0.00     0.068 C
HETATM   11  C1  UNL     1      22.547  45.563   3.152  1.00  0.00     0.031 C
HETATM   12  C3  UNL     1      24.594  46.662   3.945  1.00  0.00     0.031 C
ENDBRANCH   8  10
ENDBRANCH   5   8
ENDBRANCH   1   2
BRANCH   1  13
HETATM   13  C8  UNL     1      23.788  51.195  -2.361  1.00  0.00     0.239 C
HETATM   14  O1  UNL     1      24.280  52.391  -2.296  1.00  0.00    -0.271 OA
HETATM   15  N3  UNL     1      24.207  50.465  -3.498  1.00  0.00    -0.330 N
ATOM     16  H3  UNL     1      23.861  49.515  -3.629  1.00  0.00     0.168 HD
BRANCH  15  17
HETATM   17  C9  UNL     1      25.129  51.035  -4.499  1.00  0.00     0.009 C
HETATM   18  C10 UNL     1      26.509  50.468  -4.359  1.00  0.00     0.068 C
HETATM   19  C11 UNL     1      26.873  49.379  -5.423  1.00  0.00     0.086 C
HETATM   20  C12 UNL     1      25.852  49.438  -6.377  1.00  0.00    -0.182 C
HETATM   21  C13 UNL     1      24.811  49.496  -7.318  1.00  0.00     0.083 C
HETATM   22  C14 UNL     1      23.809  50.555  -6.726  1.00  0.00     0.040 C
HETATM   23  C15 UNL     1      24.440  51.412  -5.683  1.00  0.00    -0.001 C
ENDBRANCH  15  17
ENDBRANCH   1  13
TORSDOF 5
ENDMDL