MODEL 1
REMARK VINA RESULT: -6.662067711      0.000      0.000
REMARK  9 active torsions:
REMARK  status: ('A' for Active; 'I' for Inactive)
REMARK    1  A    between atoms: O1_2  and  N1_3
REMARK    2  A    between atoms: C2_5  and  C4_7
REMARK       I    between atoms: C4_7  and  N2_9
REMARK    3  A    between atoms: N2_9  and  C5_11
REMARK    4  A    between atoms: C8_15  and  C9_16
REMARK    5  A    between atoms: C10_19  and  S1_20
REMARK    6  A    between atoms: S1_20  and  C11_21
REMARK    7  A    between atoms: C13_23  and  N4_24
REMARK    8  A    between atoms: C13_23  and  C14_28
REMARK    9  A    between atoms: C14_28  and  O6_30
ROOT
HETATM    1  C5  UNL     1      -9.846  13.884   8.071  1.00  0.00     0.078 C
HETATM    2  C6  UNL     1      -9.138  14.782   7.397  1.00  0.00     0.037 C
HETATM    3  C7  UNL     1      -9.489  15.859   6.393  1.00  0.00     0.070 C
HETATM    4  N3  UNL     1      -7.894  14.352   7.845  1.00  0.00    -0.313 N
HETATM    5  C8  UNL     1      -6.525  14.025   8.179  1.00  0.00     0.148 C
HETATM    6  C10 UNL     1      -6.464  12.765   8.587  1.00  0.00     0.103 C
HETATM    7  N6  UNL     1      -7.902  12.309   8.460  1.00  0.00    -0.356 N
ATOM      8  H6  UNL     1      -8.245  11.382   8.211  1.00  0.00     0.162 HD
HETATM    9  C17 UNL     1      -8.667  13.465   8.768  1.00  0.00     0.243 C
ENDROOT
BRANCH   6  10
HETATM   10  S1  UNL     1      -5.228  11.746   9.120  1.00  0.00    -0.077 SA
BRANCH  10  11
HETATM   11  C11 UNL     1      -4.001  11.742  10.230  1.00  0.00     0.256 C
HETATM   12  C12 UNL     1      -3.941  10.575  11.208  1.00  0.00     0.095 C
HETATM   13  C13 UNL     1      -3.119  11.071  12.357  1.00  0.00     0.236 C
HETATM   14  C16 UNL     1      -2.978  12.564  12.173  1.00  0.00     0.283 C
HETATM   15  N5  UNL     1      -3.563  12.933  10.937  1.00  0.00    -0.059 N
ATOM     16  H52 UNL     1      -2.938  13.508  10.371  1.00  0.00     0.278 HD
ATOM     17  H51 UNL     1      -4.318  13.609  11.055  1.00  0.00     0.278 HD
BRANCH  13  18
HETATM   18  N4  UNL     1      -3.812  10.831  13.634  1.00  0.00    -0.059 N
ATOM     19  H43 UNL     1      -4.265  11.676  13.982  1.00  0.00     0.275 HD
ATOM     20  H42 UNL     1      -4.641  10.251  13.510  1.00  0.00     0.275 HD
ATOM     21  H41 UNL     1      -3.172  10.435  14.323  1.00  0.00     0.275 HD
ENDBRANCH  13  18
BRANCH  13  22
HETATM   22  C14 UNL     1      -1.811  10.402  12.442  1.00  0.00     0.296 C
HETATM   23  O5  UNL     1      -0.963  10.773  13.269  1.00  0.00    -0.262 OA
BRANCH  22  24
HETATM   24  O6  UNL     1      -1.524   9.355  11.595  1.00  0.00    -0.324 OA
HETATM   25  C15 UNL     1      -1.137   8.110  12.178  1.00  0.00     0.213 C
ENDBRANCH  22  24
ENDBRANCH  13  22
ENDBRANCH  10  11
ENDBRANCH   6  10
BRANCH   5  26
HETATM   26  C9  UNL     1      -5.507  15.022   8.002  1.00  0.00     0.230 C
HETATM   27  O3  UNL     1      -4.691  15.236   8.999  1.00  0.00    -0.643 OA
HETATM   28  O4  UNL     1      -5.335  15.753   6.877  1.00  0.00    -0.643 OA
ENDBRANCH   5  26
BRANCH   1  29
HETATM   29  N2  UNL     1     -11.218  13.591   8.091  1.00  0.00    -0.320 N
HETATM   30  C4  UNL     1     -11.728  12.581   7.226  1.00  0.00     0.270 C
HETATM   31  O2  UNL     1     -10.944  11.949   6.441  1.00  0.00    -0.266 OA
ATOM     32  H2  UNL     1     -11.843  14.096   8.720  1.00  0.00     0.169 HD
BRANCH  30  33
HETATM   33  C2  UNL     1     -13.130  12.222   7.190  1.00  0.00     0.096 C
HETATM   34  N1  UNL     1     -14.015  13.057   6.823  1.00  0.00    -0.266 N
ATOM     35  H1  UNL     1     -14.996  12.778   6.805  1.00  0.00     0.194 HD
HETATM   36  C3  UNL     1     -13.527  10.848   7.590  1.00  0.00     0.076 C
BRANCH  34  37
HETATM   37  O1  UNL     1     -13.666  14.322   6.453  1.00  0.00    -0.285 OA
HETATM   38  C1  UNL     1     -14.288  15.477   6.984  1.00  0.00     0.237 C
ENDBRANCH  34  37
ENDBRANCH  30  33
ENDBRANCH   1  29
TORSDOF 9
ENDMDL