MODEL 3
REMARK VINA RESULT: -5.893961836      2.005      3.189
REMARK  10 active torsions:
REMARK  status: ('A' for Active; 'I' for Inactive)
REMARK    1  A    between atoms: N1_2  and  C2_3
REMARK    2  A    between atoms: N1_2  and  C5_10
REMARK    3  A    between atoms: C2_3  and  C3_4
REMARK    4  A    between atoms: C3_4  and  O1_5
REMARK    5  A    between atoms: C3_4  and  C4_7
REMARK    6  A    between atoms: C4_7  and  O2_8
REMARK    7  A    between atoms: C10_18  and  N3_19
REMARK    8  A    between atoms: N3_19  and  C11_21
REMARK    9  A    between atoms: C11_21  and  C14_24
REMARK   10  A    between atoms: C14_24  and  O4_25
ROOT
HETATM    1  C5  UNL     1      -6.272   8.734  11.534  1.00  0.00     0.050 A
HETATM    2  C6  UNL     1      -7.438   7.925  11.566  1.00  0.00     0.104 A
HETATM    3  C7  UNL     1      -8.580   8.311  10.998  1.00  0.00     0.247 A
HETATM    4  O3  UNL     1      -9.620   7.588  11.030  1.00  0.00    -0.268 OA
HETATM    5  N2  UNL     1      -8.682   9.502  10.357  1.00  0.00    -0.322 N
ATOM      6  H2  UNL     1      -9.564   9.780   9.927  1.00  0.00     0.169 HD
HETATM    7  C8  UNL     1      -7.632  10.299  10.294  1.00  0.00     0.068 A
HETATM    8  C9  UNL     1      -6.369   9.938  10.894  1.00  0.00     0.045 A
HETATM    9  C10 UNL     1      -5.283  10.763  10.783  1.00  0.00     0.045 A
HETATM   10  C15 UNL     1      -5.450  11.950  10.055  1.00  0.00     0.061 A
HETATM   11  C16 UNL     1      -6.625  12.322   9.470  1.00  0.00     0.058 A
HETATM   12  C17 UNL     1      -7.739  11.481   9.593  1.00  0.00     0.087 A
HETATM   13  C18 UNL     1      -8.917  11.858   9.009  1.00  0.00     0.266 A
HETATM   14  O5  UNL     1      -9.975  11.237   9.026  1.00  0.00    -0.267 OA
HETATM   15  N4  UNL     1      -8.928  13.054   8.332  1.00  0.00    -0.270 N
HETATM   16  C19 UNL     1     -10.163  13.491   7.695  1.00  0.00     0.164 C
HETATM   17  C20 UNL     1      -7.843  13.840   8.232  1.00  0.00     0.331 A
HETATM   18  O6  UNL     1      -7.900  14.939   7.596  1.00  0.00    -0.246 OA
HETATM   19  N5  UNL     1      -6.681  13.492   8.794  1.00  0.00    -0.303 N
HETATM   20  C21 UNL     1      -5.474  14.326   8.706  1.00  0.00     0.161 C
ENDROOT
BRANCH   1  21
HETATM   21  N1  UNL     1      -5.125   8.115  12.023  1.00  0.00    -0.382 N
HETATM   22  C1  UNL     1      -5.017   7.933  13.473  1.00  0.00     0.150 C
BRANCH  21  23
HETATM   23  C2  UNL     1      -3.967   7.761  11.285  1.00  0.00     0.156 C
BRANCH  23  24
HETATM   24  C3  UNL     1      -2.809   7.156  11.961  1.00  0.00     0.159 C
BRANCH  24  25
HETATM   25  O1  UNL     1      -2.613   5.818  11.889  1.00  0.00    -0.392 OA
ATOM     26  H1  UNL     1      -2.209   5.361  12.617  1.00  0.00     0.210 HD
ENDBRANCH  24  25
BRANCH  24  27
HETATM   27  C4  UNL     1      -1.562   7.812  11.335  1.00  0.00     0.197 C
BRANCH  27  28
HETATM   28  O2  UNL     1      -2.022   8.836  10.514  1.00  0.00    -0.398 OA
ATOM     29  H2  UNL     1      -1.254   9.301  10.204  1.00  0.00     0.209 HD
ENDBRANCH  27  28
ENDBRANCH  24  27
ENDBRANCH  23  24
ENDBRANCH  21  23
ENDBRANCH   1  21
BRANCH   9  30
HETATM   30  N3  UNL     1      -4.094  10.606  11.510  1.00  0.00    -0.378 N
ATOM     31  H3  UNL     1      -3.404   9.948  11.147  1.00  0.00     0.160 HD
BRANCH  30  32
HETATM   32  C11 UNL     1      -3.767  11.314  12.755  1.00  0.00     0.044 C
HETATM   33  C12 UNL     1      -3.062  12.629  12.288  1.00  0.00     0.040 C
HETATM   34  C13 UNL     1      -4.907  11.725  13.581  1.00  0.00     0.040 C
BRANCH  32  35
HETATM   35  C14 UNL     1      -2.657  10.605  13.484  1.00  0.00     0.194 C
BRANCH  35  36
HETATM   36  O4  UNL     1      -1.449  11.340  13.373  1.00  0.00    -0.398 OA
ATOM     37  H4  UNL     1      -0.794  10.987  13.964  1.00  0.00     0.209 HD
ENDBRANCH  35  36
ENDBRANCH  32  35
ENDBRANCH  30  32
ENDBRANCH   9  30
TORSDOF 10
ENDMDL