MODEL 2
REMARK VINA RESULT: -6.459738646      2.652      3.858
REMARK  12 active torsions:
REMARK  status: ('A' for Active; 'I' for Inactive)
REMARK    1  A    between atoms: C2_2  and  C3_3
REMARK    2  A    between atoms: C3_3  and  O1_4
REMARK    3  A    between atoms: O1_4  and  C4_5
REMARK    4  A    between atoms: C4_5  and  O2_6
REMARK    5  A    between atoms: C6_10  and  C7_11
REMARK    6  A    between atoms: C9_15  and  O4_16
REMARK    7  A    between atoms: C10_18  and  C11_19
REMARK    8  A    between atoms: C11_19  and  O5_20
REMARK    9  A    between atoms: C12_22  and  N2_23
REMARK   10  A    between atoms: N2_23  and  N3_24
REMARK   11  A    between atoms: N3_24  and  S1_26
REMARK   12  A    between atoms: C15_32  and  O9_33
ROOT
HETATM    1  C7  UNL     1      -4.258  11.217  12.143  1.00  0.00     0.085 A
HETATM    2  N1  UNL     1      -5.236  10.880  11.288  1.00  0.00    -0.348 N
ATOM      3  H1  UNL     1      -5.771  10.014  11.353  1.00  0.00     0.166 HD
HETATM    4  C8  UNL     1      -5.433  11.805  10.339  1.00  0.00     0.104 A
HETATM    5  C9  UNL     1      -6.310  11.872   9.282  1.00  0.00     0.109 A
HETATM    6  C10 UNL     1      -6.229  13.024   8.473  1.00  0.00     0.069 A
HETATM    7  C12 UNL     1      -5.322  14.029   8.728  1.00  0.00     0.258 A
HETATM    8  O8  UNL     1      -4.506  13.856   9.799  1.00  0.00    -0.275 OA
HETATM    9  C14 UNL     1      -4.536  12.821  10.572  1.00  0.00     0.143 A
HETATM   10  C15 UNL     1      -3.806  12.436  11.709  1.00  0.00     0.130 A
ENDROOT
BRANCH   1  11
HETATM   11  C6  UNL     1      -3.804  10.404  13.287  1.00  0.00     0.070 C
HETATM   12  C5  UNL     1      -4.641   9.747  14.100  1.00  0.00     0.159 C
HETATM   13  O3  UNL     1      -3.920   9.067  15.085  1.00  0.00    -0.295 OA
HETATM   14  C4  UNL     1      -2.575   8.930  14.642  1.00  0.00     0.355 C
HETATM   15  C16 UNL     1      -2.484  10.148  13.764  1.00  0.00     0.255 C
HETATM   16  O10 UNL     1      -1.431  10.759  13.545  1.00  0.00    -0.283 OA
BRANCH  14  17
HETATM   17  O1  UNL     1      -2.420   7.833  13.817  1.00  0.00    -0.322 OA
BRANCH  17  18
HETATM   18  C3  UNL     1      -1.105   7.406  13.712  1.00  0.00     0.201 C
BRANCH  18  19
HETATM   19  C2  UNL     1      -0.693   7.562  12.280  1.00  0.00    -0.011 C
HETATM   20  C1  UNL     1      -1.564   7.824  11.329  1.00  0.00     0.009 C
ENDBRANCH  18  19
ENDBRANCH  17  18
ENDBRANCH  14  17
BRANCH  14  21
HETATM   21  O2  UNL     1      -1.685   8.990  15.687  1.00  0.00    -0.337 OA
ATOM     22  H2  UNL     1      -1.801   9.738  16.263  1.00  0.00     0.216 HD
ENDBRANCH  14  21
ENDBRANCH   1  11
BRANCH  10  23
HETATM   23  O9  UNL     1      -2.798  13.207  12.261  1.00  0.00    -0.356 OA
ATOM     24  H9  UNL     1      -2.190  13.776  11.805  1.00  0.00     0.218 HD
ENDBRANCH  10  23
BRANCH   5  25
HETATM   25  O4  UNL     1      -7.215  10.885   9.014  1.00  0.00    -0.357 OA
ATOM     26  H4  UNL     1      -7.003   9.962   9.090  1.00  0.00     0.217 HD
ENDBRANCH   5  25
BRANCH   6  27
HETATM   27  C11 UNL     1      -7.179  13.077   7.347  1.00  0.00     0.211 C
BRANCH  27  28
HETATM   28  O5  UNL     1      -8.156  14.024   7.489  1.00  0.00    -0.396 OA
ATOM     29  H5  UNL     1      -9.035  13.697   7.340  1.00  0.00     0.209 HD
ENDBRANCH  27  28
ENDBRANCH   6  27
BRANCH   7  30
HETATM   30  N2  UNL     1      -5.225  15.035   8.052  1.00  0.00    -0.289 NA
BRANCH  30  31
HETATM   31  N3  UNL     1      -5.120  16.098   7.354  1.00  0.00    -0.158 N
ATOM     32  H3  UNL     1      -4.545  16.857   7.719  1.00  0.00     0.215 HD
BRANCH  31  33
HETATM   33  S1  UNL     1      -5.905  16.330   5.807  1.00  0.00     0.249 S
HETATM   34  C13 UNL     1      -5.359  17.814   5.042  1.00  0.00     0.188 C
HETATM   35  O6  UNL     1      -5.618  15.181   4.894  1.00  0.00    -0.204 OA
HETATM   36  O7  UNL     1      -7.405  16.366   5.995  1.00  0.00    -0.204 OA
ENDBRANCH  31  33
ENDBRANCH  30  31
ENDBRANCH   7  30
TORSDOF 12
ENDMDL