MODEL 2
REMARK VINA RESULT: -6.173444437      2.107      2.792
REMARK  11 active torsions:
REMARK  status: ('A' for Active; 'I' for Inactive)
REMARK    1  A    between atoms: C2_2  and  O1_4
REMARK    2  A    between atoms: O1_4  and  C4_5
REMARK    3  A    between atoms: C8_10  and  O3_11
REMARK    4  A    between atoms: O3_11  and  C9_12
REMARK    5  A    between atoms: C10_13  and  N1_14
REMARK    6  A    between atoms: C12_19  and  N2_20
REMARK    7  A    between atoms: C13_24  and  O4_25
REMARK    8  A    between atoms: O4_25  and  C14_26
REMARK    9  A    between atoms: C16_28  and  N3_29
REMARK   10  A    between atoms: C17_33  and  O5_34
REMARK   11  A    between atoms: C20_39  and  O7_40
ROOT
HETATM    1  C9  UNL     1      -5.526   9.964  13.337  1.00  0.00     0.186 C
HETATM    2  C10 UNL     1      -6.800  10.770  13.331  1.00  0.00     0.217 C
HETATM    3  C11 UNL     1      -7.762  10.083  12.401  1.00  0.00     0.071 C
HETATM    4  C12 UNL     1      -7.284  10.226  10.973  1.00  0.00     0.217 C
HETATM    5  C13 UNL     1      -5.811  10.533  10.898  1.00  0.00     0.186 C
HETATM    6  C20 UNL     1      -5.001   9.872  11.952  1.00  0.00     0.180 C
ENDROOT
BRANCH   5   7
HETATM    7  O4  UNL     1      -5.619  11.887  10.745  1.00  0.00    -0.351 OA
BRANCH   7   8
HETATM    8  C14 UNL     1      -6.267  12.440   9.654  1.00  0.00     0.263 C
HETATM    9  C15 UNL     1      -5.262  13.011   8.675  1.00  0.00     0.096 C
HETATM   10  C16 UNL     1      -5.879  13.978   7.717  1.00  0.00     0.219 C
HETATM   11  C17 UNL     1      -7.390  13.957   7.719  1.00  0.00     0.177 C
HETATM   12  C18 UNL     1      -7.982  13.894   9.085  1.00  0.00     0.151 C
HETATM   13  C19 UNL     1      -9.269  13.092   9.094  1.00  0.00     0.042 C
HETATM   14  O6  UNL     1      -7.094  13.478  10.060  1.00  0.00    -0.354 OA
BRANCH  10  15
HETATM   15  N3  UNL     1      -5.457  15.355   7.957  1.00  0.00    -0.072 N
ATOM     16  H33 UNL     1      -6.097  15.829   8.595  1.00  0.00     0.274 HD
ATOM     17  H32 UNL     1      -4.608  15.385   8.522  1.00  0.00     0.274 HD
ATOM     18  H31 UNL     1      -5.340  15.887   7.095  1.00  0.00     0.274 HD
ENDBRANCH  10  15
BRANCH  11  19
HETATM   19  O5  UNL     1      -7.832  15.112   7.075  1.00  0.00    -0.391 OA
ATOM     20  H5  UNL     1      -8.363  14.845   6.335  1.00  0.00     0.210 HD
ENDBRANCH  11  19
ENDBRANCH   7   8
ENDBRANCH   5   7
BRANCH   4  21
HETATM   21  N2  UNL     1      -7.565   9.074  10.173  1.00  0.00    -0.072 N
ATOM     22  H23 UNL     1      -8.461   8.661  10.432  1.00  0.00     0.274 HD
ATOM     23  H22 UNL     1      -7.777   9.341   9.212  1.00  0.00     0.274 HD
ATOM     24  H21 UNL     1      -6.820   8.378  10.203  1.00  0.00     0.274 HD
ENDBRANCH   4  21
BRANCH   6  25
HETATM   25  O7  UNL     1      -4.716   8.524  11.618  1.00  0.00    -0.390 OA
ATOM     26  H7  UNL     1      -3.785   8.351  11.699  1.00  0.00     0.210 HD
ENDBRANCH   6  25
BRANCH   1  27
HETATM   27  O3  UNL     1      -4.612  10.458  14.265  1.00  0.00    -0.349 OA
BRANCH  27  28
HETATM   28  C8  UNL     1      -4.003   9.429  14.972  1.00  0.00     0.289 C
HETATM   29  C4  UNL     1      -2.538   9.289  14.783  1.00  0.00     0.179 C
HETATM   30  C5  UNL     1      -2.057   8.734  16.110  1.00  0.00     0.068 C
HETATM   31  C6  UNL     1      -3.240   8.894  16.999  1.00  0.00     0.123 C
HETATM   32  C7  UNL     1      -3.822   7.553  17.392  1.00  0.00     0.040 C
HETATM   33  O2  UNL     1      -4.198   9.656  16.351  1.00  0.00    -0.354 OA
BRANCH  29  34
HETATM   34  O1  UNL     1      -2.247   8.490  13.723  1.00  0.00    -0.376 OA
BRANCH  34  35
HETATM   35  C2  UNL     1      -1.241   8.957  12.894  1.00  0.00     0.114 C
HETATM   36  C1  UNL     1      -1.482  10.273  12.254  1.00  0.00     0.039 C
HETATM   37  C3  UNL     1      -1.153   7.916  11.761  1.00  0.00     0.039 C
ENDBRANCH  34  35
ENDBRANCH  29  34
ENDBRANCH  27  28
ENDBRANCH   1  27
BRANCH   2  38
HETATM   38  N1  UNL     1      -7.363  10.904  14.659  1.00  0.00    -0.072 N
ATOM     39  H13 UNL     1      -8.365  11.091  14.619  1.00  0.00     0.274 HD
ATOM     40  H12 UNL     1      -7.385  10.007  15.144  1.00  0.00     0.274 HD
ATOM     41  H11 UNL     1      -6.877  11.611  15.210  1.00  0.00     0.274 HD
ENDBRANCH   2  38
TORSDOF 11
ENDMDL