MODEL 2
REMARK VINA RESULT: -6.401863423      3.162      6.394
REMARK  10 active torsions:
REMARK  status: ('A' for Active; 'I' for Inactive)
REMARK    1  A    between atoms: C2_2  and  C3_4
REMARK    2  A    between atoms: C3_4  and  C4_5
REMARK    3  A    between atoms: C4_5  and  C5_6
REMARK    4  A    between atoms: C5_6  and  N1_7
REMARK    5  A    between atoms: N1_7  and  C6_9
REMARK    6  A    between atoms: C6_9  and  C7_10
REMARK    7  A    between atoms: C9_13  and  O3_14
REMARK    8  A    between atoms: C16_24  and  O6_26
REMARK    9  A    between atoms: C19_29  and  O7_30
REMARK   10  A    between atoms: C19_29  and  C20_32
ROOT
HETATM    1  C7  UNL     1      -4.893   8.303  12.469  1.00  0.00     0.213 A
HETATM    2  O2  UNL     1      -5.500   8.833  13.588  1.00  0.00    -0.347 OA
HETATM    3  C8  UNL     1      -6.647   9.511  13.506  1.00  0.00     0.213 C
HETATM    4  C9  UNL     1      -6.681  10.955  13.833  1.00  0.00     0.118 C
HETATM    5  C10 UNL     1      -7.834  11.349  14.748  1.00  0.00     0.154 C
HETATM    6  C11 UNL     1      -7.363  12.674  15.231  1.00  0.00     0.262 C
HETATM    7  O4  UNL     1      -8.133  13.531  15.784  1.00  0.00    -0.265 OA
HETATM    8  O5  UNL     1      -6.034  12.798  14.985  1.00  0.00    -0.309 OA
HETATM    9  C12 UNL     1      -5.470  11.539  14.502  1.00  0.00     0.192 C
HETATM   10  C13 UNL     1      -4.445  11.868  13.494  1.00  0.00     0.014 C
HETATM   11  C14 UNL     1      -3.443  11.146  13.055  1.00  0.00    -0.051 C
HETATM   12  C15 UNL     1      -2.509  11.714  11.995  1.00  0.00     0.046 C
HETATM   13  C16 UNL     1      -3.094   9.769  13.502  1.00  0.00     0.092 C
HETATM   14  C17 UNL     1      -1.572   9.804  13.715  1.00  0.00     0.051 C
HETATM   15  C18 UNL     1      -3.453   8.791  12.433  1.00  0.00     0.162 A
HETATM   16  C19 UNL     1      -2.991   7.398  12.514  1.00  0.00     0.239 A
HETATM   17  O9  UNL     1      -4.355   7.034  12.532  1.00  0.00    -0.305 OA
ENDROOT
BRANCH   1  18
HETATM   18  C6  UNL     1      -5.702   8.480  11.247  1.00  0.00     0.124 C
BRANCH  18  19
HETATM   19  N1  UNL     1      -5.210   9.193  10.136  1.00  0.00    -0.398 N
ATOM     20  H1  UNL     1      -4.367   8.883   9.651  1.00  0.00     0.158 HD
BRANCH  19  21
HETATM   21  C5  UNL     1      -5.917  10.363   9.699  1.00  0.00     0.119 C
BRANCH  21  22
HETATM   22  C4  UNL     1      -4.979  11.439   9.156  1.00  0.00     0.027 C
BRANCH  22  23
HETATM   23  C3  UNL     1      -5.202  12.777   9.817  1.00  0.00     0.079 C
BRANCH  23  24
HETATM   24  C2  UNL     1      -5.257  13.921   8.873  1.00  0.00     0.123 C
HETATM   25  C1  UNL     1      -5.898  13.754   7.521  1.00  0.00     0.091 C
HETATM   26  O1  UNL     1      -4.793  15.024   9.153  1.00  0.00    -0.298 OA
ENDBRANCH  23  24
ENDBRANCH  22  23
ENDBRANCH  21  22
ENDBRANCH  19  21
ENDBRANCH  18  19
ENDBRANCH   1  18
BRANCH  13  27
HETATM   27  O6  UNL     1      -3.604   9.489  14.756  1.00  0.00    -0.385 OA
ATOM     28  H6  UNL     1      -2.997   8.980  15.280  1.00  0.00     0.211 HD
ENDBRANCH  13  27
BRANCH  16  29
HETATM   29  O7  UNL     1      -2.274   7.014  11.374  1.00  0.00    -0.359 OA
ATOM     30  H7  UNL     1      -2.314   6.076  11.227  1.00  0.00     0.213 HD
ENDBRANCH  16  29
BRANCH  16  31
HETATM   31  C20 UNL     1      -2.345   6.826  13.691  1.00  0.00     0.185 C
HETATM   32  C21 UNL     1      -0.934   6.270  13.607  1.00  0.00     0.097 C
HETATM   33  O8  UNL     1      -2.819   6.726  14.805  1.00  0.00    -0.292 OA
ENDBRANCH  16  31
BRANCH   4  34
HETATM   34  O3  UNL     1      -6.889  11.725  12.667  1.00  0.00    -0.384 OA
ATOM     35  H3  UNL     1      -6.571  12.611  12.791  1.00  0.00     0.210 HD
ENDBRANCH   4  34
TORSDOF 10
ENDMDL