MODEL 1
REMARK VINA RESULT: -7.229910855      0.000      0.000
REMARK  9 active torsions:
REMARK  status: ('A' for Active; 'I' for Inactive)
REMARK    1  A    between atoms: C2_2  and  N2_6
REMARK    2  A    between atoms: N3_8  and  C3_10
REMARK    3  A    between atoms: C6_14  and  C7_15
REMARK       I    between atoms: C7_15  and  N5_17
REMARK    4  A    between atoms: N5_17  and  C8_19
REMARK    5  A    between atoms: C8_19  and  C9_20
REMARK    6  A    between atoms: C11_28  and  S1_29
REMARK    7  A    between atoms: S1_29  and  C12_30
REMARK    8  A    between atoms: C12_30  and  C13_31
REMARK       I    between atoms: C13_31  and  N8_33
REMARK    9  A    between atoms: N8_33  and  N9_35
REMARK       I    between atoms: N9_35  and  C14_37
ROOT
HETATM    1  C3  UNL     1      -5.904  10.514   9.225  1.00  0.00     0.100 A
HETATM    2  C4  UNL     1      -6.553  11.242   8.248  1.00  0.00     0.151 A
HETATM    3  N4  UNL     1      -6.336  12.558   8.043  1.00  0.00    -0.251 N
HETATM    4  C5  UNL     1      -6.853  13.409   7.124  1.00  0.00     0.140 A
HETATM    5  C6  UNL     1      -6.223  14.626   7.367  1.00  0.00     0.120 A
HETATM    6  C10 UNL     1      -5.373  14.430   8.422  1.00  0.00     0.299 A
HETATM    7  O4  UNL     1      -4.634  15.292   8.934  1.00  0.00    -0.264 OA
HETATM    8  N6  UNL     1      -5.456  13.153   8.826  1.00  0.00    -0.149 N
HETATM    9  N7  UNL     1      -4.806  12.480   9.789  1.00  0.00    -0.267 N
ATOM     10  H7  UNL     1      -4.139  12.991  10.366  1.00  0.00     0.190 HD
HETATM   11  C11 UNL     1      -4.984  11.179  10.033  1.00  0.00     0.116 A
ENDROOT
BRANCH  11  12
HETATM   12  S1  UNL     1      -4.067  10.272  11.287  1.00  0.00    -0.099 SA
BRANCH  12  13
HETATM   13  C12 UNL     1      -3.391  11.316  12.551  1.00  0.00     0.185 C
BRANCH  13  14
HETATM   14  C13 UNL     1      -2.402  10.697  13.459  1.00  0.00     0.245 C
HETATM   15  O5  UNL     1      -1.169  10.933  13.326  1.00  0.00    -0.271 OA
HETATM   16  N8  UNL     1      -2.876   9.846  14.462  1.00  0.00    -0.267 N
ATOM     17  H8  UNL     1      -3.879   9.673  14.540  1.00  0.00     0.190 HD
BRANCH  16  18
HETATM   18  N9  UNL     1      -2.006   9.232  15.354  1.00  0.00    -0.268 N
HETATM   19  C14 UNL     1      -2.385   9.010  16.712  1.00  0.00     0.232 C
HETATM   20  C15 UNL     1      -1.550   8.359  17.738  1.00  0.00     0.119 C
HETATM   21  O6  UNL     1      -3.545   9.402  17.089  1.00  0.00    -0.272 OA
ATOM     22  H9  UNL     1      -1.083   8.935  15.034  1.00  0.00     0.190 HD
ENDBRANCH  16  18
ENDBRANCH  13  14
ENDBRANCH  12  13
ENDBRANCH  11  12
BRANCH   1  23
HETATM   23  N3  UNL     1      -6.113   9.150   9.446  1.00  0.00    -0.295 N
HETATM   24  N2  UNL     1      -7.015   8.720  10.196  1.00  0.00    -0.289 N
ATOM     25  H2  UNL     1      -7.074   7.705  10.285  1.00  0.00     0.188 HD
ATOM     26  H3  UNL     1      -5.505   8.479   8.977  1.00  0.00     0.187 HD
BRANCH  24  27
HETATM   27  C2  UNL     1      -7.952   9.451  10.927  1.00  0.00     0.085 C
HETATM   28  C1  UNL     1      -9.270   9.836  10.328  1.00  0.00     0.090 C
HETATM   29  N1  UNL     1      -7.706   9.815  12.139  1.00  0.00    -0.388 N
ATOM     30  H12 UNL     1      -8.391  10.349  12.674  1.00  0.00     0.157 HD
ATOM     31  H11 UNL     1      -6.809   9.552  12.547  1.00  0.00     0.157 HD
ENDBRANCH  24  27
ENDBRANCH   1  23
BRANCH   5  32
HETATM   32  C7  UNL     1      -6.462  15.762   6.490  1.00  0.00     0.259 C
HETATM   33  O1  UNL     1      -7.574  15.977   6.015  1.00  0.00    -0.267 OA
HETATM   34  N5  UNL     1      -5.352  16.616   6.199  1.00  0.00    -0.347 N
ATOM     35  H5  UNL     1      -4.430  16.424   6.590  1.00  0.00     0.163 HD
BRANCH  34  36
HETATM   36  C8  UNL     1      -5.567  17.761   5.333  1.00  0.00     0.236 C
BRANCH  36  37
HETATM   37  C9  UNL     1      -4.591  17.712   4.207  1.00  0.00     0.191 C
HETATM   38  O2  UNL     1      -4.018  16.644   3.910  1.00  0.00    -0.647 OA
HETATM   39  O3  UNL     1      -4.335  18.860   3.499  1.00  0.00    -0.647 OA
ENDBRANCH  36  37
ENDBRANCH  34  36
ENDBRANCH   5  32
TORSDOF 9
ENDMDL