MODEL 2
REMARK VINA RESULT: -6.697455229      1.722      2.366
REMARK  10 active torsions:
REMARK  status: ('A' for Active; 'I' for Inactive)
REMARK    1  A    between atoms: O1_2  and  C2_3
REMARK    2  A    between atoms: C4_5  and  C5_6
REMARK    3  A    between atoms: C11_19  and  O5_20
REMARK    4  A    between atoms: O5_20  and  C12_21
REMARK    5  A    between atoms: C12_21  and  C13_23
REMARK    6  A    between atoms: C13_23  and  O8_25
REMARK    7  A    between atoms: O8_25  and  C14_26
REMARK    8  A    between atoms: C14_26  and  C16_30
REMARK    9  A    between atoms: C15_27  and  O9_28
REMARK   10  A    between atoms: C17_33  and  O12_34
ROOT
HETATM    1  C2  UNL     1      -8.273  11.696   9.058  1.00  0.00     0.105 A
HETATM    2  C3  UNL     1      -7.306  10.903   9.636  1.00  0.00     0.051 A
HETATM    3  C4  UNL     1      -5.999  11.041   9.230  1.00  0.00    -0.030 A
HETATM    4  C10 UNL     1      -5.678  11.987   8.238  1.00  0.00     0.052 A
HETATM    5  C11 UNL     1      -6.654  12.771   7.671  1.00  0.00     0.116 A
HETATM    6  C17 UNL     1      -7.963  12.639   8.070  1.00  0.00     0.135 A
ENDROOT
BRANCH   5   7
HETATM    7  O5  UNL     1      -6.364  13.709   6.693  1.00  0.00    -0.268 OA
BRANCH   7   8
HETATM    8  C12 UNL     1      -5.880  14.964   7.023  1.00  0.00     0.364 C
HETATM    9  O6  UNL     1      -5.128  15.100   8.019  1.00  0.00    -0.253 OA
BRANCH   8  10
HETATM   10  C13 UNL     1      -6.202  16.165   6.262  1.00  0.00     0.365 C
HETATM   11  O7  UNL     1      -7.345  16.248   5.716  1.00  0.00    -0.253 OA
BRANCH  10  12
HETATM   12  O8  UNL     1      -5.341  17.214   6.100  1.00  0.00    -0.262 OA
BRANCH  12  13
HETATM   13  C14 UNL     1      -4.915  17.692   4.857  1.00  0.00     0.177 C
HETATM   14  C15 UNL     1      -4.218  16.949   4.023  1.00  0.00     0.175 C
BRANCH  14  15
HETATM   15  O9  UNL     1      -3.907  15.647   4.415  1.00  0.00    -0.370 OA
ATOM     16  H9  UNL     1      -3.095  15.270   4.097  1.00  0.00     0.216 HD
ENDBRANCH  14  15
BRANCH  13  17
HETATM   17  C16 UNL     1      -5.267  19.049   4.503  1.00  0.00     0.236 C
HETATM   18  O10 UNL     1      -5.815  19.814   5.327  1.00  0.00    -0.642 OA
HETATM   19  O11 UNL     1      -4.991  19.508   3.230  1.00  0.00    -0.642 OA
ENDBRANCH  13  17
ENDBRANCH  12  13
ENDBRANCH  10  12
ENDBRANCH   8  10
ENDBRANCH   7   8
ENDBRANCH   5   7
BRANCH   6  20
HETATM   20  O12 UNL     1      -8.919  13.431   7.492  1.00  0.00    -0.351 OA
HETATM   21  C18 UNL     1      -9.503  14.587   7.989  1.00  0.00     0.210 C
ENDBRANCH   6  20
BRANCH   3  22
HETATM   22  C5  UNL     1      -4.955  10.235   9.778  1.00  0.00     0.034 C
HETATM   23  C6  UNL     1      -4.054  10.456  10.688  1.00  0.00     0.101 A
HETATM   24  C7  UNL     1      -3.887  11.687  11.435  1.00  0.00     0.265 A
HETATM   25  C9  UNL     1      -3.056   9.400  11.006  1.00  0.00     0.265 A
HETATM   26  O2  UNL     1      -4.651  12.669  11.284  1.00  0.00    -0.267 OA
HETATM   27  N1  UNL     1      -2.847  11.858  12.392  1.00  0.00    -0.275 N
HETATM   28  C8  UNL     1      -1.919  10.829  12.665  1.00  0.00     0.329 A
ATOM     29  H1  UNL     1      -2.770  12.743  12.891  1.00  0.00     0.173 HD
HETATM   30  O3  UNL     1      -1.002  11.023  13.530  1.00  0.00    -0.246 OA
HETATM   31  N2  UNL     1      -2.044   9.615  11.963  1.00  0.00    -0.275 N
ATOM     32  H2  UNL     1      -1.379   8.866  12.154  1.00  0.00     0.173 HD
HETATM   33  O4  UNL     1      -3.116   8.290  10.412  1.00  0.00    -0.267 OA
ENDBRANCH   3  22
BRANCH   1  34
HETATM   34  O1  UNL     1      -9.616  11.597   9.431  1.00  0.00    -0.353 OA
HETATM   35  C1  UNL     1     -10.031  11.845  10.745  1.00  0.00     0.210 C
ENDBRANCH   1  34
TORSDOF 10
ENDMDL