MODEL 4
REMARK VINA RESULT: -7.126397037      7.480     10.120
REMARK  9 active torsions:
REMARK  status: ('A' for Active; 'I' for Inactive)
REMARK    1  A    between atoms: C2_2  and  N1_3
REMARK    2  A    between atoms: N1_3  and  C3_4
REMARK    3  A    between atoms: N1_3  and  C14_26
REMARK    4  A    between atoms: C3_4  and  C4_5
REMARK    5  A    between atoms: C4_5  and  C5_6
REMARK    6  A    between atoms: C5_6  and  N2_7
REMARK    7  A    between atoms: N2_7  and  C6_9
REMARK    8  A    between atoms: C9_14  and  N4_15
REMARK    9  A    between atoms: C15_29  and  C16_30
ROOT
HETATM    1  C4  UNL     1      -3.018  11.808  10.681  1.00  0.00     0.041 C
ENDROOT
BRANCH   1   2
HETATM    2  C3  UNL     1      -4.282  12.628  10.491  1.00  0.00     0.143 C
BRANCH   2   3
HETATM    3  N1  UNL     1      -4.861  12.350   9.172  1.00  0.00    -0.217 N
BRANCH   3   4
HETATM    4  C2  UNL     1      -4.441  11.131   8.548  1.00  0.00     0.137 C
HETATM    5  C1  UNL     1      -5.574  10.269   8.075  1.00  0.00     0.027 C
ENDBRANCH   3   4
BRANCH   3   6
HETATM    6  C14 UNL     1      -5.776  13.289   8.626  1.00  0.00     0.697 A
HETATM    7  N8  UNL     1      -5.356  14.128   7.743  1.00  0.00    -0.171 N
HETATM    8  C15 UNL     1      -6.195  15.102   7.142  1.00  0.00     0.170 A
ATOM      9  H8  UNL     1      -4.376  14.091   7.464  1.00  0.00     0.186 HD
HETATM   10  N9  UNL     1      -7.430  15.131   7.510  1.00  0.00    -0.268 N
HETATM   11  N10 UNL     1      -7.970  14.249   8.467  1.00  0.00    -0.227 N
ATOM     12  H9  UNL     1      -8.046  15.826   7.088  1.00  0.00     0.190 HD
HETATM   13  N11 UNL     1      -7.130  13.289   9.056  1.00  0.00    -0.117 N
ATOM     14  H10 UNL     1      -8.954  14.307   8.728  1.00  0.00     0.209 HD
ATOM     15  H11 UNL     1      -7.474  12.629   9.755  1.00  0.00     0.207 HD
BRANCH   8  16
HETATM   16  C16 UNL     1      -5.664  16.035   6.141  1.00  0.00     0.120 A
HETATM   17  C17 UNL     1      -4.736  15.711   5.171  1.00  0.00     0.043 A
HETATM   18  C18 UNL     1      -4.492  16.848   4.428  1.00  0.00     0.027 A
HETATM   19  C19 UNL     1      -5.290  17.830   4.983  1.00  0.00     0.142 A
HETATM   20  O2  UNL     1      -5.956  17.303   5.982  1.00  0.00    -0.319 OA
ENDBRANCH   8  16
ENDBRANCH   3   6
ENDBRANCH   2   3
ENDBRANCH   1   2
BRANCH   1  21
HETATM   21  C5  UNL     1      -3.046  11.212  12.074  1.00  0.00     0.139 C
BRANCH  21  22
HETATM   22  N2  UNL     1      -1.776  10.695  12.475  1.00  0.00    -0.226 N
ATOM     23  H2  UNL     1      -0.914  11.091  12.100  1.00  0.00     0.177 HD
BRANCH  22  24
HETATM   24  C6  UNL     1      -1.736   9.721  13.317  1.00  0.00     0.682 A
HETATM   25  N3  UNL     1      -2.026   9.762  14.630  1.00  0.00    -0.174 N
HETATM   26  C7  UNL     1      -1.866   8.539  15.165  1.00  0.00     0.158 A
ATOM     27  H3  UNL     1      -2.322  10.594  15.141  1.00  0.00     0.186 HD
HETATM   28  C8  UNL     1      -1.457   7.714  14.121  1.00  0.00     0.140 A
HETATM   29  N6  UNL     1      -2.029   8.076  16.414  1.00  0.00    -0.287 N
HETATM   30  C9  UNL     1      -1.225   6.385  14.432  1.00  0.00     0.136 A
HETATM   31  N7  UNL     1      -1.382   8.445  13.000  1.00  0.00    -0.180 N
HETATM   32  N5  UNL     1      -1.402   5.951  15.713  1.00  0.00    -0.288 N
HETATM   33  C10 UNL     1      -1.140   4.534  15.982  1.00  0.00     0.163 C
HETATM   34  C11 UNL     1      -1.796   6.784  16.678  1.00  0.00     0.331 A
HETATM   35  O1  UNL     1      -1.943   6.316  17.858  1.00  0.00    -0.246 OA
HETATM   36  C13 UNL     1      -1.006   8.021  11.690  1.00  0.00     0.176 C
HETATM   37  C12 UNL     1      -2.455   8.944  17.497  1.00  0.00     0.163 C
BRANCH  30  38
HETATM   38  N4  UNL     1      -0.850   5.544  13.558  1.00  0.00    -0.383 N
ATOM     39  H42 UNL     1      -1.401   5.457  12.704  1.00  0.00     0.157 HD
ATOM     40  H41 UNL     1      -0.023   4.962  13.687  1.00  0.00     0.157 HD
ENDBRANCH  30  38
ENDBRANCH  22  24
ENDBRANCH  21  22
ENDBRANCH   1  21
TORSDOF 9
ENDMDL