MODEL 4
REMARK VINA RESULT: -7.237213769      2.540      9.635
REMARK  9 active torsions:
REMARK  status: ('A' for Active; 'I' for Inactive)
REMARK    1  A    between atoms: C2_3  and  C3_4
REMARK    2  A    between atoms: C3_4  and  S1_5
REMARK    3  A    between atoms: S1_5  and  C4_6
REMARK    4  A    between atoms: C5_9  and  C6_10
REMARK    5  A    between atoms: C8_18  and  C9_19
REMARK    6  A    between atoms: C9_19  and  O5_20
REMARK    7  A    between atoms: C10_22  and  O6_23
REMARK    8  A    between atoms: C12_29  and  C13_30
REMARK    9  A    between atoms: C14_31  and  C15_32
ROOT
HETATM    1  N1  UNL     1      -5.942  12.351  14.772  1.00  0.00    -0.196 NA
HETATM    2  C1  UNL     1      -5.395  11.883  13.866  1.00  0.00     0.072 C
HETATM    3  C2  UNL     1      -4.693  11.269  12.779  1.00  0.00     0.082 C
HETATM    4  C7  UNL     1      -3.421  12.105  12.548  1.00  0.00     0.193 C
HETATM    5  O4  UNL     1      -2.344  11.341  12.966  1.00  0.00    -0.381 OA
HETATM    6  C8  UNL     1      -2.732  10.060  12.615  1.00  0.00     0.163 C
HETATM    7  C16 UNL     1      -4.051   9.926  13.243  1.00  0.00     0.062 C
ENDROOT
BRANCH   3   8
HETATM    8  C3  UNL     1      -5.445  11.064  11.529  1.00  0.00     0.110 C
BRANCH   8   9
HETATM    9  S1  UNL     1      -4.666  11.299   9.967  1.00  0.00    -0.083 SA
BRANCH   9  10
HETATM   10  C4  UNL     1      -5.106  12.796   9.151  1.00  0.00     0.210 A
HETATM   11  N2  UNL     1      -5.487  13.060   7.894  1.00  0.00    -0.308 N
HETATM   12  C5  UNL     1      -5.726  14.369   7.713  1.00  0.00     0.206 A
ATOM     13  H2  UNL     1      -5.585  12.354   7.165  1.00  0.00     0.170 HD
HETATM   14  N3  UNL     1      -5.474  14.920   8.928  1.00  0.00    -0.236 N
HETATM   15  O3  UNL     1      -5.115  13.994   9.754  1.00  0.00    -0.210 OA
ATOM     16  H3  UNL     1      -5.556  15.911   9.155  1.00  0.00     0.197 HD
BRANCH  12  17
HETATM   17  C6  UNL     1      -6.150  15.095   6.527  1.00  0.00     0.247 C
HETATM   18  O1  UNL     1      -5.340  15.294   5.570  1.00  0.00    -0.642 OA
HETATM   19  O2  UNL     1      -7.428  15.581   6.405  1.00  0.00    -0.642 OA
ENDBRANCH  12  17
ENDBRANCH   9  10
ENDBRANCH   8   9
ENDBRANCH   3   8
BRANCH   6  20
HETATM   20  C9  UNL     1      -1.714   8.991  12.815  1.00  0.00     0.142 C
HETATM   21  C10 UNL     1      -1.488   8.087  11.658  1.00  0.00     0.258 C
HETATM   22  N4  UNL     1      -2.333   6.964  11.860  1.00  0.00    -0.331 N
HETATM   23  C11 UNL     1      -2.281   6.718  13.254  1.00  0.00     0.230 C
ATOM     24  H4  UNL     1      -2.860   6.447  11.156  1.00  0.00     0.165 HD
HETATM   25  O7  UNL     1      -2.272   5.630  13.862  1.00  0.00    -0.273 OA
HETATM   26  C12 UNL     1      -2.238   8.102  13.884  1.00  0.00     0.142 C
BRANCH  20  27
HETATM   27  O5  UNL     1      -0.519   9.630  13.131  1.00  0.00    -0.381 OA
ATOM     28  H5  UNL     1      -0.556   9.838  14.057  1.00  0.00     0.211 HD
ENDBRANCH  20  27
BRANCH  21  29
HETATM   29  O6  UNL     1      -1.521   8.637  10.410  1.00  0.00    -0.373 OA
ATOM     30  H6  UNL     1      -0.690   8.842   9.998  1.00  0.00     0.212 HD
ENDBRANCH  21  29
BRANCH  26  31
HETATM   31  C13 UNL     1      -1.689   8.063  15.194  1.00  0.00    -0.003 C
HETATM   32  C14 UNL     1      -2.089   8.581  16.305  1.00  0.00     0.081 C
BRANCH  32  33
HETATM   33  C15 UNL     1      -1.308   8.381  17.561  1.00  0.00     0.198 C
HETATM   34  O8  UNL     1      -0.784   9.379  18.083  1.00  0.00    -0.645 OA
HETATM   35  O9  UNL     1      -1.163   7.139  18.130  1.00  0.00    -0.645 OA
ENDBRANCH  32  33
ENDBRANCH  26  31
ENDBRANCH   6  20
TORSDOF 9
ENDMDL