MODEL 2
REMARK VINA RESULT: -6.035814040      1.177      1.310
REMARK  14 active torsions:
REMARK  status: ('A' for Active; 'I' for Inactive)
REMARK    1  A    between atoms: C2_2  and  C3_4
REMARK    2  A    between atoms: C3_4  and  O2_5
REMARK    3  A    between atoms: C3_4  and  C4_7
REMARK    4  A    between atoms: C4_7  and  O3_9
REMARK    5  A    between atoms: C4_7  and  C6_11
REMARK    6  A    between atoms: C10_17  and  O6_18
REMARK    7  A    between atoms: O6_18  and  C11_19
REMARK    8  A    between atoms: C13_21  and  C14_22
REMARK    9  A    between atoms: C14_22  and  N2_25
REMARK   10  A    between atoms: N2_25  and  N3_27
REMARK   11  A    between atoms: N3_27  and  N4_28
REMARK   12  A    between atoms: C16_31  and  O7_32
REMARK   13  A    between atoms: C17_34  and  O8_35
REMARK   14  A    between atoms: C18_37  and  O9_38
ROOT
HETATM    1  C14 UNL     1      -8.862  12.676   8.530  1.00  0.00     0.227 C
HETATM    2  C15 UNL     1      -9.522  11.566   9.217  1.00  0.00     0.087 C
HETATM    3  N1  UNL     1     -10.047  10.685   9.779  1.00  0.00    -0.195 NA
ENDROOT
BRANCH   1   4
HETATM    4  C13 UNL     1      -7.359  12.538   8.586  1.00  0.00     0.059 C
HETATM    5  C12 UNL     1      -6.885  12.116   9.964  1.00  0.00     0.045 C
HETATM    6  C11 UNL     1      -5.419  11.832   9.854  1.00  0.00     0.156 C
HETATM    7  C18 UNL     1      -4.711  13.148   9.619  1.00  0.00     0.178 C
HETATM    8  C17 UNL     1      -5.661  14.237   9.170  1.00  0.00     0.178 C
HETATM    9  C16 UNL     1      -6.634  13.748   8.114  1.00  0.00     0.156 C
BRANCH   6  10
HETATM   10  O6  UNL     1      -4.838  11.150  10.844  1.00  0.00    -0.350 OA
BRANCH  10  11
HETATM   11  C10 UNL     1      -4.199   9.971  10.624  1.00  0.00     0.296 C
HETATM   12  C6  UNL     1      -3.546   9.460  11.860  1.00  0.00     0.217 C
HETATM   13  O4  UNL     1      -4.050   8.193  12.043  1.00  0.00    -0.343 OA
HETATM   14  C7  UNL     1      -5.263   8.190  11.409  1.00  0.00     0.160 C
HETATM   15  C8  UNL     1      -6.306   8.742  12.333  1.00  0.00     0.078 C
HETATM   16  C9  UNL     1      -5.684   6.809  10.941  1.00  0.00     0.078 C
HETATM   17  O5  UNL     1      -5.083   8.964  10.261  1.00  0.00    -0.323 OA
BRANCH  12  18
HETATM   18  C4  UNL     1      -2.029   9.459  11.779  1.00  0.00     0.117 C
HETATM   19  C5  UNL     1      -1.528   8.110  11.375  1.00  0.00     0.052 C
BRANCH  18  20
HETATM   20  C3  UNL     1      -1.498   9.870  13.155  1.00  0.00     0.223 C
BRANCH  20  21
HETATM   21  C2  UNL     1      -2.204   9.224  14.255  1.00  0.00     0.154 C
HETATM   22  C1  UNL     1      -1.761   7.906  14.768  1.00  0.00     0.094 C
HETATM   23  O1  UNL     1      -3.165   9.765  14.759  1.00  0.00    -0.295 OA
ENDBRANCH  20  21
BRANCH  20  24
HETATM   24  O2  UNL     1      -1.562  11.246  13.316  1.00  0.00    -0.385 OA
ATOM     25  H2  UNL     1      -2.100  11.617  12.627  1.00  0.00     0.210 HD
ENDBRANCH  20  24
ENDBRANCH  18  20
BRANCH  18  26
HETATM   26  O3  UNL     1      -1.535  10.397  10.884  1.00  0.00    -0.384 OA
ATOM     27  H3  UNL     1      -1.005   9.911  10.264  1.00  0.00     0.210 HD
ENDBRANCH  18  26
ENDBRANCH  12  18
ENDBRANCH  10  11
ENDBRANCH   6  10
BRANCH   7  28
HETATM   28  O9  UNL     1      -4.168  13.519  10.870  1.00  0.00    -0.390 OA
ATOM     29  H9  UNL     1      -4.779  13.196  11.521  1.00  0.00     0.210 HD
ENDBRANCH   7  28
BRANCH   8  30
HETATM   30  O8  UNL     1      -4.867  15.212   8.522  1.00  0.00    -0.390 OA
ATOM     31  H8  UNL     1      -4.026  14.794   8.379  1.00  0.00     0.210 HD
ENDBRANCH   8  30
BRANCH   9  32
HETATM   32  O7  UNL     1      -7.540  14.770   7.870  1.00  0.00    -0.392 OA
ATOM     33  H7  UNL     1      -7.097  15.609   7.922  1.00  0.00     0.210 HD
ENDBRANCH   9  32
ENDBRANCH   1   4
BRANCH   1  34
HETATM   34  N2  UNL     1      -9.313  12.643   7.153  1.00  0.00    -0.234 N
ATOM     35  H2  UNL     1      -8.643  12.851   6.413  1.00  0.00     0.198 HD
BRANCH  34  36
HETATM   36  N3  UNL     1     -10.451  12.377   6.845  1.00  0.00    -0.247 NA
BRANCH  36  37
HETATM   37  N4  UNL     1     -11.563  12.105   6.409  1.00  0.00    -0.261 N
ATOM     38  H42 UNL     1     -11.109  11.223   6.172  1.00  0.00     0.193 HD
ATOM     39  H41 UNL     1     -12.519  11.978   6.078  1.00  0.00     0.193 HD
ENDBRANCH  36  37
ENDBRANCH  34  36
ENDBRANCH   1  34
TORSDOF 14
ENDMDL