MODEL 1
REMARK VINA RESULT: -6.456756080      0.000      0.000
REMARK  12 active torsions:
REMARK  status: ('A' for Active; 'I' for Inactive)
REMARK    1  A    between atoms: C2_2  and  C3_3
REMARK    2  A    between atoms: C4_4  and  C5_5
REMARK    3  A    between atoms: C6_6  and  C8_8
REMARK    4  A    between atoms: C8_8  and  C9_9
REMARK    5  A    between atoms: C8_8  and  C10_11
REMARK    6  A    between atoms: C15_16  and  O2_17
REMARK    7  A    between atoms: N1_23  and  O3_25
REMARK    8  A    between atoms: C22_29  and  O4_30
REMARK    9  A    between atoms: C23_33  and  C24_34
REMARK   10  A    between atoms: C24_34  and  C25_35
REMARK   11  A    between atoms: C25_35  and  C26_36
REMARK   12  A    between atoms: C26_36  and  O6_39
ROOT
HETATM    1  C10 UNL     1      -1.688  24.078  19.228  1.00  0.00     0.086 C
HETATM    2  C11 UNL     1      -0.243  24.233  19.574  1.00  0.00    -0.013 C
HETATM    3  C12 UNL     1       0.690  23.801  20.391  1.00  0.00    -0.084 C
HETATM    4  C13 UNL     1       2.004  24.457  20.131  1.00  0.00     0.043 C
HETATM    5  C14 UNL     1       0.788  22.852  21.485  1.00  0.00     0.067 C
HETATM    6  C15 UNL     1      -0.063  23.213  22.708  1.00  0.00     0.151 C
HETATM    7  C16 UNL     1      -1.535  23.278  22.319  1.00  0.00     0.154 C
HETATM    8  C17 UNL     1      -2.401  22.374  23.162  1.00  0.00     0.040 C
HETATM    9  C18 UNL     1      -3.030  21.252  22.382  1.00  0.00     0.058 C
HETATM   10  C19 UNL     1      -3.807  21.701  21.208  1.00  0.00     0.019 C
HETATM   11  N1  UNL     1      -5.083  21.678  21.397  1.00  0.00    -0.277 N
ATOM     12  H1  UNL     1      -5.475  21.372  22.287  1.00  0.00     0.193 HD
HETATM   13  C20 UNL     1      -3.328  22.176  19.839  1.00  0.00     0.092 C
HETATM   14  C21 UNL     1      -2.486  21.009  19.324  1.00  0.00     0.022 C
HETATM   15  C22 UNL     1      -2.490  23.355  20.195  1.00  0.00     0.178 C
HETATM   16  O5  UNL     1      -1.570  22.744  21.064  1.00  0.00    -0.346 OA
ENDROOT
BRANCH   1  17
HETATM   17  C8  UNL     1      -1.762  23.668  17.776  1.00  0.00     0.088 C
BRANCH  17  18
HETATM   18  C6  UNL     1      -0.446  24.030  17.132  1.00  0.00    -0.072 C
HETATM   19  C5  UNL     1       0.444  23.083  16.852  1.00  0.00     0.003 C
HETATM   20  C7  UNL     1      -0.079  25.418  16.779  1.00  0.00     0.044 C
BRANCH  19  21
HETATM   21  C4  UNL     1       1.715  23.371  16.232  1.00  0.00     0.001 C
HETATM   22  C3  UNL     1       2.856  22.999  16.830  1.00  0.00     0.006 C
BRANCH  22  23
HETATM   23  C2  UNL     1       4.121  23.289  16.208  1.00  0.00    -0.066 C
HETATM   24  C1  UNL     1       4.330  22.779  14.790  1.00  0.00     0.048 C
HETATM   25  C23 UNL     1       5.113  23.954  16.747  1.00  0.00    -0.020 C
BRANCH  25  26
HETATM   26  C24 UNL     1       5.066  24.506  18.100  1.00  0.00     0.030 C
BRANCH  26  27
HETATM   27  C25 UNL     1       6.362  24.621  18.812  1.00  0.00     0.040 C
BRANCH  27  28
HETATM   28  C26 UNL     1       6.386  25.227  20.160  1.00  0.00     0.051 C
HETATM   29  C27 UNL     1       7.627  25.927  20.580  1.00  0.00     0.045 C
HETATM   30  C28 UNL     1       5.237  26.257  20.189  1.00  0.00     0.045 C
BRANCH  28  31
HETATM   31  O6  UNL     1       6.093  24.274  21.161  1.00  0.00    -0.391 OA
ATOM     32  H6  UNL     1       6.862  23.767  21.394  1.00  0.00     0.210 HD
ENDBRANCH  28  31
ENDBRANCH  27  28
ENDBRANCH  26  27
ENDBRANCH  25  26
ENDBRANCH  22  23
ENDBRANCH  19  21
ENDBRANCH  17  18
BRANCH  17  33
HETATM   33  C9  UNL     1      -2.751  24.497  17.019  1.00  0.00     0.240 C
HETATM   34  O1  UNL     1      -3.575  25.182  17.550  1.00  0.00    -0.306 OA
ENDBRANCH  17  33
ENDBRANCH   1  17
BRANCH  15  35
HETATM   35  O4  UNL     1      -3.349  24.208  20.939  1.00  0.00    -0.364 OA
ATOM     36  H4  UNL     1      -3.943  23.726  21.503  1.00  0.00     0.213 HD
ENDBRANCH  15  35
BRANCH   6  37
HETATM   37  O2  UNL     1       0.104  22.190  23.617  1.00  0.00    -0.393 OA
ATOM     38  H2  UNL     1      -0.403  22.426  24.385  1.00  0.00     0.210 HD
ENDBRANCH   6  37
BRANCH  11  39
HETATM   39  O3  UNL     1      -5.895  22.074  20.377  1.00  0.00    -0.290 OA
ATOM     40  H3  UNL     1      -6.806  21.805  20.394  1.00  0.00     0.244 HD
ENDBRANCH  11  39
TORSDOF 12
ENDMDL