MODEL 3
REMARK VINA RESULT: -6.515408395      0.824      1.252
REMARK  12 active torsions:
REMARK  status: ('A' for Active; 'I' for Inactive)
REMARK    1  A    between atoms: O1_2  and  C2_3
REMARK    2  A    between atoms: C3_4  and  C4_5
REMARK    3  A    between atoms: C4_5  and  C5_7
REMARK    4  A    between atoms: C6_8  and  O3_9
REMARK    5  A    between atoms: C7_11  and  C8_12
REMARK    6  A    between atoms: C8_12  and  C9_13
REMARK    7  A    between atoms: C13_17  and  O4_18
REMARK    8  A    between atoms: C14_20  and  C15_21
REMARK    9  A    between atoms: C17_24  and  O6_25
REMARK   10  A    between atoms: C18_29  and  C19_30
REMARK   11  A    between atoms: C23_34  and  C24_35
REMARK   12  A    between atoms: C24_35  and  C25_36
ROOT
HETATM    1  C25 UNL     1       0.423  23.403  21.293  1.00  0.00    -0.004 C
HETATM    2  C26 UNL     1       1.616  23.874  21.024  1.00  0.00     0.015 C
HETATM    3  C27 UNL     1       2.799  23.335  21.723  1.00  0.00     0.060 C
HETATM    4  C28 UNL     1       1.809  24.919  20.032  1.00  0.00     0.094 C
HETATM    5  N2  UNL     1       1.971  25.742  19.221  1.00  0.00    -0.192 NA
ENDROOT
BRANCH   1   6
HETATM    6  C24 UNL     1      -0.813  23.900  20.631  1.00  0.00     0.072 C
BRANCH   6   7
HETATM    7  C23 UNL     1      -1.518  22.820  19.897  1.00  0.00     0.004 A
HETATM    8  C2  UNL     1      -1.081  22.270  18.703  1.00  0.00     0.107 A
HETATM    9  C3  UNL     1      -2.018  21.321  18.358  1.00  0.00     0.118 A
HETATM   10  N1  UNL     1      -2.971  21.309  19.309  1.00  0.00    -0.353 N
HETATM   11  C18 UNL     1      -2.694  22.210  20.258  1.00  0.00     0.027 A
ATOM     12  H1  UNL     1      -3.788  20.699  19.306  1.00  0.00     0.166 HD
BRANCH   8  13
HETATM   13  O1  UNL     1       0.053  22.588  17.983  1.00  0.00    -0.353 OA
HETATM   14  C1  UNL     1       0.035  23.597  17.007  1.00  0.00     0.210 C
ENDBRANCH   8  13
BRANCH   9  15
HETATM   15  C4  UNL     1      -2.042  20.469  17.185  1.00  0.00     0.217 C
HETATM   16  O2  UNL     1      -2.036  19.197  17.437  1.00  0.00    -0.285 OA
BRANCH  15  17
HETATM   17  C5  UNL     1      -2.074  20.843  15.785  1.00  0.00     0.084 A
HETATM   18  C6  UNL     1      -3.231  21.376  15.241  1.00  0.00     0.092 A
HETATM   19  C7  UNL     1      -3.331  21.655  13.864  1.00  0.00     0.014 A
HETATM   20  C13 UNL     1      -2.278  21.406  13.022  1.00  0.00     0.091 A
HETATM   21  C14 UNL     1      -1.123  20.876  13.572  1.00  0.00     0.077 A
HETATM   22  C17 UNL     1      -1.003  20.588  14.942  1.00  0.00     0.099 A
BRANCH  18  23
HETATM   23  O3  UNL     1      -4.359  21.684  15.963  1.00  0.00    -0.359 OA
ATOM     24  H3  UNL     1      -5.123  22.120  15.605  1.00  0.00     0.217 HD
ENDBRANCH  18  23
BRANCH  19  25
HETATM   25  C8  UNL     1      -4.598  22.248  13.361  1.00  0.00     0.072 C
BRANCH  25  26
HETATM   26  C9  UNL     1      -4.676  23.695  13.554  1.00  0.00    -0.020 C
HETATM   27  C10 UNL     1      -5.823  24.288  13.843  1.00  0.00    -0.091 C
HETATM   28  C11 UNL     1      -7.120  23.583  14.001  1.00  0.00     0.042 C
HETATM   29  C12 UNL     1      -5.869  25.785  14.029  1.00  0.00     0.042 C
ENDBRANCH  25  26
ENDBRANCH  19  25
BRANCH  20  30
HETATM   30  O4  UNL     1      -2.466  21.705  11.712  1.00  0.00    -0.359 OA
ATOM     31  H4  UNL     1      -2.703  22.603  11.513  1.00  0.00     0.217 HD
ENDBRANCH  20  30
BRANCH  21  32
HETATM   32  C15 UNL     1       0.015  20.615  12.695  1.00  0.00     0.161 C
HETATM   33  C16 UNL     1       0.129  19.472  11.758  1.00  0.00     0.097 C
HETATM   34  O5  UNL     1       1.007  21.402  12.706  1.00  0.00    -0.293 OA
ENDBRANCH  21  32
BRANCH  22  35
HETATM   35  O6  UNL     1       0.163  20.078  15.345  1.00  0.00    -0.359 OA
ATOM     36  H6  UNL     1       0.343  19.148  15.410  1.00  0.00     0.217 HD
ENDBRANCH  22  35
ENDBRANCH  15  17
ENDBRANCH   9  15
BRANCH  11  37
HETATM   37  C19 UNL     1      -3.530  22.476  21.471  1.00  0.00    -0.008 C
HETATM   38  C20 UNL     1      -4.741  21.565  21.430  1.00  0.00     0.021 C
HETATM   39  C21 UNL     1      -4.034  23.882  21.551  1.00  0.00     0.021 C
HETATM   40  C22 UNL     1      -2.764  22.106  22.744  1.00  0.00     0.021 C
ENDBRANCH  11  37
ENDBRANCH   6   7
ENDBRANCH   1   6
TORSDOF 12
ENDMDL