MODEL 5
REMARK VINA RESULT: -5.553813077      2.555      5.747
REMARK  14 active torsions:
REMARK  status: ('A' for Active; 'I' for Inactive)
REMARK    1  A    between atoms: C2_2  and  O1_3
REMARK    2  A    between atoms: C2_2  and  C4_7
REMARK    3  A    between atoms: O1_3  and  C3_4
REMARK    4  A    between atoms: C4_7  and  O3_8
REMARK    5  A    between atoms: C4_7  and  C5_10
REMARK    6  A    between atoms: C5_10  and  C7_12
REMARK    7  A    between atoms: C7_12  and  C8_13
REMARK    8  A    between atoms: C8_13  and  C9_14
REMARK    9  A    between atoms: C9_14  and  O4_15
REMARK   10  A    between atoms: C9_14  and  C10_17
REMARK   11  A    between atoms: C10_17  and  C13_20
REMARK   12  A    between atoms: C14_21  and  C15_22
REMARK   13  A    between atoms: C15_22  and  O5_23
REMARK   14  A    between atoms: C18_27  and  O6_28
ROOT
HETATM    1  C13 UNL     1      -1.204  22.692  19.741  1.00  0.00    -0.016 C
HETATM    2  C14 UNL     1       0.061  23.084  19.678  1.00  0.00     0.008 C
ENDROOT
BRANCH   1   3
HETATM    3  C10 UNL     1      -1.938  22.080  18.588  1.00  0.00    -0.004 C
HETATM    4  C11 UNL     1      -2.198  20.621  18.846  1.00  0.00     0.021 C
HETATM    5  C12 UNL     1      -1.126  22.262  17.310  1.00  0.00     0.021 C
BRANCH   3   6
HETATM    6  C9  UNL     1      -3.200  22.833  18.407  1.00  0.00     0.133 C
BRANCH   6   7
HETATM    7  C8  UNL     1      -3.331  23.784  17.270  1.00  0.00     0.060 C
BRANCH   7   8
HETATM    8  C7  UNL     1      -3.498  25.188  17.585  1.00  0.00    -0.015 C
BRANCH   8   9
HETATM    9  C5  UNL     1      -2.521  26.113  17.487  1.00  0.00    -0.030 C
HETATM   10  C6  UNL     1      -1.277  25.859  16.769  1.00  0.00     0.050 C
BRANCH   9  11
HETATM   11  C4  UNL     1      -2.775  27.411  18.092  1.00  0.00     0.104 C
BRANCH  11  12
HETATM   12  C2  UNL     1      -2.665  28.704  17.503  1.00  0.00     0.104 C
HETATM   13  C1  UNL     1      -1.580  29.489  17.746  1.00  0.00     0.054 C
BRANCH  12  14
HETATM   14  O1  UNL     1      -3.592  29.270  16.666  1.00  0.00    -0.262 OA
BRANCH  14  15
HETATM   15  C3  UNL     1      -4.835  29.674  17.178  1.00  0.00     0.378 C
HETATM   16  N1  UNL     1      -5.990  28.936  16.864  1.00  0.00    -0.032 NA
HETATM   17  O2  UNL     1      -4.858  30.690  17.903  1.00  0.00    -0.242 OA
ENDBRANCH  14  15
ENDBRANCH  12  14
ENDBRANCH  11  12
BRANCH  11  18
HETATM   18  O3  UNL     1      -3.154  27.416  19.339  1.00  0.00    -0.357 OA
ATOM     19  H3  UNL     1      -2.860  28.169  19.837  1.00  0.00     0.217 HD
ENDBRANCH  11  18
ENDBRANCH   9  11
ENDBRANCH   8   9
ENDBRANCH   7   8
ENDBRANCH   6   7
BRANCH   6  20
HETATM   20  O4  UNL     1      -4.355  22.022  18.418  1.00  0.00    -0.394 OA
ATOM     21  H4  UNL     1      -4.630  21.928  19.322  1.00  0.00     0.210 HD
ENDBRANCH   6  20
ENDBRANCH   3   6
ENDBRANCH   1   3
BRANCH   2  22
HETATM   22  C15 UNL     1       0.691  23.671  20.856  1.00  0.00     0.082 C
HETATM   23  C16 UNL     1       2.059  23.060  21.132  1.00  0.00     0.045 C
HETATM   24  C17 UNL     1       3.087  24.076  20.762  1.00  0.00     0.042 C
HETATM   25  C18 UNL     1       2.360  25.235  20.129  1.00  0.00     0.071 C
HETATM   26  C19 UNL     1       0.994  25.115  20.795  1.00  0.00     0.059 C
HETATM   27  C24 UNL     1       2.909  26.571  20.501  1.00  0.00     0.055 C
HETATM   28  C20 UNL     1      -0.013  26.006  20.192  1.00  0.00     0.012 C
HETATM   29  C21 UNL     1       0.606  27.327  19.830  1.00  0.00     0.013 C
HETATM   30  C22 UNL     1       1.853  27.657  20.573  1.00  0.00    -0.005 C
HETATM   31  C23 UNL     1       1.601  28.108  21.991  1.00  0.00     0.019 C
HETATM   32  C26 UNL     1       2.577  28.785  19.868  1.00  0.00     0.061 C
HETATM   33  O7  UNL     1       3.117  28.124  18.771  1.00  0.00    -0.380 OA
HETATM   34  C27 UNL     1       1.712  29.934  19.527  1.00  0.00     0.046 C
HETATM   35  C28 UNL     1       3.748  29.281  20.698  1.00  0.00     0.046 C
HETATM   36  C25 UNL     1       3.791  27.066  19.377  1.00  0.00     0.177 C
BRANCH  22  37
HETATM   37  O5  UNL     1      -0.107  23.408  21.973  1.00  0.00    -0.385 OA
ATOM     38  H5  UNL     1      -0.544  24.211  22.234  1.00  0.00     0.211 HD
ENDBRANCH  22  37
BRANCH  25  39
HETATM   39  O6  UNL     1       2.322  25.089  18.774  1.00  0.00    -0.389 OA
ATOM     40  H6  UNL     1       1.920  25.849  18.370  1.00  0.00     0.210 HD
ENDBRANCH  25  39
ENDBRANCH   2  22
TORSDOF 14
ENDMDL