MODEL 1
REMARK VINA RESULT: -6.444411934      0.000      0.000
REMARK  11 active torsions:
REMARK  status: ('A' for Active; 'I' for Inactive)
REMARK    1  A    between atoms: C2_2  and  C3_3
REMARK    2  A    between atoms: C2_2  and  C23_26
REMARK    3  A    between atoms: C3_3  and  C4_4
REMARK    4  A    between atoms: C4_4  and  C5_5
REMARK    5  A    between atoms: C15_17  and  C16_18
REMARK    6  A    between atoms: C23_26  and  O4_27
REMARK    7  A    between atoms: C23_26  and  C24_29
REMARK    8  A    between atoms: C23_26  and  C26_37
REMARK    9  A    between atoms: C24_29  and  C25_30
REMARK   10  A    between atoms: C25_30  and  O5_31
REMARK   11  A    between atoms: N1_33  and  O6_35
ROOT
HETATM    1  C5  UNL     1      -2.282  22.586  15.254  1.00  0.00     0.023 C
HETATM    2  C6  UNL     1      -1.542  23.780  15.787  1.00  0.00     0.013 C
HETATM    3  C7  UNL     1      -0.432  23.529  16.699  1.00  0.00    -0.005 C
HETATM    4  C8  UNL     1       0.838  23.026  16.069  1.00  0.00     0.008 C
HETATM    5  C9  UNL     1       0.809  21.523  15.758  1.00  0.00     0.042 C
HETATM    6  C10 UNL     1      -0.577  21.100  15.996  1.00  0.00     0.099 A
HETATM    7  O1  UNL     1      -1.389  20.221  15.431  1.00  0.00    -0.362 OA
HETATM    8  C11 UNL     1      -1.365  21.502  14.950  1.00  0.00     0.093 A
HETATM    9  C12 UNL     1      -0.790  21.493  13.538  1.00  0.00     0.050 C
HETATM   10  C13 UNL     1      -0.847  21.274  17.465  1.00  0.00     0.056 C
HETATM   11  C14 UNL     1      -1.980  20.466  17.999  1.00  0.00     0.177 C
HETATM   12  O2  UNL     1      -2.892  21.004  18.795  1.00  0.00    -0.381 OA
HETATM   13  C15 UNL     1      -2.841  22.244  19.293  1.00  0.00     0.157 C
HETATM   14  C20 UNL     1      -1.872  23.205  18.742  1.00  0.00     0.047 C
HETATM   15  C21 UNL     1      -0.740  22.676  17.927  1.00  0.00    -0.029 C
HETATM   16  C22 UNL     1       0.529  22.910  18.786  1.00  0.00     0.016 C
ENDROOT
BRANCH   1  17
HETATM   17  C4  UNL     1      -3.363  22.966  14.315  1.00  0.00     0.008 C
BRANCH  17  18
HETATM   18  C3  UNL     1      -4.482  22.034  14.093  1.00  0.00     0.008 C
BRANCH  18  19
HETATM   19  C2  UNL     1      -4.276  21.243  12.816  1.00  0.00     0.027 C
HETATM   20  C1  UNL     1      -5.004  21.797  11.646  1.00  0.00     0.014 C
BRANCH  19  21
HETATM   21  C23 UNL     1      -4.657  19.817  13.070  1.00  0.00     0.156 C
BRANCH  21  22
HETATM   22  O4  UNL     1      -4.400  19.597  14.459  1.00  0.00    -0.378 OA
ATOM     23  H4  UNL     1      -5.017  18.926  14.726  1.00  0.00     0.211 HD
ENDBRANCH  21  22
BRANCH  21  24
HETATM   24  C24 UNL     1      -6.073  19.468  12.859  1.00  0.00     0.135 C
BRANCH  24  25
HETATM   25  C25 UNL     1      -6.717  18.615  13.880  1.00  0.00     0.138 C
HETATM   26  N1  UNL     1      -6.644  17.318  13.720  1.00  0.00    -0.251 N
ATOM     27  H1  UNL     1      -6.159  16.917  12.918  1.00  0.00     0.196 HD
BRANCH  25  28
HETATM   28  O5  UNL     1      -7.394  19.067  14.997  1.00  0.00    -0.348 OA
ATOM     29  H5  UNL     1      -7.620  18.543  15.757  1.00  0.00     0.219 HD
ENDBRANCH  25  28
BRANCH  26  30
HETATM   30  O6  UNL     1      -7.232  16.514  14.651  1.00  0.00    -0.288 OA
ATOM     31  H6  UNL     1      -6.697  15.865  15.093  1.00  0.00     0.244 HD
ENDBRANCH  26  30
ENDBRANCH  24  25
ENDBRANCH  21  24
BRANCH  21  32
HETATM   32  C26 UNL     1      -3.766  18.901  12.320  1.00  0.00     0.209 C
HETATM   33  O7  UNL     1      -2.617  19.153  11.920  1.00  0.00    -0.646 OA
HETATM   34  O8  UNL     1      -4.212  17.596  11.995  1.00  0.00    -0.646 OA
ENDBRANCH  21  32
ENDBRANCH  19  21
ENDBRANCH  18  19
ENDBRANCH  17  18
ENDBRANCH   1  17
BRANCH  13  35
HETATM   35  C16 UNL     1      -2.868  22.137  20.780  1.00  0.00    -0.005 A
HETATM   36  C17 UNL     1      -1.919  22.775  21.561  1.00  0.00     0.036 A
HETATM   37  C18 UNL     1      -2.220  22.477  22.873  1.00  0.00     0.142 A
HETATM   38  O3  UNL     1      -3.269  21.721  22.872  1.00  0.00    -0.334 OA
HETATM   39  C19 UNL     1      -3.688  21.493  21.644  1.00  0.00     0.151 A
ENDBRANCH  13  35
TORSDOF 11
ENDMDL