MODEL 2
REMARK VINA RESULT: -6.726952272      2.900      9.193
REMARK  12 active torsions:
REMARK  status: ('A' for Active; 'I' for Inactive)
REMARK    1  A    between atoms: C2_2  and  C3_3
REMARK    2  A    between atoms: C3_3  and  C4_4
REMARK    3  A    between atoms: C4_4  and  O2_6
REMARK    4  A    between atoms: O2_6  and  C5_7
REMARK    5  A    between atoms: C8_10  and  C9_11
REMARK    6  A    between atoms: C9_11  and  C10_12
REMARK    7  A    between atoms: C10_12  and  C11_13
REMARK    8  A    between atoms: C11_13  and  O3_16
REMARK    9  A    between atoms: C14_18  and  O4_20
REMARK   10  A    between atoms: C18_24  and  O5_25
REMARK   11  A    between atoms: C20_28  and  C21_29
REMARK   12  A    between atoms: C24_32  and  O6_33
ROOT
HETATM    1  C5  UNL     1      -0.360  23.133  20.640  1.00  0.00     0.147 C
HETATM    2  C6  UNL     1       0.636  24.232  20.777  1.00  0.00     0.070 C
HETATM    3  C7  UNL     1       1.622  24.405  19.708  1.00  0.00    -0.047 C
HETATM    4  C8  UNL     1       2.629  25.187  19.998  1.00  0.00    -0.021 C
HETATM    5  C14 UNL     1       1.533  23.690  18.371  1.00  0.00     0.086 C
HETATM    6  C15 UNL     1       1.220  24.633  17.291  1.00  0.00     0.051 C
HETATM    7  C16 UNL     1       0.579  22.533  18.399  1.00  0.00     0.075 C
HETATM    8  C17 UNL     1       0.139  21.979  17.084  1.00  0.00     0.019 A
HETATM    9  C18 UNL     1       0.994  21.808  16.022  1.00  0.00     0.076 A
HETATM   10  C19 UNL     1       0.487  21.381  14.810  1.00  0.00     0.051 A
HETATM   11  C20 UNL     1      -0.849  21.096  14.559  1.00  0.00     0.004 A
HETATM   12  C24 UNL     1      -1.716  21.247  15.607  1.00  0.00     0.110 A
HETATM   13  C25 UNL     1      -1.202  21.684  16.835  1.00  0.00     0.112 A
HETATM   14  O7  UNL     1      -2.174  21.798  17.860  1.00  0.00    -0.347 OA
HETATM   15  C26 UNL     1      -1.566  21.639  19.171  1.00  0.00     0.188 C
HETATM   16  C27 UNL     1      -0.647  22.873  19.207  1.00  0.00     0.016 C
HETATM   17  C28 UNL     1      -1.442  24.035  18.702  1.00  0.00     0.021 C
ENDROOT
BRANCH   4  18
HETATM   18  C9  UNL     1       3.809  25.677  19.339  1.00  0.00     0.030 C
BRANCH  18  19
HETATM   19  C10 UNL     1       4.877  26.236  20.248  1.00  0.00     0.040 C
BRANCH  19  20
HETATM   20  C11 UNL     1       6.069  25.319  20.200  1.00  0.00     0.051 C
HETATM   21  C12 UNL     1       6.275  24.616  18.897  1.00  0.00     0.045 C
HETATM   22  C13 UNL     1       7.339  26.008  20.626  1.00  0.00     0.045 C
BRANCH  20  23
HETATM   23  O3  UNL     1       5.893  24.253  21.144  1.00  0.00    -0.391 OA
ATOM     24  H3  UNL     1       5.757  23.436  20.678  1.00  0.00     0.210 HD
ENDBRANCH  20  23
ENDBRANCH  19  20
ENDBRANCH  18  19
ENDBRANCH   4  18
BRANCH   5  25
HETATM   25  O4  UNL     1       2.853  23.167  18.323  1.00  0.00    -0.385 OA
ATOM     26  H4  UNL     1       2.678  22.307  18.687  1.00  0.00     0.211 HD
ENDBRANCH   5  25
BRANCH   1  27
HETATM   27  O2  UNL     1      -1.600  23.598  21.209  1.00  0.00    -0.315 OA
BRANCH  27  28
HETATM   28  C4  UNL     1      -2.239  22.882  22.249  1.00  0.00     0.259 C
HETATM   29  O1  UNL     1      -1.519  22.672  23.221  1.00  0.00    -0.265 OA
BRANCH  28  30
HETATM   30  C3  UNL     1      -3.653  22.486  22.055  1.00  0.00     0.111 C
BRANCH  30  31
HETATM   31  C2  UNL     1      -3.853  21.004  22.055  1.00  0.00     0.005 C
HETATM   32  C1  UNL     1      -5.240  20.595  21.670  1.00  0.00     0.005 C
ENDBRANCH  30  31
ENDBRANCH  28  30
ENDBRANCH  27  28
ENDBRANCH   1  27
BRANCH   9  33
HETATM   33  O5  UNL     1       2.374  22.053  16.121  1.00  0.00    -0.360 OA
ATOM     34  H5  UNL     1       2.912  22.243  15.361  1.00  0.00     0.217 HD
ENDBRANCH   9  33
BRANCH  12  35
HETATM   35  O6  UNL     1      -3.075  20.974  15.517  1.00  0.00    -0.357 OA
ATOM     36  H6  UNL     1      -3.704  21.576  15.137  1.00  0.00     0.217 HD
ENDBRANCH  12  35
BRANCH  11  37
HETATM   37  C21 UNL     1      -1.250  20.999  13.142  1.00  0.00    -0.074 C
HETATM   38  C22 UNL     1      -1.519  19.629  12.613  1.00  0.00     0.044 C
HETATM   39  C23 UNL     1      -1.860  22.106  12.414  1.00  0.00     0.044 C
ENDBRANCH  11  37
TORSDOF 12
ENDMDL