MODEL 1
REMARK VINA RESULT: -6.149291712      0.000      0.000
REMARK  13 active torsions:
REMARK  status: ('A' for Active; 'I' for Inactive)
REMARK    1  A    between atoms: O1_2  and  C2_3
REMARK    2  A    between atoms: C2_3  and  C3_5
REMARK    3  A    between atoms: C3_5  and  C5_7
REMARK    4  A    between atoms: C3_5  and  O6_37
REMARK    5  A    between atoms: C6_8  and  C7_9
REMARK    6  A    between atoms: C16_18  and  C17_19
REMARK    7  A    between atoms: C16_18  and  C18_22
REMARK    8  A    between atoms: C17_19  and  O3_20
REMARK    9  A    between atoms: C18_22  and  O4_23
REMARK   10  A    between atoms: C19_25  and  C20_26
REMARK   11  A    between atoms: C20_26  and  C21_27
REMARK   12  A    between atoms: C21_27  and  O5_30
REMARK   13  A    between atoms: O6_37  and  O7_38
ROOT
HETATM    1  C7  UNL     1      -0.190  23.799  21.148  1.00  0.00     0.017 C
HETATM    2  C8  UNL     1       0.715  22.678  21.549  1.00  0.00     0.009 C
HETATM    3  C9  UNL     1       1.967  23.243  22.125  1.00  0.00     0.001 C
HETATM    4  C10 UNL     1       2.080  24.705  21.829  1.00  0.00     0.010 C
HETATM    5  C11 UNL     1       1.807  25.019  20.352  1.00  0.00    -0.032 C
HETATM    6  C12 UNL     1       2.821  24.148  19.593  1.00  0.00     0.016 C
HETATM    7  C13 UNL     1       2.239  26.433  20.142  1.00  0.00    -0.001 C
HETATM    8  C14 UNL     1       2.841  26.673  18.787  1.00  0.00     0.007 C
HETATM    9  C15 UNL     1       3.218  28.072  18.543  1.00  0.00     0.014 C
HETATM   10  C16 UNL     1       2.398  29.159  19.136  1.00  0.00     0.006 C
HETATM   11  C19 UNL     1       1.657  28.776  20.392  1.00  0.00     0.005 C
HETATM   12  C24 UNL     1       1.099  27.412  20.373  1.00  0.00    -0.005 C
HETATM   13  C25 UNL     1       0.064  27.075  19.377  1.00  0.00     0.006 C
HETATM   14  C26 UNL     1      -0.558  25.761  19.796  1.00  0.00     0.011 C
HETATM   15  C27 UNL     1       0.420  24.664  20.036  1.00  0.00    -0.029 C
HETATM   16  C28 UNL     1       0.385  23.768  18.787  1.00  0.00     0.016 C
ENDROOT
BRANCH   1  17
HETATM   17  C6  UNL     1      -1.545  23.324  20.751  1.00  0.00    -0.022 C
HETATM   18  C5  UNL     1      -2.239  22.463  21.479  1.00  0.00     0.020 C
BRANCH  18  19
HETATM   19  C3  UNL     1      -3.590  22.036  21.013  1.00  0.00     0.197 C
HETATM   20  C4  UNL     1      -4.593  23.166  21.209  1.00  0.00     0.065 C
BRANCH  19  21
HETATM   21  C2  UNL     1      -3.586  21.543  19.635  1.00  0.00     0.300 C
HETATM   22  O2  UNL     1      -4.234  22.150  18.747  1.00  0.00    -0.261 OA
BRANCH  21  23
HETATM   23  O1  UNL     1      -2.886  20.412  19.252  1.00  0.00    -0.324 OA
HETATM   24  C1  UNL     1      -1.902  20.458  18.219  1.00  0.00     0.213 C
ENDBRANCH  21  23
ENDBRANCH  19  21
BRANCH  19  25
HETATM   25  O6  UNL     1      -3.993  21.013  21.885  1.00  0.00    -0.218 OA
BRANCH  25  26
HETATM   26  O7  UNL     1      -4.989  20.323  21.333  1.00  0.00    -0.249 OA
ATOM     27  H7  UNL     1      -4.719  19.421  21.206  1.00  0.00     0.253 HD
ENDBRANCH  25  26
ENDBRANCH  19  25
ENDBRANCH  18  19
ENDBRANCH   1  17
BRANCH  11  28
HETATM   28  C20 UNL     1       0.710  29.837  20.823  1.00  0.00     0.043 C
BRANCH  28  29
HETATM   29  C21 UNL     1       0.902  30.358  22.226  1.00  0.00     0.051 C
HETATM   30  C22 UNL     1       2.111  29.772  22.916  1.00  0.00     0.045 C
HETATM   31  C23 UNL     1       1.269  31.862  22.050  1.00  0.00     0.045 C
BRANCH  29  32
HETATM   32  O5  UNL     1      -0.206  30.356  23.020  1.00  0.00    -0.391 OA
ATOM     33  H5  UNL     1      -0.684  31.176  23.069  1.00  0.00     0.210 HD
ENDBRANCH  29  32
ENDBRANCH  28  29
ENDBRANCH  11  28
BRANCH  10  34
HETATM   34  C17 UNL     1       1.497  29.831  18.124  1.00  0.00     0.176 C
BRANCH  34  35
HETATM   35  O3  UNL     1       1.830  29.431  16.820  1.00  0.00    -0.400 OA
ATOM     36  H3  UNL     1       2.726  29.670  16.613  1.00  0.00     0.209 HD
ENDBRANCH  34  35
ENDBRANCH  10  34
BRANCH  10  37
HETATM   37  C18 UNL     1       3.397  30.258  19.550  1.00  0.00     0.176 C
BRANCH  37  38
HETATM   38  O4  UNL     1       3.153  31.347  18.716  1.00  0.00    -0.400 OA
ATOM     39  H4  UNL     1       3.603  32.089  19.104  1.00  0.00     0.209 HD
ENDBRANCH  37  38
ENDBRANCH  10  37
TORSDOF 13
ENDMDL