MODEL 5
REMARK VINA RESULT: -6.787057636      1.782      2.802
REMARK  10 active torsions:
REMARK  status: ('A' for Active; 'I' for Inactive)
REMARK    1  A    between atoms: C2_2  and  C3_3
REMARK    2  A    between atoms: C9_9  and  C10_10
REMARK    3  A    between atoms: C10_10  and  C11_11
REMARK    4  A    between atoms: C11_11  and  C12_12
REMARK    5  A    between atoms: C16_16  and  C17_17
REMARK    6  A    between atoms: C20_24  and  O1_25
REMARK    7  A    between atoms: C22_28  and  O2_29
REMARK    8  A    between atoms: C23_32  and  C25_34
REMARK    9  A    between atoms: C25_34  and  O4_35
REMARK   10  A    between atoms: O4_35  and  C26_36
ROOT
HETATM    1  C3  UNL     1       3.794  24.690  17.647  1.00  0.00     0.078 C
HETATM    2  C4  UNL     1       3.433  26.138  17.583  1.00  0.00     0.051 C
HETATM    3  C5  UNL     1       3.964  24.413  19.132  1.00  0.00     0.012 C
HETATM    4  C6  UNL     1       3.103  23.974  20.054  1.00  0.00     0.016 C
HETATM    5  C7  UNL     1       1.702  23.599  19.996  1.00  0.00     0.032 A
HETATM    6  C8  UNL     1       0.781  23.461  19.007  1.00  0.00     0.092 A
HETATM    7  C9  UNL     1      -0.556  23.065  19.195  1.00  0.00    -0.011 A
HETATM    8  C15 UNL     1      -0.915  22.789  20.533  1.00  0.00     0.002 A
HETATM    9  C16 UNL     1      -2.210  22.457  20.781  1.00  0.00     0.017 A
HETATM   10  C18 UNL     1      -2.607  22.292  22.170  1.00  0.00     0.018 A
HETATM   11  C19 UNL     1      -1.724  22.443  23.169  1.00  0.00     0.038 A
HETATM   12  C20 UNL     1      -0.371  22.768  22.883  1.00  0.00     0.079 A
HETATM   13  C21 UNL     1       0.019  22.935  21.569  1.00  0.00     0.043 A
HETATM   14  C22 UNL     1       1.330  23.341  21.283  1.00  0.00     0.092 A
HETATM   15  O3  UNL     1       0.839  23.639  17.609  1.00  0.00    -0.311 OA
HETATM   16  C23 UNL     1       1.854  23.689  16.602  1.00  0.00     0.189 C
HETATM   17  C24 UNL     1       1.808  22.303  15.963  1.00  0.00     0.082 C
HETATM   18  O6  UNL     1       3.097  23.771  17.045  1.00  0.00    -0.338 OA
ENDROOT
BRANCH  16  19
HETATM   19  C25 UNL     1       1.445  24.686  15.566  1.00  0.00     0.247 C
BRANCH  19  20
HETATM   20  O4  UNL     1       0.524  24.420  14.616  1.00  0.00    -0.316 OA
BRANCH  20  21
HETATM   21  C26 UNL     1      -0.789  24.437  14.408  1.00  0.00     0.254 C
HETATM   22  C27 UNL     1      -1.654  23.212  14.266  1.00  0.00     0.126 C
HETATM   23  O5  UNL     1      -1.385  25.531  14.316  1.00  0.00    -0.266 OA
ENDBRANCH  20  21
ENDBRANCH  19  20
ENDBRANCH  16  19
BRANCH   1  24
HETATM   24  C2  UNL     1       5.207  24.549  17.095  1.00  0.00     0.037 C
HETATM   25  C1  UNL     1       5.569  23.236  16.540  1.00  0.00     0.008 C
ENDBRANCH   1  24
BRANCH   7  26
HETATM   26  C10 UNL     1      -1.568  23.226  18.187  1.00  0.00     0.043 C
BRANCH  26  27
HETATM   27  C11 UNL     1      -2.044  24.577  17.765  1.00  0.00     0.008 C
BRANCH  27  28
HETATM   28  C12 UNL     1      -3.353  25.123  18.139  1.00  0.00    -0.023 C
HETATM   29  C13 UNL     1      -3.224  25.779  19.552  1.00  0.00     0.009 C
HETATM   30  C14 UNL     1      -3.911  26.219  17.249  1.00  0.00     0.009 C
ENDBRANCH  27  28
ENDBRANCH  26  27
ENDBRANCH   7  26
BRANCH  14  31
HETATM   31  O2  UNL     1       2.153  23.450  22.331  1.00  0.00    -0.359 OA
ATOM     32  H2  UNL     1       1.860  23.636  23.216  1.00  0.00     0.217 HD
ENDBRANCH  14  31
BRANCH   9  33
HETATM   33  C17 UNL     1      -3.104  21.791  19.892  1.00  0.00     0.121 C
HETATM   34  N1  UNL     1      -4.324  22.183  19.780  1.00  0.00    -0.387 N
ATOM     35  H12 UNL     1      -4.488  23.113  20.166  1.00  0.00     0.157 HD
ATOM     36  H11 UNL     1      -4.963  21.708  19.144  1.00  0.00     0.157 HD
HETATM   37  N2  UNL     1      -2.880  20.521  19.365  1.00  0.00    -0.082 NA
ENDBRANCH   9  33
BRANCH  12  38
HETATM   38  O1  UNL     1       0.417  22.882  23.961  1.00  0.00    -0.360 OA
ATOM     39  H1  UNL     1       0.766  23.753  24.106  1.00  0.00     0.217 HD
ENDBRANCH  12  38
TORSDOF 10
ENDMDL