MODEL 3
REMARK VINA RESULT: -6.171361334      2.058      5.672
REMARK  12 active torsions:
REMARK  status: ('A' for Active; 'I' for Inactive)
REMARK    1  A    between atoms: C2_2  and  C4_4
REMARK    2  A    between atoms: C4_4  and  C5_5
REMARK    3  A    between atoms: C6_6  and  C7_7
REMARK    4  A    between atoms: C7_7  and  C17_24
REMARK    5  A    between atoms: C8_8  and  C9_9
REMARK    6  A    between atoms: C11_11  and  C12_12
REMARK    7  A    between atoms: C12_12  and  O1_13
REMARK    8  A    between atoms: C15_18  and  O3_19
REMARK    9  A    between atoms: C15_18  and  C16_21
REMARK   10  A    between atoms: C16_21  and  O4_22
REMARK   11  A    between atoms: C22_31  and  C23_32
REMARK   12  A    between atoms: C23_32  and  C24_33
ROOT
HETATM    1  C7  UNL     1      -2.339  24.758  18.726  1.00  0.00    -0.042 C
HETATM    2  C8  UNL     1      -1.449  23.976  19.117  1.00  0.00     0.018 C
ENDROOT
BRANCH   1   3
HETATM    3  C6  UNL     1      -3.298  25.602  18.303  1.00  0.00     0.016 C
HETATM    4  C5  UNL     1      -3.080  26.899  17.829  1.00  0.00     0.051 C
BRANCH   4   5
HETATM    5  C4  UNL     1      -4.117  27.705  17.442  1.00  0.00    -0.152 C
BRANCH   5   6
HETATM    6  C2  UNL     1      -5.073  28.459  17.033  1.00  0.00     0.048 C
HETATM    7  C1  UNL     1      -6.337  28.231  16.362  1.00  0.00     0.022 C
HETATM    8  C3  UNL     1      -4.772  29.947  17.323  1.00  0.00     0.022 C
ENDBRANCH   5   6
ENDBRANCH   4   5
ENDBRANCH   1   3
BRANCH   1   9
HETATM    9  C17 UNL     1      -3.330  23.288  18.344  1.00  0.00     0.119 C
HETATM   10  C18 UNL     1      -3.583  22.914  19.724  1.00  0.00     0.142 C
HETATM   11  O5  UNL     1      -3.621  23.738  20.612  1.00  0.00    -0.297 OA
HETATM   12  C19 UNL     1      -3.809  21.465  20.077  1.00  0.00     0.107 C
HETATM   13  C20 UNL     1      -2.859  20.641  19.228  1.00  0.00    -0.001 C
HETATM   14  C21 UNL     1      -2.339  21.073  18.138  1.00  0.00     0.002 C
HETATM   15  S1  UNL     1      -1.211  20.281  16.998  1.00  0.00    -0.124 SA
HETATM   16  C28 UNL     1      -2.657  22.392  17.517  1.00  0.00    -0.039 C
HETATM   17  C22 UNL     1      -1.755  21.265  15.549  1.00  0.00     0.069 C
HETATM   18  C25 UNL     1      -1.932  22.609  16.268  1.00  0.00    -0.009 C
HETATM   19  C26 UNL     1      -0.579  23.204  16.224  1.00  0.00     0.021 C
HETATM   20  C27 UNL     1      -2.809  23.399  15.273  1.00  0.00     0.021 C
BRANCH  17  21
HETATM   21  C23 UNL     1      -2.940  20.729  14.872  1.00  0.00     0.060 C
BRANCH  21  22
HETATM   22  C24 UNL     1      -2.485  20.029  13.624  1.00  0.00     0.054 C
HETATM   23  N1  UNL     1      -2.477  18.729  13.677  1.00  0.00    -0.411 N
ATOM     24  H12 UNL     1      -2.765  18.232  14.520  1.00  0.00     0.155 HD
ATOM     25  H11 UNL     1      -2.168  18.254  12.829  1.00  0.00     0.155 HD
ENDBRANCH  21  22
ENDBRANCH  17  21
ENDBRANCH   1   9
BRANCH   2  26
HETATM   26  C9  UNL     1      -0.305  24.037  20.013  1.00  0.00    -0.017 C
HETATM   27  C10 UNL     1      -0.184  23.190  21.032  1.00  0.00    -0.009 C
HETATM   28  C11 UNL     1       0.905  23.142  21.994  1.00  0.00     0.039 C
HETATM   29  C13 UNL     1       1.789  24.322  22.096  1.00  0.00     0.092 C
HETATM   30  C14 UNL     1       1.435  25.373  21.131  1.00  0.00     0.168 C
HETATM   31  O2  UNL     1       1.755  26.520  21.396  1.00  0.00    -0.294 OA
HETATM   32  C15 UNL     1       0.718  25.092  19.871  1.00  0.00     0.166 C
BRANCH  28  33
HETATM   33  C12 UNL     1       0.324  22.714  23.345  1.00  0.00     0.173 C
BRANCH  33  34
HETATM   34  O1  UNL     1      -1.029  22.617  23.197  1.00  0.00    -0.400 OA
ATOM     35  H1  UNL     1      -1.430  23.105  23.907  1.00  0.00     0.209 HD
ENDBRANCH  33  34
ENDBRANCH  28  33
BRANCH  32  36
HETATM   36  O3  UNL     1       0.115  26.278  19.446  1.00  0.00    -0.375 OA
ATOM     37  H3  UNL     1       0.693  27.012  19.621  1.00  0.00     0.211 HD
ENDBRANCH  32  36
BRANCH  32  38
HETATM   38  C16 UNL     1       1.671  24.578  18.777  1.00  0.00     0.215 C
BRANCH  38  39
HETATM   39  O4  UNL     1       2.901  25.194  18.925  1.00  0.00    -0.397 OA
ATOM     40  H4  UNL     1       3.571  24.528  19.018  1.00  0.00     0.209 HD
ENDBRANCH  38  39
ENDBRANCH  32  38
ENDBRANCH   2  26
TORSDOF 12
ENDMDL