MODEL 4
REMARK VINA RESULT: -5.952798013      2.736      6.032
REMARK  12 active torsions:
REMARK  status: ('A' for Active; 'I' for Inactive)
REMARK    1  A    between atoms: C3_3  and  O1_4
REMARK    2  A    between atoms: C5_7  and  O2_8
REMARK    3  A    between atoms: C9_13  and  C10_14
REMARK    4  A    between atoms: C12_16  and  O3_17
REMARK    5  A    between atoms: O3_17  and  C13_18
REMARK    6  A    between atoms: C15_21  and  C16_22
REMARK    7  A    between atoms: C17_23  and  C18_24
REMARK    8  A    between atoms: C18_24  and  C19_25
REMARK    9  A    between atoms: C19_25  and  C20_26
REMARK   10  A    between atoms: C25_32  and  C26_33
REMARK   11  A    between atoms: C26_33  and  O6_35
REMARK   12  A    between atoms: C28_37  and  O7_38
ROOT
HETATM    1  C1  UNL     1       0.617  22.365  12.466  1.00  0.00     0.019 C
HETATM    2  C2  UNL     1       0.700  22.272  13.790  1.00  0.00    -0.032 C
HETATM    3  C3  UNL     1       0.269  20.990  14.406  1.00  0.00     0.151 C
HETATM    4  C4  UNL     1      -1.228  21.076  14.604  1.00  0.00     0.068 C
HETATM    5  C5  UNL     1      -1.770  20.114  15.607  1.00  0.00     0.128 C
HETATM    6  C6  UNL     1      -1.237  20.287  17.001  1.00  0.00     0.033 C
HETATM    7  C7  UNL     1      -1.254  18.881  17.625  1.00  0.00     0.017 C
HETATM    8  C8  UNL     1      -2.082  21.176  17.844  1.00  0.00    -0.015 C
HETATM    9  C9  UNL     1      -1.730  22.306  18.404  1.00  0.00    -0.054 C
HETATM   10  C22 UNL     1      -0.391  22.932  18.301  1.00  0.00     0.036 C
HETATM   11  C23 UNL     1      -0.325  23.982  17.218  1.00  0.00     0.005 C
HETATM   12  C24 UNL     1       1.094  24.299  16.810  1.00  0.00     0.010 C
HETATM   13  C25 UNL     1       1.680  23.217  15.904  1.00  0.00     0.047 C
HETATM   14  C28 UNL     1       1.207  23.450  14.518  1.00  0.00     0.155 C
ENDROOT
BRANCH   9  15
HETATM   15  C10 UNL     1      -2.786  23.022  19.219  1.00  0.00     0.153 C
HETATM   16  C11 UNL     1      -3.869  22.077  19.665  1.00  0.00     0.069 C
HETATM   17  C12 UNL     1      -4.100  22.299  21.124  1.00  0.00     0.136 C
HETATM   18  C14 UNL     1      -4.258  23.815  21.306  1.00  0.00     0.068 C
HETATM   19  C15 UNL     1      -2.900  24.410  21.042  1.00  0.00     0.147 C
HETATM   20  O5  UNL     1      -2.074  23.544  20.325  1.00  0.00    -0.372 OA
BRANCH  17  21
HETATM   21  O3  UNL     1      -5.103  21.568  21.709  1.00  0.00    -0.323 OA
BRANCH  21  22
HETATM   22  C13 UNL     1      -5.101  20.244  22.056  1.00  0.00     0.398 C
HETATM   23  O4  UNL     1      -6.215  19.660  22.035  1.00  0.00    -0.276 OA
ENDBRANCH  21  22
ENDBRANCH  17  21
BRANCH  19  24
HETATM   24  C16 UNL     1      -2.938  25.701  20.344  1.00  0.00     0.001 C
HETATM   25  C17 UNL     1      -1.911  26.330  19.839  1.00  0.00    -0.028 C
BRANCH  25  26
HETATM   26  C18 UNL     1      -2.024  27.629  19.148  1.00  0.00     0.027 C
BRANCH  26  27
HETATM   27  C19 UNL     1      -3.216  27.665  18.212  1.00  0.00     0.003 C
BRANCH  27  28
HETATM   28  C20 UNL     1      -2.791  26.916  16.948  1.00  0.00    -0.004 C
HETATM   29  C21 UNL     1      -3.728  25.738  16.715  1.00  0.00     0.005 C
ENDBRANCH  27  28
ENDBRANCH  26  27
ENDBRANCH  25  26
ENDBRANCH  19  24
ENDBRANCH   9  15
BRANCH   5  30
HETATM   30  O2  UNL     1      -3.151  20.291  15.657  1.00  0.00    -0.395 OA
ATOM     31  H2  UNL     1      -3.523  19.861  14.896  1.00  0.00     0.210 HD
ENDBRANCH   5  30
BRANCH  13  32
HETATM   32  C26 UNL     1       3.195  23.225  15.970  1.00  0.00     0.120 C
HETATM   33  C27 UNL     1       3.722  24.495  16.596  1.00  0.00     0.040 C
BRANCH  32  34
HETATM   34  O6  UNL     1       3.563  22.171  16.810  1.00  0.00    -0.395 OA
ATOM     35  H6  UNL     1       4.483  22.001  16.645  1.00  0.00     0.210 HD
ENDBRANCH  32  34
ENDBRANCH  13  32
BRANCH   3  36
HETATM   36  O1  UNL     1       0.501  19.959  13.459  1.00  0.00    -0.391 OA
ATOM     37  H1  UNL     1      -0.336  19.732  13.070  1.00  0.00     0.210 HD
ENDBRANCH   3  36
BRANCH  14  38
HETATM   38  O7  UNL     1       0.311  24.532  14.420  1.00  0.00    -0.391 OA
ATOM     39  H7  UNL     1      -0.525  24.321  14.818  1.00  0.00     0.210 HD
ENDBRANCH  14  38
TORSDOF 12
ENDMDL