MODEL 2
REMARK VINA RESULT: -6.551757524      3.307      6.626
REMARK  13 active torsions:
REMARK  status: ('A' for Active; 'I' for Inactive)
REMARK    1  A    between atoms: C4_4  and  C5_5
REMARK    2  A    between atoms: C8_8  and  O1_9
REMARK    3  A    between atoms: C13_15  and  O2_16
REMARK    4  A    between atoms: O2_16  and  C14_17
REMARK    5  A    between atoms: C14_17  and  O4_19
REMARK    6  A    between atoms: O4_19  and  C15_20
REMARK    7  A    between atoms: C15_20  and  O5_21
REMARK    8  A    between atoms: C22_29  and  C23_30
REMARK    9  A    between atoms: C23_30  and  C24_31
REMARK   10  A    between atoms: C24_31  and  C25_32
REMARK   11  A    between atoms: C25_32  and  O6_33
REMARK   12  A    between atoms: C26_35  and  C27_36
REMARK   13  A    between atoms: C27_36  and  O7_37
ROOT
HETATM    1  C1  UNL     1      -0.422  25.298  16.411  1.00  0.00     0.020 C
HETATM    2  C2  UNL     1      -0.025  24.064  16.612  1.00  0.00    -0.056 C
HETATM    3  C3  UNL     1      -0.983  22.950  16.540  1.00  0.00    -0.044 C
HETATM    4  C4  UNL     1      -2.127  22.980  17.136  1.00  0.00     0.009 C
HETATM    5  C17 UNL     1      -0.558  21.718  15.804  1.00  0.00    -0.020 C
HETATM    6  C18 UNL     1      -1.463  20.548  16.110  1.00  0.00     0.020 C
HETATM    7  C19 UNL     1      -0.574  21.936  14.319  1.00  0.00     0.020 C
HETATM    8  C20 UNL     1       0.856  21.346  16.220  1.00  0.00     0.014 C
HETATM    9  C21 UNL     1       1.352  22.241  17.339  1.00  0.00     0.010 C
HETATM   10  C22 UNL     1       1.363  23.723  16.892  1.00  0.00     0.019 C
ENDROOT
BRANCH   4  11
HETATM   11  C5  UNL     1      -2.715  23.991  17.956  1.00  0.00     0.004 C
HETATM   12  C6  UNL     1      -2.472  24.116  19.262  1.00  0.00    -0.075 C
HETATM   13  C7  UNL     1      -3.188  25.228  19.901  1.00  0.00     0.066 C
HETATM   14  C16 UNL     1      -1.530  23.104  19.764  1.00  0.00     0.067 C
HETATM   15  C8  UNL     1      -4.009  24.852  21.081  1.00  0.00     0.126 C
HETATM   16  C9  UNL     1      -3.644  23.558  21.747  1.00  0.00     0.017 C
HETATM   17  C10 UNL     1      -4.208  22.331  21.081  1.00  0.00     0.013 C
HETATM   18  C11 UNL     1      -2.226  23.435  22.181  1.00  0.00     0.017 C
HETATM   19  C12 UNL     1      -2.138  22.215  23.096  1.00  0.00     0.013 C
HETATM   20  C13 UNL     1      -1.161  23.481  21.175  1.00  0.00     0.142 C
BRANCH  15  21
HETATM   21  O1  UNL     1      -4.025  25.846  22.059  1.00  0.00    -0.395 OA
ATOM     22  H1  UNL     1      -4.850  26.316  22.088  1.00  0.00     0.210 HD
ENDBRANCH  15  21
BRANCH  20  23
HETATM   23  O2  UNL     1      -0.139  22.568  21.573  1.00  0.00    -0.292 OA
BRANCH  23  24
HETATM   24  C14 UNL     1       1.179  22.954  21.751  1.00  0.00     0.408 C
HETATM   25  O3  UNL     1       1.556  23.419  22.872  1.00  0.00    -0.229 OA
BRANCH  24  26
HETATM   26  O4  UNL     1       2.096  22.846  20.741  1.00  0.00    -0.273 OA
BRANCH  26  27
HETATM   27  C15 UNL     1       2.945  23.894  20.322  1.00  0.00     0.347 C
BRANCH  27  28
HETATM   28  O5  UNL     1       4.048  23.971  21.152  1.00  0.00    -0.377 OA
ATOM     29  H5  UNL     1       4.486  24.805  21.033  1.00  0.00     0.212 HD
ENDBRANCH  27  28
ENDBRANCH  26  27
ENDBRANCH  24  26
ENDBRANCH  23  24
ENDBRANCH  20  23
ENDBRANCH   4  11
BRANCH  10  30
HETATM   30  C23 UNL     1       2.375  23.893  15.824  1.00  0.00     0.016 C
BRANCH  30  31
HETATM   31  C24 UNL     1       3.601  24.646  16.235  1.00  0.00     0.065 C
BRANCH  31  32
HETATM   32  C25 UNL     1       4.649  23.665  16.687  1.00  0.00     0.041 C
HETATM   33  C26 UNL     1       5.558  23.971  17.557  1.00  0.00     0.031 C
BRANCH  32  34
HETATM   34  O6  UNL     1       4.614  22.367  16.123  1.00  0.00    -0.365 OA
ATOM     35  H6  UNL     1       5.370  21.808  16.263  1.00  0.00     0.217 HD
ENDBRANCH  32  34
BRANCH  33  36
HETATM   36  C27 UNL     1       5.754  25.246  18.245  1.00  0.00     0.196 C
BRANCH  36  37
HETATM   37  O7  UNL     1       6.246  25.049  19.512  1.00  0.00    -0.392 OA
HETATM   38  C28 UNL     1       7.434  24.346  19.491  1.00  0.00     0.201 C
ENDBRANCH  36  37
ENDBRANCH  33  36
ENDBRANCH  31  32
ENDBRANCH  30  31
ENDBRANCH  10  30
TORSDOF 13
ENDMDL