MODEL 5
REMARK VINA RESULT: -3.179947338      2.181      7.021
REMARK  11 active torsions:
REMARK  status: ('A' for Active; 'I' for Inactive)
REMARK    1  A    between atoms: N1_2  and  C2_4
REMARK    2  A    between atoms: C5_7  and  O1_8
REMARK    3  A    between atoms: C8_12  and  N2_13
REMARK    4  A    between atoms: N2_13  and  O2_14
REMARK    5  A    between atoms: N2_13  and  C9_16
REMARK    6  A    between atoms: N3_20  and  O4_22
REMARK    7  A    between atoms: O4_22  and  C12_23
REMARK    8  A    between atoms: C12_23  and  C13_24
REMARK    9  A    between atoms: C13_24  and  O5_25
REMARK   10  A    between atoms: C13_24  and  C14_27
REMARK   11  A    between atoms: C14_27  and  O6_28
ROOT
HETATM    1  C2  UNL     1      18.904   8.531  16.337  1.00  0.00     0.089 A
HETATM    2  C3  UNL     1      18.625   9.040  15.152  1.00  0.00     0.002 A
HETATM    3  C4  UNL     1      17.701  10.203  15.088  1.00  0.00     0.054 C
HETATM    4  C5  UNL     1      19.210   8.474  13.939  1.00  0.00     0.082 A
HETATM    5  C6  UNL     1      20.037   7.440  13.938  1.00  0.00     0.009 A
HETATM    6  C7  UNL     1      20.466   7.092  12.559  1.00  0.00     0.072 C
HETATM    7  C8  UNL     1      20.660   5.585  12.518  1.00  0.00     0.128 C
HETATM    8  C10 UNL     1      22.046   5.290  13.060  1.00  0.00     0.106 C
HETATM    9  C11 UNL     1      21.899   5.039  14.526  1.00  0.00     0.104 C
HETATM   10  N3  UNL     1      22.514   4.002  14.918  1.00  0.00    -0.254 N
ATOM     11  H3  UNL     1      23.026   3.469  14.215  1.00  0.00     0.195 HD
HETATM   12  N4  UNL     1      21.186   5.801  15.455  1.00  0.00    -0.341 N
ATOM     13  H4  UNL     1      21.289   5.539  16.436  1.00  0.00     0.167 HD
HETATM   14  C15 UNL     1      20.402   6.812  15.199  1.00  0.00     0.095 A
HETATM   15  C16 UNL     1      19.820   7.374  16.412  1.00  0.00     0.226 A
HETATM   16  O7  UNL     1      20.061   6.922  17.539  1.00  0.00    -0.283 OA
ENDROOT
BRANCH  10  17
HETATM   17  O4  UNL     1      22.549   3.548  16.172  1.00  0.00    -0.276 OA
BRANCH  17  18
HETATM   18  C12 UNL     1      22.299   2.280  16.682  1.00  0.00     0.235 C
BRANCH  18  19
HETATM   19  C13 UNL     1      22.762   2.242  18.128  1.00  0.00     0.167 C
BRANCH  19  20
HETATM   20  O5  UNL     1      21.909   3.070  18.891  1.00  0.00    -0.391 OA
ATOM     21  H5  UNL     1      21.144   2.565  19.139  1.00  0.00     0.210 HD
ENDBRANCH  19  20
BRANCH  19  22
HETATM   22  C14 UNL     1      24.140   2.847  18.201  1.00  0.00     0.198 C
BRANCH  22  23
HETATM   23  O6  UNL     1      24.996   2.186  17.339  1.00  0.00    -0.398 OA
ATOM     24  H6  UNL     1      25.134   1.294  17.635  1.00  0.00     0.209 HD
ENDBRANCH  22  23
ENDBRANCH  19  22
ENDBRANCH  18  19
ENDBRANCH  17  18
ENDBRANCH  10  17
BRANCH   7  25
HETATM   25  N2  UNL     1      20.521   5.055  11.201  1.00  0.00    -0.231 N
BRANCH  25  26
HETATM   26  O2  UNL     1      21.171   3.920  10.864  1.00  0.00    -0.285 OA
ATOM     27  H2  UNL     1      21.380   3.281  11.535  1.00  0.00     0.245 HD
ENDBRANCH  25  26
BRANCH  25  28
HETATM   28  C9  UNL     1      19.713   5.679  10.207  1.00  0.00     0.377 C
HETATM   29  O3  UNL     1      20.056   5.684   8.999  1.00  0.00    -0.281 OA
ENDBRANCH  25  28
ENDBRANCH   7  25
BRANCH   4  30
HETATM   30  O1  UNL     1      18.838   9.103  12.734  1.00  0.00    -0.359 OA
ATOM     31  H1  UNL     1      18.472   9.976  12.823  1.00  0.00     0.217 HD
ENDBRANCH   4  30
BRANCH   1  32
HETATM   32  N1  UNL     1      18.345   9.065  17.542  1.00  0.00    -0.391 N
HETATM   33  C1  UNL     1      16.933   9.037  17.821  1.00  0.00     0.146 C
ATOM     34  H1  UNL     1      18.973   9.481  18.231  1.00  0.00     0.159 HD
ENDBRANCH   1  32
TORSDOF 11
ENDMDL