MODEL 3
REMARK VINA RESULT: -7.827871441      3.777      5.307
REMARK  8 active torsions:
REMARK  status: ('A' for Active; 'I' for Inactive)
REMARK    1  A    between atoms: C5_9  and  N3_10
REMARK    2  A    between atoms: N4_13  and  C6_14
REMARK    3  A    between atoms: C6_14  and  C7_15
REMARK    4  A    between atoms: C7_15  and  N5_16
REMARK    5  A    between atoms: N5_16  and  C8_18
REMARK    6  A    between atoms: C8_18  and  C9_19
REMARK    7  A    between atoms: C9_19  and  O2_20
REMARK    8  A    between atoms: O2_20  and  C10_21
ROOT
HETATM    1  C1  UNL     1      14.443  12.824  14.203  1.00  0.00     0.164 C
HETATM    2  N1  UNL     1      15.111  12.096  15.275  1.00  0.00    -0.269 N
HETATM    3  C2  UNL     1      16.206  11.350  15.015  1.00  0.00     0.282 A
HETATM    4  O1  UNL     1      16.653  11.279  13.842  1.00  0.00    -0.265 OA
HETATM    5  C3  UNL     1      16.827  10.668  16.042  1.00  0.00     0.164 A
HETATM    6  C4  UNL     1      16.329  10.749  17.340  1.00  0.00     0.160 A
HETATM    7  N2  UNL     1      17.110   9.998  18.147  1.00  0.00    -0.174 N
ATOM      8  H2  UNL     1      16.979   9.873  19.150  1.00  0.00     0.186 HD
HETATM    9  C5  UNL     1      18.086   9.444  17.410  1.00  0.00     0.680 A
HETATM   10  N4  UNL     1      17.910   9.852  16.142  1.00  0.00    -0.173 N
HETATM   11  N8  UNL     1      15.243  11.500  17.549  1.00  0.00    -0.287 N
HETATM   12  C15 UNL     1      14.689  11.614  18.892  1.00  0.00     0.163 C
HETATM   13  C16 UNL     1      14.646  12.161  16.534  1.00  0.00     0.332 A
HETATM   14  O4  UNL     1      13.621  12.857  16.792  1.00  0.00    -0.246 OA
ENDROOT
BRANCH  10  15
HETATM   15  C6  UNL     1      18.730   9.506  14.985  1.00  0.00     0.167 C
BRANCH  15  16
HETATM   16  C7  UNL     1      18.611   8.038  14.718  1.00  0.00     0.134 C
BRANCH  16  17
HETATM   17  N5  UNL     1      19.840   7.335  14.627  1.00  0.00    -0.418 N
ATOM     18  H5  UNL     1      20.307   6.970  15.457  1.00  0.00     0.153 HD
BRANCH  17  19
HETATM   19  C8  UNL     1      20.397   7.161  13.325  1.00  0.00     0.140 C
BRANCH  19  20
HETATM   20  C9  UNL     1      20.616   5.714  12.944  1.00  0.00     0.196 C
BRANCH  20  21
HETATM   21  O2  UNL     1      20.977   5.484  11.655  1.00  0.00    -0.334 OA
BRANCH  21  22
HETATM   22  C10 UNL     1      20.357   4.998  10.555  1.00  0.00     0.144 A
HETATM   23  C11 UNL     1      19.186   5.523  10.075  1.00  0.00     0.058 A
HETATM   24  C12 UNL     1      18.540   5.028   8.935  1.00  0.00     0.036 A
HETATM   25  C13 UNL     1      19.109   3.981   8.285  1.00  0.00     0.114 A
HETATM   26  N6  UNL     1      18.515   3.423   7.118  1.00  0.00    -0.097 NA
HETATM   27  C14 UNL     1      20.279   3.453   8.762  1.00  0.00     0.271 A
HETATM   28  O3  UNL     1      20.787   2.470   8.129  1.00  0.00    -0.266 OA
HETATM   29  N7  UNL     1      20.876   3.943   9.851  1.00  0.00    -0.302 N
ATOM     30  H7  UNL     1      21.748   3.518  10.168  1.00  0.00     0.171 HD
ENDBRANCH  21  22
ENDBRANCH  20  21
ENDBRANCH  19  20
ENDBRANCH  17  19
ENDBRANCH  16  17
ENDBRANCH  15  16
ENDBRANCH  10  15
BRANCH   9  31
HETATM   31  N3  UNL     1      19.028   8.658  17.860  1.00  0.00    -0.234 N
ATOM     32  H32 UNL     1      19.318   8.541  18.832  1.00  0.00     0.174 HD
ATOM     33  H31 UNL     1      19.611   8.042  17.293  1.00  0.00     0.174 HD
ENDBRANCH   9  31
TORSDOF 8
ENDMDL