MODEL 2
REMARK VINA RESULT: -8.255188091      1.636      2.214
REMARK  11 active torsions:
REMARK  status: ('A' for Active; 'I' for Inactive)
REMARK    1  A    between atoms: C2_2  and  N1_3
REMARK    2  A    between atoms: N1_3  and  C4_5
REMARK    3  A    between atoms: C4_5  and  C5_6
REMARK    4  A    between atoms: N2_9  and  N3_10
REMARK    5  A    between atoms: C8_13  and  N4_14
REMARK    6  A    between atoms: N4_14  and  C9_16
REMARK    7  A    between atoms: C9_16  and  C10_17
REMARK    8  A    between atoms: C10_17  and  N5_18
REMARK    9  A    between atoms: N5_18  and  C11_20
REMARK   10  A    between atoms: C14_26  and  O2_27
REMARK   11  A    between atoms: N8_31  and  O3_32
ROOT
HETATM    1  C5  UNL     1      20.751   5.697   9.634  1.00  0.00     0.066 A
HETATM    2  C6  UNL     1      19.779   5.728  10.607  1.00  0.00     0.061 A
HETATM    3  C7  UNL     1      18.407   5.361  10.295  1.00  0.00     0.072 C
HETATM    4  N2  UNL     1      20.134   6.115  11.836  1.00  0.00    -0.095 N
HETATM    5  C8  UNL     1      21.349   6.479  12.198  1.00  0.00     0.732 A
HETATM    6  N8  UNL     1      22.319   6.469  11.234  1.00  0.00    -0.011 N
HETATM    7  C15 UNL     1      22.013   6.081   9.975  1.00  0.00     0.298 A
HETATM    8  O4  UNL     1      22.944   6.083   9.089  1.00  0.00    -0.264 OA
ENDROOT
BRANCH   5   9
HETATM    9  N4  UNL     1      21.775   6.659  13.372  1.00  0.00    -0.200 N
ATOM     10  H4  UNL     1      21.942   7.638  13.605  1.00  0.00     0.183 HD
BRANCH   9  11
HETATM   11  C9  UNL     1      22.057   5.788  14.396  1.00  0.00     0.098 C
BRANCH  11  12
HETATM   12  C10 UNL     1      20.949   5.425  15.334  1.00  0.00     0.166 C
BRANCH  12  13
HETATM   13  N5  UNL     1      21.593   4.830  16.546  1.00  0.00    -0.371 N
ATOM     14  H5  UNL     1      21.536   5.321  17.438  1.00  0.00     0.161 HD
BRANCH  13  15
HETATM   15  C11 UNL     1      22.266   3.627  16.473  1.00  0.00     0.109 A
HETATM   16  C12 UNL     1      23.482   3.357  16.975  1.00  0.00     0.122 A
HETATM   17  C13 UNL     1      24.055   2.081  17.087  1.00  0.00     0.251 A
HETATM   18  O1  UNL     1      25.171   1.890  17.557  1.00  0.00    -0.268 OA
HETATM   19  N6  UNL     1      23.296   1.005  16.640  1.00  0.00    -0.289 N
HETATM   20  C14 UNL     1      22.080   1.317  16.141  1.00  0.00     0.225 A
ATOM     21  H6  UNL     1      23.635   0.044  16.686  1.00  0.00     0.172 HD
HETATM   22  N7  UNL     1      21.543   2.511  16.028  1.00  0.00    -0.308 N
ATOM     23  H7  UNL     1      20.613   2.625  15.622  1.00  0.00     0.171 HD
BRANCH  20  24
HETATM   24  O2  UNL     1      21.392   0.283  15.734  1.00  0.00    -0.332 OA
ATOM     25  H2  UNL     1      20.494   0.485  15.498  1.00  0.00     0.221 HD
ENDBRANCH  20  24
ENDBRANCH  13  15
ENDBRANCH  12  13
ENDBRANCH  11  12
ENDBRANCH   9  11
ENDBRANCH   5   9
BRANCH   4  26
HETATM   26  N3  UNL     1      19.104   6.042  12.787  1.00  0.00    -0.324 N
ATOM     27  H32 UNL     1      18.179   5.705  12.519  1.00  0.00     0.178 HD
ATOM     28  H31 UNL     1      19.357   6.395  13.710  1.00  0.00     0.178 HD
ENDBRANCH   4  26
BRANCH   6  29
HETATM   29  O3  UNL     1      23.612   6.815  11.491  1.00  0.00    -0.266 OA
ATOM     30  H3  UNL     1      24.291   6.170  11.657  1.00  0.00     0.246 HD
ENDBRANCH   6  29
BRANCH   1  31
HETATM   31  C4  UNL     1      20.298   5.246   8.300  1.00  0.00     0.318 C
BRANCH  31  32
HETATM   32  N1  UNL     1      19.545   3.968   8.394  1.00  0.00     0.088 N
HETATM   33  C3  UNL     1      18.760   3.735   7.183  1.00  0.00     0.310 C
BRANCH  32  34
HETATM   34  C2  UNL     1      20.576   2.905   8.280  1.00  0.00     0.268 C
HETATM   35  C1  UNL     1      20.056   1.587   7.910  1.00  0.00     0.037 C
ENDBRANCH  32  34
ENDBRANCH  31  32
ENDBRANCH   1  31
TORSDOF 11
ENDMDL