MODEL 2
REMARK VINA RESULT: -6.780706918      1.581      2.291
REMARK  10 active torsions:
REMARK  status: ('A' for Active; 'I' for Inactive)
REMARK    1  A    between atoms: O1_2  and  C2_3
REMARK    2  A    between atoms: C2_3  and  C3_5
REMARK    3  A    between atoms: C3_5  and  O3_6
REMARK    4  A    between atoms: N2_14  and  C7_15
REMARK    5  A    between atoms: C7_15  and  C8_16
REMARK    6  A    between atoms: C8_16  and  C9_17
REMARK    7  A    between atoms: C8_16  and  C14_29
REMARK    8  A    between atoms: C9_17  and  O4_18
REMARK    9  A    between atoms: O4_18  and  C10_19
REMARK   10  A    between atoms: C11_22  and  N4_23
ROOT
HETATM    1  C8  UNL     1      20.764   5.849  13.562  1.00  0.00     0.138 C
ENDROOT
BRANCH   1   2
HETATM    2  C7  UNL     1      21.737   5.221  12.600  1.00  0.00     0.084 C
BRANCH   2   3
HETATM    3  N2  UNL     1      21.619   5.486  11.257  1.00  0.00    -0.310 N
HETATM    4  C3  UNL     1      20.630   4.706  10.578  1.00  0.00     0.398 C
HETATM    5  N1  UNL     1      21.100   4.265   9.283  1.00  0.00    -0.013 N
HETATM    6  C4  UNL     1      21.388   5.371   8.438  1.00  0.00     0.244 C
ATOM      7  H12 UNL     1      21.901   3.639   9.368  1.00  0.00     0.283 HD
ATOM      8  H11 UNL     1      20.443   3.619   8.845  1.00  0.00     0.283 HD
HETATM    9  C5  UNL     1      22.213   6.397   9.097  1.00  0.00     0.072 C
HETATM   10  C6  UNL     1      22.650   6.025  10.494  1.00  0.00     0.070 C
BRANCH   4  11
HETATM   11  C2  UNL     1      19.305   5.339  10.492  1.00  0.00     0.345 C
HETATM   12  O2  UNL     1      19.116   6.473  10.969  1.00  0.00    -0.257 OA
BRANCH  11  13
HETATM   13  O1  UNL     1      18.231   4.714   9.889  1.00  0.00    -0.321 OA
HETATM   14  C1  UNL     1      17.745   5.041   8.605  1.00  0.00     0.213 C
ENDBRANCH  11  13
ENDBRANCH   4  11
BRANCH   4  15
HETATM   15  O3  UNL     1      20.396   3.489  11.300  1.00  0.00    -0.341 OA
ATOM     16  H3  UNL     1      20.788   2.815  10.758  1.00  0.00     0.215 HD
ENDBRANCH   4  15
ENDBRANCH   2   3
ENDBRANCH   1   2
BRANCH   1  17
HETATM   17  C9  UNL     1      21.056   5.342  14.997  1.00  0.00     0.196 C
BRANCH  17  18
HETATM   18  O4  UNL     1      22.238   4.606  14.883  1.00  0.00    -0.334 OA
BRANCH  18  19
HETATM   19  C10 UNL     1      22.654   3.634  15.828  1.00  0.00     0.157 A
HETATM   20  N3  UNL     1      22.075   2.470  15.967  1.00  0.00    -0.317 N
HETATM   21  C11 UNL     1      22.545   1.631  16.886  1.00  0.00     0.144 A
ATOM     22  H3  UNL     1      21.279   2.211  15.384  1.00  0.00     0.170 HD
HETATM   23  S1  UNL     1      23.841   2.494  17.578  1.00  0.00    -0.055 SA
HETATM   24  C12 UNL     1      23.717   3.918  16.641  1.00  0.00     0.033 A
HETATM   25  C13 UNL     1      24.551   5.172  16.681  1.00  0.00     0.061 C
BRANCH  21  26
HETATM   26  N4  UNL     1      22.119   0.425  17.191  1.00  0.00    -0.380 N
ATOM     27  H42 UNL     1      22.397  -0.464  16.777  1.00  0.00     0.158 HD
ATOM     28  H41 UNL     1      21.433   0.152  17.896  1.00  0.00     0.158 HD
ENDBRANCH  21  26
ENDBRANCH  18  19
ENDBRANCH  17  18
ENDBRANCH   1  17
BRANCH   1  29
HETATM   29  C14 UNL     1      21.035   7.316  13.673  1.00  0.00     0.242 C
HETATM   30  N5  UNL     1      19.950   8.172  13.939  1.00  0.00    -0.061 NA
HETATM   31  O5  UNL     1      22.200   7.723  13.525  1.00  0.00    -0.276 OA
ENDBRANCH   1  29
TORSDOF 10
ENDMDL