MODEL 5
REMARK VINA RESULT: -2.075384159      7.137      9.788
REMARK  10 active torsions:
REMARK  status: ('A' for Active; 'I' for Inactive)
REMARK    1  A    between atoms: C2_2  and  C3_3
REMARK    2  A    between atoms: C3_3  and  N1_4
REMARK    3  A    between atoms: C4_5  and  C5_6
REMARK    4  A    between atoms: C10_19  and  N5_20
REMARK    5  A    between atoms: C11_23  and  N6_24
REMARK    6  A    between atoms: N7_27  and  C12_28
REMARK    7  A    between atoms: C12_28  and  O3_29
REMARK    8  A    between atoms: O3_29  and  C13_30
REMARK    9  A    between atoms: C13_30  and  C14_31
REMARK   10  A    between atoms: C14_31  and  O4_32
ROOT
HETATM    1  N1  UNL     1      20.912   5.700  13.208  1.00  0.00    -0.297 N
HETATM    2  C4  UNL     1      22.233   5.805  13.324  1.00  0.00     0.102 A
HETATM    3  N3  UNL     1      22.974   5.923  12.210  1.00  0.00    -0.329 N
ATOM      4  H3  UNL     1      23.988   6.004  12.287  1.00  0.00     0.168 HD
HETATM    5  C9  UNL     1      22.400   5.935  11.001  1.00  0.00     0.141 A
HETATM    6  N4  UNL     1      23.148   6.057   9.884  1.00  0.00    -0.324 N
ATOM      7  H4  UNL     1      24.161   6.139   9.968  1.00  0.00     0.169 HD
HETATM    8  C10 UNL     1      22.587   6.073   8.669  1.00  0.00     0.145 A
HETATM    9  C11 UNL     1      21.214   5.963   8.561  1.00  0.00     0.152 A
HETATM   10  N7  UNL     1      20.394   5.835   9.653  1.00  0.00    -0.277 N
HETATM   11  C15 UNL     1      21.008   5.825  10.848  1.00  0.00     0.155 A
HETATM   12  C16 UNL     1      20.274   5.706  12.005  1.00  0.00     0.280 A
HETATM   13  O5  UNL     1      19.038   5.607  11.939  1.00  0.00    -0.265 OA
ENDROOT
BRANCH   2  14
HETATM   14  C5  UNL     1      22.864   5.787  14.662  1.00  0.00     0.154 C
HETATM   15  C6  UNL     1      24.392   5.868  14.547  1.00  0.00     0.125 C
HETATM   16  C7  UNL     1      24.804   5.353  15.880  1.00  0.00     0.225 C
HETATM   17  O1  UNL     1      25.817   5.692  16.554  1.00  0.00    -0.273 OA
HETATM   18  N2  UNL     1      23.805   4.383  16.240  1.00  0.00    -0.297 N
HETATM   19  C8  UNL     1      22.746   4.424  15.294  1.00  0.00     0.236 C
ATOM     20  H2  UNL     1      23.850   3.763  17.049  1.00  0.00     0.171 HD
HETATM   21  O2  UNL     1      21.928   3.503  15.075  1.00  0.00    -0.272 OA
ENDBRANCH   2  14
BRANCH   1  22
HETATM   22  C3  UNL     1      19.981   5.575  14.327  1.00  0.00     0.160 C
BRANCH  22  23
HETATM   23  C2  UNL     1      19.801   6.885  15.014  1.00  0.00    -0.017 C
HETATM   24  C1  UNL     1      19.590   8.011  14.374  1.00  0.00     0.008 C
ENDBRANCH  22  23
ENDBRANCH   1  22
BRANCH  10  25
HETATM   25  C12 UNL     1      18.970   5.722   9.492  1.00  0.00     0.235 C
BRANCH  25  26
HETATM   26  O3  UNL     1      18.549   4.680   8.718  1.00  0.00    -0.344 OA
BRANCH  26  27
HETATM   27  C13 UNL     1      19.033   3.471   9.167  1.00  0.00     0.202 C
BRANCH  27  28
HETATM   28  C14 UNL     1      19.651   2.661   8.057  1.00  0.00     0.191 C
BRANCH  28  29
HETATM   29  O4  UNL     1      21.057   2.720   8.201  1.00  0.00    -0.399 OA
ATOM     30  H4  UNL     1      21.449   2.502   7.363  1.00  0.00     0.209 HD
ENDBRANCH  28  29
ENDBRANCH  27  28
ENDBRANCH  26  27
ENDBRANCH  25  26
ENDBRANCH  10  25
BRANCH   8  31
HETATM   31  N5  UNL     1      23.338   6.191   7.639  1.00  0.00    -0.382 N
ATOM     32  H52 UNL     1      23.207   5.611   6.809  1.00  0.00     0.157 HD
ATOM     33  H51 UNL     1      24.085   6.886   7.647  1.00  0.00     0.157 HD
ENDBRANCH   8  31
BRANCH   9  34
HETATM   34  N6  UNL     1      20.651   5.979   7.392  1.00  0.00    -0.382 N
ATOM     35  H62 UNL     1      19.740   5.530   7.304  1.00  0.00     0.157 HD
ATOM     36  H61 UNL     1      21.118   6.432   6.605  1.00  0.00     0.157 HD
ENDBRANCH   9  34
TORSDOF 10
ENDMDL