MODEL 1
REMARK VINA RESULT: -8.877825497      0.000      0.000
REMARK  8 active torsions:
REMARK  status: ('A' for Active; 'I' for Inactive)
REMARK    1  A    between atoms: N1_1  and  C1_4
REMARK    2  A    between atoms: C2_7  and  N3_8
REMARK    3  A    between atoms: N4_11  and  C5_12
REMARK    4  A    between atoms: C5_12  and  N5_13
REMARK    5  A    between atoms: N5_13  and  C6_16
REMARK    6  A    between atoms: C6_16  and  C7_17
REMARK    7  A    between atoms: C7_17  and  N6_18
REMARK    8  A    between atoms: C14_30  and  N9_31
ROOT
HETATM    1  N3  UNL     1      16.840   9.748  16.842  1.00  0.00    -0.362 N
HETATM    2  C3  UNL     1      16.529  10.177  15.491  1.00  0.00     0.144 C
HETATM    3  C4  UNL     1      17.728  10.175  14.584  1.00  0.00     0.138 C
HETATM    4  N4  UNL     1      18.561   9.039  14.715  1.00  0.00    -0.388 N
HETATM    5  C12 UNL     1      18.847   8.601  16.057  1.00  0.00     0.138 C
HETATM    6  C13 UNL     1      18.204   9.459  17.134  1.00  0.00     0.144 C
ENDROOT
BRANCH   4   7
HETATM    7  C5  UNL     1      19.720   9.023  13.864  1.00  0.00     0.352 C
BRANCH   7   8
HETATM    8  N5  UNL     1      20.403   7.756  14.060  1.00  0.00    -0.058 N
ATOM      9  H52 UNL     1      21.413   7.890  14.110  1.00  0.00     0.279 HD
ATOM     10  H51 UNL     1      20.237   7.394  14.999  1.00  0.00     0.279 HD
BRANCH   8  11
HETATM   11  C6  UNL     1      20.062   6.772  13.057  1.00  0.00     0.255 C
BRANCH  11  12
HETATM   12  C7  UNL     1      21.279   6.392  12.252  1.00  0.00     0.174 C
BRANCH  12  13
HETATM   13  N6  UNL     1      20.867   6.014  10.905  1.00  0.00    -0.192 N
HETATM   14  C8  UNL     1      19.561   5.766  10.661  1.00  0.00     0.110 A
HETATM   15  C9  UNL     1      19.125   5.405   9.396  1.00  0.00     0.035 A
HETATM   16  C10 UNL     1      20.056   5.306   8.397  1.00  0.00     0.107 A
HETATM   17  N7  UNL     1      21.347   5.546   8.625  1.00  0.00    -0.202 N
HETATM   18  C11 UNL     1      21.733   5.900   9.887  1.00  0.00     0.677 A
ATOM     19  H7  UNL     1      22.032   5.468   7.873  1.00  0.00     0.183 HD
HETATM   20  N8  UNL     1      22.995   6.140  10.084  1.00  0.00    -0.234 N
ATOM     21  H82 UNL     1      23.283   6.403  11.027  1.00  0.00     0.174 HD
ATOM     22  H81 UNL     1      23.653   6.053   9.310  1.00  0.00     0.174 HD
ENDBRANCH  12  13
ENDBRANCH  11  12
ENDBRANCH   8  11
ENDBRANCH   7   8
ENDBRANCH   4   7
BRANCH   1  23
HETATM   23  C2  UNL     1      15.741   9.658  17.721  1.00  0.00     0.158 A
HETATM   24  N2  UNL     1      15.165   8.428  17.962  1.00  0.00    -0.174 N
HETATM   25  C1  UNL     1      14.127   8.241  18.749  1.00  0.00     0.680 A
ATOM     26  H2  UNL     1      15.568   7.612  17.502  1.00  0.00     0.186 HD
HETATM   27  N10 UNL     1      13.554   9.274  19.384  1.00  0.00    -0.154 N
HETATM   28  C15 UNL     1      14.069  10.500  19.192  1.00  0.00     0.296 A
ATOM     29  H10 UNL     1      12.751   9.133  19.996  1.00  0.00     0.187 HD
HETATM   30  C14 UNL     1      15.162  10.716  18.366  1.00  0.00     0.215 A
HETATM   31  O3  UNL     1      13.528  11.468  19.787  1.00  0.00    -0.265 OA
BRANCH  25  32
HETATM   32  N1  UNL     1      13.672   7.026  18.872  1.00  0.00    -0.234 N
ATOM     33  H12 UNL     1      14.112   6.351  19.497  1.00  0.00     0.174 HD
ATOM     34  H11 UNL     1      12.847   6.773  18.329  1.00  0.00     0.174 HD
ENDBRANCH  25  32
BRANCH  30  35
HETATM   35  N9  UNL     1      15.663  12.023  18.200  1.00  0.00    -0.106 N
HETATM   36  O1  UNL     1      15.125  12.747  17.324  1.00  0.00    -0.531 OA
HETATM   37  O2  UNL     1      16.708  12.515  18.938  1.00  0.00    -0.531 OA
ENDBRANCH  30  35
ENDBRANCH   1  23
TORSDOF 8
ENDMDL