MODEL 1
REMARK VINA RESULT: -4.574960635      0.000      0.000
REMARK  11 active torsions:
REMARK  status: ('A' for Active; 'I' for Inactive)
REMARK       I    between atoms: N1_2  and  C2_4
REMARK    1  A    between atoms: C2_4  and  C3_6
REMARK    2  A    between atoms: C4_7  and  O2_8
REMARK    3  A    between atoms: C5_10  and  N2_11
REMARK    4  A    between atoms: N3_16  and  C9_17
REMARK    5  A    between atoms: C9_17  and  O3_18
REMARK    6  A    between atoms: C10_20  and  N4_21
REMARK    7  A    between atoms: N4_21  and  C11_23
REMARK    8  A    between atoms: C11_23  and  C12_24
REMARK    9  A    between atoms: C12_24  and  N5_25
REMARK   10  A    between atoms: N5_25  and  S2_27
REMARK   11  A    between atoms: S2_27  and  N6_28
ROOT
HETATM    1  C3  UNL     1      15.635  11.389  15.299  1.00  0.00     0.111 A
HETATM    2  C4  UNL     1      14.760  11.834  16.254  1.00  0.00     0.115 A
HETATM    3  C5  UNL     1      14.744  11.254  17.516  1.00  0.00     0.103 A
HETATM    4  C8  UNL     1      15.615  10.247  17.766  1.00  0.00     0.139 A
HETATM    5  S1  UNL     1      15.565   9.585  19.288  1.00  0.00    -0.057 SA
HETATM    6  N3  UNL     1      16.507   9.771  16.836  1.00  0.00    -0.276 N
HETATM    7  C10 UNL     1      16.534  10.320  15.605  1.00  0.00     0.129 A
ENDROOT
BRANCH   7   8
HETATM    8  N4  UNL     1      17.340   9.804  14.583  1.00  0.00    -0.373 N
ATOM      9  H4  UNL     1      16.816   9.336  13.843  1.00  0.00     0.161 HD
BRANCH   8  10
HETATM   10  C11 UNL     1      18.753   9.806  14.375  1.00  0.00     0.141 C
BRANCH  10  11
HETATM   11  C12 UNL     1      19.281   8.341  14.261  1.00  0.00     0.153 C
BRANCH  11  12
HETATM   12  N5  UNL     1      20.671   8.375  13.850  1.00  0.00    -0.301 N
ATOM     13  H5  UNL     1      21.246   9.216  13.810  1.00  0.00     0.173 HD
BRANCH  12  14
HETATM   14  S2  UNL     1      21.203   6.809  13.446  1.00  0.00     0.312 S
HETATM   15  O4  UNL     1      21.547   6.084  14.734  1.00  0.00    -0.183 OA
HETATM   16  O5  UNL     1      22.461   6.806  12.620  1.00  0.00    -0.183 OA
BRANCH  14  17
HETATM   17  N6  UNL     1      19.977   5.878  12.663  1.00  0.00    -0.312 N
ATOM     18  H62 UNL     1      19.057   6.253  12.431  1.00  0.00     0.170 HD
ATOM     19  H61 UNL     1      20.280   4.924  12.464  1.00  0.00     0.170 HD
ENDBRANCH  14  17
ENDBRANCH  12  14
ENDBRANCH  11  12
ENDBRANCH  10  11
ENDBRANCH   8  10
ENDBRANCH   7   8
BRANCH   1  20
HETATM   20  C2  UNL     1      15.657  12.068  14.013  1.00  0.00     0.257 C
HETATM   21  N1  UNL     1      14.525  12.108  13.159  1.00  0.00    -0.361 N
HETATM   22  C1  UNL     1      14.699  12.851  11.856  1.00  0.00     0.149 C
ATOM     23  H1  UNL     1      13.643  11.662  13.411  1.00  0.00     0.162 HD
HETATM   24  O1  UNL     1      16.697  12.680  13.558  1.00  0.00    -0.267 OA
ENDBRANCH   1  20
BRANCH   6  25
HETATM   25  C9  UNL     1      17.326   8.723  17.283  1.00  0.00     0.233 C
BRANCH  25  26
HETATM   26  O3  UNL     1      18.553   9.030  17.613  1.00  0.00    -0.356 OA
ATOM     27  H3  UNL     1      18.801   8.895  18.519  1.00  0.00     0.218 HD
ENDBRANCH  25  26
ENDBRANCH   6  25
BRANCH   2  28
HETATM   28  O2  UNL     1      13.845  12.857  16.063  1.00  0.00    -0.357 OA
ATOM     29  H2  UNL     1      12.992  12.900  16.477  1.00  0.00     0.217 HD
ENDBRANCH   2  28
BRANCH   3  30
HETATM   30  N2  UNL     1      13.836  11.709  18.525  1.00  0.00    -0.385 N
HETATM   31  C6  UNL     1      12.589  10.991  18.676  1.00  0.00     0.149 C
HETATM   32  C7  UNL     1      14.092  12.836  19.393  1.00  0.00     0.149 C
ENDBRANCH   3  30
TORSDOF 11
ENDMDL