MODEL 5
REMARK VINA RESULT: -4.332563856      2.919      6.595
REMARK  9 active torsions:
REMARK  status: ('A' for Active; 'I' for Inactive)
REMARK    1  A    between atoms: N1_2  and  C2_5
REMARK    2  A    between atoms: C2_5  and  C3_6
REMARK    3  A    between atoms: C3_6  and  C4_7
REMARK    4  A    between atoms: C4_7  and  N2_8
REMARK    5  A    between atoms: N2_8  and  C5_10
REMARK    6  A    between atoms: C6_13  and  N4_14
REMARK    7  A    between atoms: N4_14  and  N5_16
REMARK    8  A    between atoms: N5_16  and  C7_18
REMARK    9  A    between atoms: C9_24  and  C10_25
ROOT
HETATM    1  C5  UNL     1      20.205   6.427  13.143  1.00  0.00     0.136 A
HETATM    2  N3  UNL     1      19.231   6.359  12.225  1.00  0.00    -0.174 N
ATOM      3  H3  UNL     1      18.373   6.883  12.396  1.00  0.00     0.186 HD
HETATM    4  C6  UNL     1      19.322   5.630  11.076  1.00  0.00     0.699 A
HETATM    5  N6  UNL     1      20.418   4.937  10.820  1.00  0.00    -0.176 N
ATOM      6  H6  UNL     1      20.498   4.387   9.964  1.00  0.00     0.185 HD
HETATM    7  C8  UNL     1      21.425   4.972  11.708  1.00  0.00     0.148 A
HETATM    8  N7  UNL     1      22.594   4.212  11.393  1.00  0.00    -0.081 NA
HETATM    9  C9  UNL     1      21.389   5.682  12.869  1.00  0.00     0.080 A
ENDROOT
BRANCH   9  10
HETATM   10  C10 UNL     1      22.486   5.709  13.829  1.00  0.00     0.093 A
HETATM   11  N8  UNL     1      23.613   6.423  13.721  1.00  0.00    -0.283 N
HETATM   12  N9  UNL     1      24.342   6.189  14.766  1.00  0.00    -0.238 N
ATOM     13  H8  UNL     1      23.856   7.045  12.949  1.00  0.00     0.188 HD
HETATM   14  N10 UNL     1      23.724   5.337  15.560  1.00  0.00    -0.254 N
ATOM     15  H9  UNL     1      25.257   6.602  14.948  1.00  0.00     0.208 HD
HETATM   16  C11 UNL     1      22.560   5.011  15.013  1.00  0.00     0.085 A
HETATM   17  C15 UNL     1      24.459   5.000  16.775  1.00  0.00     0.318 C
HETATM   18  C12 UNL     1      21.418   4.113  15.398  1.00  0.00     0.229 C
HETATM   19  O2  UNL     1      21.558   3.705  16.706  1.00  0.00    -0.383 OA
HETATM   20  C13 UNL     1      22.462   2.645  16.803  1.00  0.00     0.194 C
HETATM   21  C14 UNL     1      23.622   3.081  17.707  1.00  0.00     0.196 C
HETATM   22  O3  UNL     1      24.586   3.618  16.867  1.00  0.00    -0.368 OA
ENDBRANCH   9  10
BRANCH   1  23
HETATM   23  N2  UNL     1      20.170   7.078  14.200  1.00  0.00    -0.355 N
ATOM     24  H2  UNL     1      20.998   6.833  14.743  1.00  0.00     0.166 HD
BRANCH  23  25
HETATM   25  C4  UNL     1      19.455   7.992  14.920  1.00  0.00     0.064 C
BRANCH  25  26
HETATM   26  C3  UNL     1      19.121   9.337  14.332  1.00  0.00     0.072 C
BRANCH  26  27
HETATM   27  C2  UNL     1      17.722   9.691  14.857  1.00  0.00     0.237 C
BRANCH  27  28
HETATM   28  N1  UNL     1      17.163   8.633  15.646  1.00  0.00    -0.079 N
HETATM   29  C1  UNL     1      16.289   9.116  16.694  1.00  0.00     0.267 C
ATOM     30  H12 UNL     1      17.896   8.036  16.028  1.00  0.00     0.276 HD
ATOM     31  H11 UNL     1      16.684   7.952  15.056  1.00  0.00     0.276 HD
ENDBRANCH  27  28
ENDBRANCH  26  27
ENDBRANCH  25  26
ENDBRANCH  23  25
ENDBRANCH   1  23
BRANCH   4  32
HETATM   32  N4  UNL     1      18.333   5.613  10.236  1.00  0.00    -0.130 N
ATOM     33  H4  UNL     1      17.378   5.758  10.563  1.00  0.00     0.205 HD
BRANCH  32  34
HETATM   34  N5  UNL     1      18.585   5.395   8.886  1.00  0.00    -0.263 N
ATOM     35  H5  UNL     1      19.170   6.062   8.383  1.00  0.00     0.190 HD
BRANCH  34  36
HETATM   36  C7  UNL     1      18.062   4.285   8.181  1.00  0.00     0.369 C
HETATM   37  O1  UNL     1      18.395   4.133   6.978  1.00  0.00    -0.282 OA
ENDBRANCH  34  36
ENDBRANCH  32  34
ENDBRANCH   4  32
TORSDOF 9
ENDMDL