MODEL 2
REMARK VINA RESULT: -3.193873186      4.154      6.918
REMARK  9 active torsions:
REMARK  status: ('A' for Active; 'I' for Inactive)
REMARK    1  A    between atoms: O1_2  and  C2_3
REMARK    2  A    between atoms: C5_9  and  N2_10
REMARK    3  A    between atoms: N2_10  and  N3_12
REMARK    4  A    between atoms: C6_14  and  C7_15
REMARK    5  A    between atoms: C7_15  and  N4_16
REMARK    6  A    between atoms: N6_23  and  N7_25
REMARK    7  A    between atoms: N7_25  and  C9_27
REMARK    8  A    between atoms: C9_27  and  C10_28
REMARK    9  A    between atoms: C10_28  and  N8_29
ROOT
HETATM    1  C2  UNL     1      21.029   5.652   8.708  1.00  0.00     0.182 A
HETATM    2  C3  UNL     1      21.572   6.039   9.914  1.00  0.00     0.103 A
HETATM    3  C4  UNL     1      22.898   6.364  10.141  1.00  0.00     0.275 C
HETATM    4  O2  UNL     1      23.683   6.136   9.208  1.00  0.00    -0.267 OA
HETATM    5  N1  UNL     1      23.474   6.905  11.253  1.00  0.00    -0.154 N
ATOM      6  H1  UNL     1      24.386   7.346  11.135  1.00  0.00     0.187 HD
HETATM    7  C5  UNL     1      22.949   6.909  12.490  1.00  0.00     0.701 C
HETATM    8  N5  UNL     1      21.633   6.861  12.836  1.00  0.00    -0.173 N
ATOM      9  H5  UNL     1      21.399   7.269  13.741  1.00  0.00     0.186 HD
HETATM   10  C8  UNL     1      20.601   6.349  12.145  1.00  0.00     0.150 C
HETATM   11  N6  UNL     1      19.525   6.124  12.836  1.00  0.00    -0.289 N
ATOM     12  H6  UNL     1      18.712   5.735  12.360  1.00  0.00     0.188 HD
HETATM   13  C13 UNL     1      20.526   6.030  10.812  1.00  0.00     0.076 A
HETATM   14  C14 UNL     1      19.403   5.642  10.127  1.00  0.00     0.145 A
HETATM   15  N9  UNL     1      18.090   5.401  10.255  1.00  0.00    -0.335 N
ATOM     16  H9  UNL     1      17.562   5.491  11.123  1.00  0.00     0.168 HD
HETATM   17  C15 UNL     1      17.564   5.021   9.060  1.00  0.00     0.199 A
HETATM   18  N10 UNL     1      18.598   5.037   8.200  1.00  0.00    -0.286 N
ATOM     19  H10 UNL     1      18.536   4.798   7.211  1.00  0.00     0.188 HD
HETATM   20  N11 UNL     1      19.707   5.406   8.821  1.00  0.00    -0.214 N
ENDROOT
BRANCH   7  21
HETATM   21  N2  UNL     1      23.788   6.962  13.451  1.00  0.00    -0.132 N
ATOM     22  H2  UNL     1      24.392   7.777  13.555  1.00  0.00     0.205 HD
BRANCH  21  23
HETATM   23  N3  UNL     1      23.880   5.908  14.361  1.00  0.00    -0.300 N
HETATM   24  C6  UNL     1      22.876   5.364  14.945  1.00  0.00     0.107 C
ATOM     25  H3  UNL     1      24.809   5.545  14.576  1.00  0.00     0.186 HD
BRANCH  24  26
HETATM   26  C7  UNL     1      23.167   4.246  15.890  1.00  0.00     0.275 C
BRANCH  26  27
HETATM   27  N4  UNL     1      22.142   3.257  15.741  1.00  0.00    -0.075 N
ATOM     28  H43 UNL     1      21.253   3.547  16.151  1.00  0.00     0.274 HD
ATOM     29  H42 UNL     1      21.825   3.161  14.777  1.00  0.00     0.274 HD
ATOM     30  H41 UNL     1      22.486   2.380  16.131  1.00  0.00     0.274 HD
ENDBRANCH  26  27
ENDBRANCH  24  26
ENDBRANCH  21  23
ENDBRANCH   7  21
BRANCH  11  31
HETATM   31  N7  UNL     1      19.434   6.391  14.197  1.00  0.00    -0.333 N
ATOM     32  H7  UNL     1      19.065   5.667  14.813  1.00  0.00     0.180 HD
BRANCH  31  33
HETATM   33  C9  UNL     1      19.837   7.646  14.776  1.00  0.00     0.169 C
BRANCH  33  34
HETATM   34  C10 UNL     1      18.872   8.700  14.286  1.00  0.00     0.292 C
BRANCH  34  35
HETATM   35  N8  UNL     1      17.835   8.997  15.234  1.00  0.00     0.081 N
HETATM   36  C11 UNL     1      17.011  10.105  14.877  1.00  0.00     0.309 C
HETATM   37  C12 UNL     1      18.292   9.014  16.601  1.00  0.00     0.309 C
ENDBRANCH  34  35
ENDBRANCH  33  34
ENDBRANCH  31  33
ENDBRANCH  11  31
BRANCH   1  38
HETATM   38  O1  UNL     1      21.781   5.539   7.538  1.00  0.00    -0.339 OA
HETATM   39  C1  UNL     1      21.519   6.297   6.380  1.00  0.00     0.211 C
ENDBRANCH   1  38
TORSDOF 9
ENDMDL