MODEL 4
REMARK VINA RESULT: -5.959629243      1.517      5.731
REMARK  10 active torsions:
REMARK  status: ('A' for Active; 'I' for Inactive)
REMARK    1  A    between atoms: N1_2  and  C3_4
REMARK    2  A    between atoms: C3_4  and  C4_5
REMARK    3  A    between atoms: C4_5  and  N2_6
REMARK    4  A    between atoms: N2_6  and  C5_8
REMARK    5  A    between atoms: C9_21  and  C10_22
REMARK    6  A    between atoms: C10_22  and  C11_23
REMARK    7  A    between atoms: C11_23  and  N7_24
REMARK    8  A    between atoms: C15_29  and  O4_30
REMARK    9  A    between atoms: C15_29  and  C16_32
REMARK   10  A    between atoms: C16_32  and  O5_33
ROOT
HETATM    1  C5  UNL     1      20.232   6.965  14.597  1.00  0.00     0.145 A
HETATM    2  N3  UNL     1      19.871   6.431  15.795  1.00  0.00    -0.174 N
ATOM      3  H3  UNL     1      19.035   6.670  16.329  1.00  0.00     0.186 HD
HETATM    4  C6  UNL     1      20.798   5.542  16.151  1.00  0.00     0.699 A
HETATM    5  N4  UNL     1      20.877   4.752  17.262  1.00  0.00    -0.140 N
ATOM      6  H4  UNL     1      20.141   4.809  17.966  1.00  0.00     0.189 HD
HETATM    7  C7  UNL     1      21.896   3.904  17.450  1.00  0.00     0.342 A
HETATM    8  O1  UNL     1      21.959   3.174  18.488  1.00  0.00    -0.246 OA
HETATM    9  N5  UNL     1      22.831   3.860  16.512  1.00  0.00    -0.259 N
ATOM     10  H5  UNL     1      23.612   3.218  16.643  1.00  0.00     0.175 HD
HETATM   11  C8  UNL     1      22.811   4.622  15.380  1.00  0.00     0.349 A
HETATM   12  O2  UNL     1      23.736   4.511  14.553  1.00  0.00    -0.245 OA
HETATM   13  N6  UNL     1      21.770   5.462  15.230  1.00  0.00    -0.092 N
HETATM   14  C9  UNL     1      21.426   6.356  14.235  1.00  0.00     0.107 A
ENDROOT
BRANCH  14  15
HETATM   15  C10 UNL     1      22.170   6.525  13.021  1.00  0.00     0.051 C
BRANCH  15  16
HETATM   16  C11 UNL     1      22.526   5.693  12.085  1.00  0.00     0.091 C
BRANCH  16  17
HETATM   17  N7  UNL     1      21.781   5.610  10.845  1.00  0.00    -0.353 N
HETATM   18  C12 UNL     1      22.301   6.340   9.721  1.00  0.00     0.151 C
HETATM   19  C13 UNL     1      21.835   5.820   8.402  1.00  0.00     0.187 C
HETATM   20  O3  UNL     1      20.603   5.227   8.388  1.00  0.00    -0.385 OA
HETATM   21  C14 UNL     1      19.841   5.480   9.502  1.00  0.00     0.231 C
HETATM   22  C15 UNL     1      20.575   4.846  10.694  1.00  0.00     0.176 C
BRANCH  22  23
HETATM   23  O4  UNL     1      20.813   3.503  10.422  1.00  0.00    -0.367 OA
ATOM     24  H4  UNL     1      21.731   3.314  10.263  1.00  0.00     0.212 HD
ENDBRANCH  22  23
BRANCH  22  25
HETATM   25  C16 UNL     1      19.651   4.952  11.872  1.00  0.00     0.227 C
BRANCH  25  26
HETATM   26  O5  UNL     1      18.806   6.047  11.800  1.00  0.00    -0.396 OA
ATOM     27  H5  UNL     1      18.896   6.635  12.541  1.00  0.00     0.209 HD
ENDBRANCH  25  26
ENDBRANCH  22  25
ENDBRANCH  16  17
ENDBRANCH  15  16
ENDBRANCH  14  15
BRANCH   1  28
HETATM   28  N2  UNL     1      19.492   8.001  13.989  1.00  0.00    -0.372 N
ATOM     29  H2  UNL     1      19.210   7.932  13.011  1.00  0.00     0.161 HD
BRANCH  28  30
HETATM   30  C4  UNL     1      19.134   9.183  14.788  1.00  0.00     0.140 C
BRANCH  30  31
HETATM   31  C3  UNL     1      17.649   9.204  14.916  1.00  0.00     0.135 C
BRANCH  31  32
HETATM   32  N1  UNL     1      17.183   9.350  16.275  1.00  0.00    -0.419 N
HETATM   33  C1  UNL     1      18.176   9.215  17.281  1.00  0.00     0.142 C
HETATM   34  C2  UNL     1      16.273  10.430  16.480  1.00  0.00     0.142 C
ENDBRANCH  31  32
ENDBRANCH  30  31
ENDBRANCH  28  30
ENDBRANCH   1  28
TORSDOF 10
ENDMDL