MODEL 2
REMARK VINA RESULT: -5.212859574      2.100      4.407
REMARK  4 active torsions:
REMARK  status: ('A' for Active; 'I' for Inactive)
REMARK    1  A    between atoms: C4_4  and  C6_6
REMARK    2  A    between atoms: C6_6  and  C7_7
REMARK    3  A    between atoms: C7_7  and  N1_8
REMARK    4  A    between atoms: C10_14  and  N2_15
ROOT
HETATM    1  C1  UNL     1       3.679 -21.552  -6.517  1.00  0.00     0.012 C
HETATM    2  C2  UNL     1       4.258 -20.594  -5.539  1.00  0.00     0.013 C
HETATM    3  C3  UNL     1       4.181 -19.142  -5.923  1.00  0.00     0.015 C
HETATM    4  C4  UNL     1       2.875 -18.508  -5.833  1.00  0.00    -0.042 C
HETATM    5  C5  UNL     1       3.140 -16.993  -5.617  1.00  0.00     0.015 C
HETATM    6  C8  UNL     1       2.054 -18.889  -4.615  1.00  0.00     0.011 C
HETATM    7  C9  UNL     1       2.286 -20.303  -4.169  1.00  0.00     0.034 C
HETATM    8  C10 UNL     1       3.714 -20.726  -4.143  1.00  0.00     0.187 C
ENDROOT
BRANCH   4   9
HETATM    9  C6  UNL     1       1.963 -18.549  -7.008  1.00  0.00     0.036 C
BRANCH   9  10
HETATM   10  C7  UNL     1       1.032 -17.443  -7.262  1.00  0.00     0.230 C
BRANCH  10  11
HETATM   11  N1  UNL     1      -0.319 -17.594  -6.821  1.00  0.00    -0.079 N
ATOM     12  H13 UNL     1      -0.590 -18.574  -6.900  1.00  0.00     0.274 HD
ATOM     13  H12 UNL     1      -0.358 -17.462  -5.811  1.00  0.00     0.274 HD
ATOM     14  H11 UNL     1      -1.032 -17.012  -7.263  1.00  0.00     0.274 HD
ENDBRANCH  10  11
ENDBRANCH   9  10
ENDBRANCH   4   9
BRANCH   8  15
HETATM   15  N2  UNL     1       3.765 -22.124  -3.764  1.00  0.00    -0.075 N
ATOM     16  H23 UNL     1       4.218 -22.706  -4.470  1.00  0.00     0.274 HD
ATOM     17  H22 UNL     1       4.418 -22.301  -3.000  1.00  0.00     0.274 HD
ATOM     18  H21 UNL     1       2.817 -22.434  -3.549  1.00  0.00     0.274 HD
ENDBRANCH   8  15
TORSDOF 4
ENDMDL