MODEL 4
REMARK VINA RESULT: -5.292593353      1.006      1.029
REMARK  2 active torsions:
REMARK  status: ('A' for Active; 'I' for Inactive)
REMARK    1  A    between atoms: C2_2  and  N1_3
REMARK    2  A    between atoms: N1_3  and  C3_6
ROOT
HETATM    1  C3  UNL     1       4.049 -21.124  -3.949  1.00  0.00     0.186 C
HETATM    2  C4  UNL     1       4.550 -22.491  -4.179  1.00  0.00     0.033 C
HETATM    3  C5  UNL     1       5.423 -22.740  -5.348  1.00  0.00     0.010 C
HETATM    4  C6  UNL     1       5.036 -22.058  -6.619  1.00  0.00     0.042 C
HETATM    5  C7  UNL     1       5.980 -22.499  -7.730  1.00  0.00     0.239 C
HETATM    6  N2  UNL     1       6.895 -21.463  -7.277  1.00  0.00    -0.070 N
ATOM      7  H21 UNL     1       7.543 -21.018  -7.928  1.00  0.00     0.277 HD
ATOM      8  H22 UNL     1       7.683 -21.691  -6.672  1.00  0.00     0.277 HD
HETATM    9  C8  UNL     1       5.773 -20.756  -6.772  1.00  0.00     0.191 C
HETATM   10  C9  UNL     1       5.844 -20.126  -5.423  1.00  0.00     0.035 C
HETATM   11  C10 UNL     1       4.443 -20.060  -4.898  1.00  0.00     0.035 C
ENDROOT
BRANCH   1  12
HETATM   12  N1  UNL     1       2.584 -21.168  -3.957  1.00  0.00    -0.071 N
ATOM     13  H12 UNL     1       2.214 -21.374  -3.030  1.00  0.00     0.277 HD
ATOM     14  H11 UNL     1       2.238 -21.989  -4.453  1.00  0.00     0.277 HD
BRANCH  12  15
HETATM   15  C2  UNL     1       2.018 -19.955  -4.491  1.00  0.00     0.228 C
HETATM   16  C1  UNL     1       0.806 -19.499  -3.716  1.00  0.00     0.034 C
ENDBRANCH  12  15
ENDBRANCH   1  12
TORSDOF 2
ENDMDL