MODEL 2
REMARK VINA RESULT: -4.899611338      3.185      3.916
REMARK  3 active torsions:
REMARK  status: ('A' for Active; 'I' for Inactive)
REMARK    1  A    between atoms: C2_2  and  C3_3
REMARK    2  A    between atoms: C3_3  and  C4_4
REMARK    3  A    between atoms: C4_4  and  N1_5
ROOT
HETATM    1  C3  UNL     1       4.159 -20.740  -5.221  1.00  0.00     0.052 C
HETATM    2  C5  UNL     1       3.319 -20.741  -3.995  1.00  0.00     0.037 C
HETATM    3  C6  UNL     1       1.921 -20.233  -4.177  1.00  0.00    -0.012 C
HETATM    4  C7  UNL     1       1.281 -19.948  -2.859  1.00  0.00     0.010 C
HETATM    5  C8  UNL     1       2.018 -18.985  -5.061  1.00  0.00     0.048 C
HETATM    6  C9  UNL     1       2.442 -19.495  -6.395  1.00  0.00     0.057 C
HETATM    7  N2  UNL     1       3.537 -20.361  -6.428  1.00  0.00    -0.391 N
ATOM      8  H2  UNL     1       3.885 -20.716  -7.319  1.00  0.00     0.159 HD
ENDROOT
BRANCH   1   9
HETATM    9  C2  UNL     1       5.357 -19.846  -4.995  1.00  0.00     0.028 C
HETATM   10  C1  UNL     1       6.553 -20.197  -5.796  1.00  0.00     0.007 C
ENDBRANCH   1   9
BRANCH   1  11
HETATM   11  C4  UNL     1       4.603 -22.194  -5.460  1.00  0.00     0.260 C
BRANCH  11  12
HETATM   12  N1  UNL     1       4.502 -22.984  -4.269  1.00  0.00    -0.077 N
ATOM     13  H13 UNL     1       4.748 -23.957  -4.448  1.00  0.00     0.274 HD
ATOM     14  H12 UNL     1       5.240 -22.752  -3.605  1.00  0.00     0.274 HD
ATOM     15  H11 UNL     1       3.580 -22.907  -3.840  1.00  0.00     0.274 HD
ENDBRANCH  11  12
ENDBRANCH   1  11
TORSDOF 3
ENDMDL