MODEL 1
REMARK VINA RESULT: -5.826119347      0.000      0.000
REMARK  2 active torsions:
REMARK  status: ('A' for Active; 'I' for Inactive)
REMARK    1  A    between atoms: C2_2  and  C4_4
REMARK    2  A    between atoms: C4_4  and  C5_5
ROOT
HETATM    1  C5  UNL     1       2.809 -20.648  -4.773  1.00  0.00     0.172 C
HETATM    2  N1  UNL     1       1.593 -20.598  -4.051  1.00  0.00    -0.402 N
ATOM      3  H1  UNL     1       1.121 -21.448  -3.743  1.00  0.00     0.155 HD
HETATM    4  C6  UNL     1       1.060 -19.319  -3.775  1.00  0.00     0.118 C
HETATM    5  C7  UNL     1       1.177 -18.313  -4.868  1.00  0.00     0.049 C
HETATM    6  C8  UNL     1       2.430 -18.448  -5.683  1.00  0.00     0.021 C
HETATM    7  C9  UNL     1       3.134 -17.083  -5.654  1.00  0.00     0.037 C
HETATM    8  C10 UNL     1       2.026 -18.700  -7.137  1.00  0.00     0.037 C
HETATM    9  N2  UNL     1       3.352 -19.403  -5.188  1.00  0.00    -0.394 N
ATOM     10  H2  UNL     1       4.351 -19.207  -5.133  1.00  0.00     0.156 HD
ENDROOT
BRANCH   1  11
HETATM   11  C4  UNL     1       3.900 -21.387  -4.019  1.00  0.00     0.050 C
BRANCH  11  12
HETATM   12  C2  UNL     1       5.212 -21.366  -4.760  1.00  0.00    -0.019 C
HETATM   13  C1  UNL     1       6.358 -20.898  -3.899  1.00  0.00     0.009 C
HETATM   14  C3  UNL     1       5.497 -22.809  -5.168  1.00  0.00     0.009 C
ENDBRANCH  11  12
ENDBRANCH   1  11
TORSDOF 2
ENDMDL