MODEL 5
REMARK VINA RESULT: -5.011761369      1.273      2.074
REMARK  2 active torsions:
REMARK  status: ('A' for Active; 'I' for Inactive)
REMARK    1  A    between atoms: C2_2  and  N1_4
REMARK    2  A    between atoms: N1_4  and  C4_6
ROOT
HETATM    1  C4  UNL     1       2.785 -20.216  -4.935  1.00  0.00     0.078 C
HETATM    2  C5  UNL     1       2.372 -18.768  -5.166  1.00  0.00     0.026 C
HETATM    3  C6  UNL     1       0.911 -18.593  -5.411  1.00  0.00     0.029 C
HETATM    4  C7  UNL     1       0.074 -18.565  -4.169  1.00  0.00     0.232 C
HETATM    5  N2  UNL     1       0.773 -18.977  -2.978  1.00  0.00    -0.075 N
ATOM      6  H21 UNL     1       0.266 -18.751  -2.122  1.00  0.00     0.277 HD
ATOM      7  H22 UNL     1       1.605 -18.417  -2.793  1.00  0.00     0.277 HD
HETATM    8  C8  UNL     1       1.059 -20.381  -3.105  1.00  0.00     0.234 C
HETATM    9  C9  UNL     1       2.501 -20.515  -3.479  1.00  0.00     0.052 C
ENDROOT
BRANCH   1  10
HETATM   10  N1  UNL     1       4.220 -20.223  -5.065  1.00  0.00    -0.414 N
ATOM     11  H1  UNL     1       4.716 -19.550  -5.648  1.00  0.00     0.153 HD
BRANCH  10  12
HETATM   12  C2  UNL     1       4.900 -21.233  -4.326  1.00  0.00     0.068 C
HETATM   13  C1  UNL     1       4.956 -22.576  -4.994  1.00  0.00     0.031 C
HETATM   14  C3  UNL     1       6.280 -20.853  -3.865  1.00  0.00     0.031 C
ENDBRANCH  10  12
ENDBRANCH   1  10
TORSDOF 2
ENDMDL