MODEL 5
REMARK VINA RESULT: -5.521250009      0.615      1.523
REMARK  4 active torsions:
REMARK  status: ('A' for Active; 'I' for Inactive)
REMARK    1  A    between atoms: N1_2  and  C2_3
REMARK    2  A    between atoms: N1_2  and  C5_9
REMARK    3  A    between atoms: C2_3  and  C3_4
REMARK    4  A    between atoms: C4_5  and  N2_6
ROOT
HETATM    1  C1  UNL     1       3.141 -18.494  -5.682  1.00  0.00     0.150 C
HETATM    2  N1  UNL     1       3.393 -19.612  -4.863  1.00  0.00    -0.383 N
ENDROOT
BRANCH   2   3
HETATM    3  C2  UNL     1       2.252 -20.256  -4.296  1.00  0.00     0.152 C
BRANCH   3   4
HETATM    4  C3  UNL     1       1.076 -19.445  -4.197  1.00  0.00    -0.039 C
HETATM    5  C4  UNL     1       0.080 -18.780  -4.125  1.00  0.00     0.009 C
BRANCH   5   6
HETATM    6  N2  UNL     1      -1.082 -18.016  -4.037  1.00  0.00    -0.359 N
ATOM      7  H22 UNL     1      -0.469 -18.830  -3.997  1.00  0.00     0.166 HD
ATOM      8  H21 UNL     1      -1.929 -17.450  -3.975  1.00  0.00     0.166 HD
ENDBRANCH   5   6
ENDBRANCH   3   4
ENDBRANCH   2   3
BRANCH   2   9
HETATM    9  C5  UNL     1       4.334 -20.573  -5.333  1.00  0.00     0.083 C
HETATM   10  C6  UNL     1       5.661 -19.859  -5.441  1.00  0.00     0.025 C
HETATM   11  C7  UNL     1       6.781 -20.749  -5.879  1.00  0.00     0.002 C
HETATM   12  C8  UNL     1       6.755 -22.104  -5.221  1.00  0.00     0.000 C
HETATM   13  C9  UNL     1       5.413 -22.763  -5.248  1.00  0.00     0.002 C
HETATM   14  C10 UNL     1       4.417 -21.849  -4.560  1.00  0.00     0.025 C
ENDBRANCH   2   9
TORSDOF 4
ENDMDL