MODEL 1
REMARK VINA RESULT: -5.321386701      0.000      0.000
REMARK  2 active torsions:
REMARK  status: ('A' for Active; 'I' for Inactive)
REMARK    1  A    between atoms: C5_5  and  N1_6
REMARK    2  A    between atoms: N1_6  and  C6_8
ROOT
HETATM    1  N1  UNL     1       3.940 -20.193  -5.962  1.00  0.00    -0.391 N
ATOM      2  H1  UNL     1       4.137 -20.812  -6.748  1.00  0.00     0.155 HD
ENDROOT
BRANCH   1   3
HETATM    3  C5  UNL     1       4.856 -20.025  -4.900  1.00  0.00     0.078 C
HETATM    4  C4  UNL     1       4.684 -21.164  -3.923  1.00  0.00     0.024 C
HETATM    5  C3  UNL     1       4.665 -22.517  -4.533  1.00  0.00     0.002 C
HETATM    6  C2  UNL     1       5.467 -22.726  -5.760  1.00  0.00     0.000 C
HETATM    7  C1  UNL     1       6.835 -22.133  -5.766  1.00  0.00     0.000 C
HETATM    8  C10 UNL     1       6.882 -20.703  -6.247  1.00  0.00     0.002 C
HETATM    9  C9  UNL     1       6.267 -19.744  -5.289  1.00  0.00     0.024 C
ENDBRANCH   1   3
BRANCH   1  10
HETATM   10  C6  UNL     1       2.720 -19.448  -5.878  1.00  0.00     0.281 C
HETATM   11  C7  UNL     1       2.948 -17.997  -5.564  1.00  0.00     0.081 C
HETATM   12  C8  UNL     1       2.982 -17.877  -7.092  1.00  0.00     0.238 C
HETATM   13  N2  UNL     1       2.146 -19.060  -7.127  1.00  0.00    -0.054 N
ATOM     14  H22 UNL     1       2.167 -19.690  -7.929  1.00  0.00     0.279 HD
ATOM     15  H21 UNL     1       1.135 -18.983  -7.235  1.00  0.00     0.279 HD
ENDBRANCH   1  10
TORSDOF 2
ENDMDL