MODEL 2
REMARK VINA RESULT: -4.745833082      2.003      3.884
REMARK  2 active torsions:
REMARK  status: ('A' for Active; 'I' for Inactive)
REMARK    1  A    between atoms: C2_2  and  C3_3
REMARK    2  A    between atoms: C3_3  and  C4_4
ROOT
HETATM    1  C3  UNL     1       5.019 -21.540  -5.422  1.00  0.00     0.151 C
HETATM    2  C6  UNL     1       5.578 -20.150  -5.210  1.00  0.00     0.274 C
HETATM    3  N1  UNL     1       6.930 -20.431  -4.790  1.00  0.00    -0.039 N
ATOM      4  H11 UNL     1       7.032 -20.651  -3.799  1.00  0.00     0.280 HD
ATOM      5  H12 UNL     1       7.551 -19.623  -4.781  1.00  0.00     0.280 HD
HETATM    6  C7  UNL     1       7.332 -21.496  -5.693  1.00  0.00     0.280 C
HETATM    7  C8  UNL     1       7.702 -20.936  -7.038  1.00  0.00     0.078 C
HETATM    8  C9  UNL     1       8.464 -22.317  -5.147  1.00  0.00     0.078 C
HETATM    9  N2  UNL     1       6.144 -22.316  -5.876  1.00  0.00    -0.031 N
ATOM     10  H21 UNL     1       6.037 -22.655  -6.832  1.00  0.00     0.281 HD
ATOM     11  H22 UNL     1       6.212 -23.226  -5.421  1.00  0.00     0.281 HD
ENDROOT
BRANCH   1  12
HETATM   12  C2  UNL     1       3.936 -21.527  -6.460  1.00  0.00     0.036 C
HETATM   13  C1  UNL     1       3.850 -20.201  -7.184  1.00  0.00     0.007 C
ENDBRANCH   1  12
BRANCH   1  14
HETATM   14  C4  UNL     1       4.571 -22.061  -4.088  1.00  0.00     0.036 C
HETATM   15  C5  UNL     1       3.490 -21.265  -3.438  1.00  0.00     0.007 C
ENDBRANCH   1  14
TORSDOF 2
ENDMDL