MODEL 5
REMARK VINA RESULT: -4.659054490     10.568     12.078
REMARK  2 active torsions:
REMARK  status: ('A' for Active; 'I' for Inactive)
REMARK    1  A    between atoms: C2_2  and  N1_3
REMARK    2  A    between atoms: N1_3  and  C3_5
ROOT
HETATM    1  C3  UNL     1       4.236 -20.740  -5.613  1.00  0.00     0.059 C
HETATM    2  C4  UNL     1       4.352 -19.266  -5.711  1.00  0.00     0.041 C
HETATM    3  C5  UNL     1       4.126 -21.285  -7.032  1.00  0.00     0.060 C
HETATM    4  C6  UNL     1       5.539 -21.221  -7.521  1.00  0.00     0.236 C
HETATM    5  N2  UNL     1       6.380 -20.899  -6.376  1.00  0.00    -0.065 N
ATOM      6  H21 UNL     1       6.667 -19.921  -6.324  1.00  0.00     0.278 HD
ATOM      7  H22 UNL     1       7.323 -21.284  -6.423  1.00  0.00     0.278 HD
HETATM    8  C7  UNL     1       5.614 -21.348  -5.265  1.00  0.00     0.143 C
HETATM    9  C8  UNL     1       6.075 -20.895  -3.918  1.00  0.00     0.048 C
HETATM   10  C9  UNL     1       5.408 -22.850  -5.251  1.00  0.00     0.048 C
ENDROOT
BRANCH   1  11
HETATM   11  N1  UNL     1       3.339 -21.301  -4.704  1.00  0.00    -0.391 N
ATOM     12  H1  UNL     1       3.398 -22.303  -4.517  1.00  0.00     0.159 HD
BRANCH  11  13
HETATM   13  C2  UNL     1       2.368 -20.557  -4.040  1.00  0.00     0.052 C
HETATM   14  C1  UNL     1       2.318 -20.857  -2.569  1.00  0.00     0.054 C
ENDBRANCH  11  13
ENDBRANCH   1  11
TORSDOF 2
ENDMDL