MODEL 3
REMARK VINA RESULT: -6.930081892      1.464      1.690
REMARK  2 active torsions:
REMARK  status: ('A' for Active; 'I' for Inactive)
REMARK    1  A    between atoms: C6_7  and  N1_8
REMARK    2  A    between atoms: N1_8  and  C7_10
ROOT
HETATM    1  C1  UNL     1      -5.187  21.929   3.969  1.00  0.00     0.077 C
HETATM    2  C2  UNL     1      -6.272  22.864   4.428  1.00  0.00     0.057 A
HETATM    3  O1  UNL     1      -7.270  22.557   5.219  1.00  0.00    -0.313 OA
HETATM    4  C3  UNL     1      -8.045  23.595   5.430  1.00  0.00     0.100 A
HETATM    5  C4  UNL     1      -9.207  23.794   6.175  1.00  0.00     0.017 A
HETATM    6  C5  UNL     1      -9.757  22.650   6.917  1.00  0.00     0.055 C
HETATM    7  C6  UNL     1      -9.838  25.013   6.229  1.00  0.00     0.111 A
HETATM    8  N2  UNL     1      -9.280  26.014   5.526  1.00  0.00    -0.328 N
ATOM      9  H2  UNL     1      -9.723  26.932   5.546  1.00  0.00     0.169 HD
HETATM   10  C10 UNL     1      -8.152  25.854   4.793  1.00  0.00     0.114 A
HETATM   11  N3  UNL     1      -7.644  26.845   4.127  1.00  0.00    -0.385 N
ATOM     12  H31 UNL     1      -6.795  26.725   3.575  1.00  0.00     0.157 HD
ATOM     13  H32 UNL     1      -8.120  27.746   4.174  1.00  0.00     0.157 HD
HETATM   14  C11 UNL     1      -7.513  24.646   4.730  1.00  0.00     0.050 A
HETATM   15  C12 UNL     1      -6.371  24.195   4.077  1.00  0.00    -0.016 A
HETATM   16  C13 UNL     1      -5.487  24.987   3.215  1.00  0.00     0.052 C
ENDROOT
BRANCH   7  17
HETATM   17  N1  UNL     1     -11.019  25.182   7.001  1.00  0.00    -0.372 N
ATOM     18  H1  UNL     1     -11.697  24.420   6.994  1.00  0.00     0.161 HD
BRANCH  17  19
HETATM   19  C7  UNL     1     -11.334  26.335   7.789  1.00  0.00     0.075 C
HETATM   20  C8  UNL     1     -12.625  26.996   7.357  1.00  0.00     0.031 C
HETATM   21  C9  UNL     1     -11.474  25.987   9.243  1.00  0.00     0.031 C
ENDBRANCH  17  19
ENDBRANCH   7  17
TORSDOF 2
ENDMDL