MODEL 4
REMARK VINA RESULT: -6.303570939      1.907      2.219
REMARK  5 active torsions:
REMARK  status: ('A' for Active; 'I' for Inactive)
REMARK    1  A    between atoms: C2_2  and  C3_3
REMARK    2  A    between atoms: C2_2  and  C4_10
REMARK    3  A    between atoms: C3_3  and  O1_4
REMARK    4  A    between atoms: N1_6  and  O2_8
REMARK    5  A    between atoms: N2_14  and  O3_16
ROOT
HETATM    1  C4  UNL     1      -6.695  23.182   4.470  1.00  0.00     0.027 C
HETATM    2  C5  UNL     1      -6.024  24.555   4.255  1.00  0.00     0.015 C
HETATM    3  C6  UNL     1      -7.093  25.588   3.955  1.00  0.00     0.055 C
HETATM    4  C7  UNL     1      -7.912  25.642   5.192  1.00  0.00     0.010 C
HETATM    5  N2  UNL     1      -8.092  26.750   5.791  1.00  0.00    -0.277 N
ATOM      6  H2  UNL     1      -7.659  27.586   5.397  1.00  0.00     0.193 HD
HETATM    7  C8  UNL     1      -8.493  24.415   5.688  1.00  0.00     0.064 C
HETATM    8  C9  UNL     1      -7.619  23.180   5.625  1.00  0.00    -0.035 C
HETATM    9  C10 UNL     1      -8.588  22.021   5.471  1.00  0.00     0.016 C
HETATM   10  C11 UNL     1      -7.000  23.016   6.971  1.00  0.00     0.016 C
ENDROOT
BRANCH   1  11
HETATM   11  C2  UNL     1      -5.605  22.212   4.386  1.00  0.00    -0.026 C
HETATM   12  C1  UNL     1      -5.998  20.752   4.502  1.00  0.00     0.048 C
BRANCH  11  13
HETATM   13  C3  UNL     1      -4.581  22.384   3.360  1.00  0.00     0.162 C
HETATM   14  N1  UNL     1      -3.404  21.922   3.523  1.00  0.00    -0.247 N
ATOM     15  H1  UNL     1      -2.718  22.062   2.782  1.00  0.00     0.196 HD
BRANCH  13  16
HETATM   16  O1  UNL     1      -4.863  23.048   2.192  1.00  0.00    -0.345 OA
ATOM     17  H1  UNL     1      -4.225  23.632   1.800  1.00  0.00     0.219 HD
ENDBRANCH  13  16
BRANCH  14  18
HETATM   18  O2  UNL     1      -3.015  21.237   4.664  1.00  0.00    -0.288 OA
ATOM     19  H2  UNL     1      -2.523  20.424   4.637  1.00  0.00     0.244 HD
ENDBRANCH  14  18
ENDBRANCH  11  13
ENDBRANCH   1  11
BRANCH   5  20
HETATM   20  O3  UNL     1      -8.828  26.885   6.930  1.00  0.00    -0.290 OA
ATOM     21  H3  UNL     1      -9.726  27.197   6.944  1.00  0.00     0.244 HD
ENDBRANCH   5  20
TORSDOF 5
ENDMDL