MODEL 1
REMARK VINA RESULT: -6.424533648      0.000      0.000
REMARK  2 active torsions:
REMARK  status: ('A' for Active; 'I' for Inactive)
REMARK       I    between atoms: N1_2  and  C2_4
REMARK    1  A    between atoms: C2_4  and  C3_6
REMARK    2  A    between atoms: C3_6  and  C4_7
ROOT
HETATM    1  C4  UNL     1      -7.130  22.604   6.170  1.00  0.00    -0.068 C
HETATM    2  C5  UNL     1      -6.733  23.526   7.291  1.00  0.00     0.044 C
HETATM    3  C6  UNL     1      -6.322  21.607   5.852  1.00  0.00    -0.040 C
HETATM    4  C7  UNL     1      -6.625  20.670   4.764  1.00  0.00     0.010 C
HETATM    5  C8  UNL     1      -6.052  19.481   4.652  1.00  0.00     0.025 C
HETATM    6  C9  UNL     1      -5.079  19.127   5.676  1.00  0.00     0.008 C
HETATM    7  N2  UNL     1      -4.962  17.923   6.119  1.00  0.00    -0.402 N
ATOM      8  H21 UNL     1      -4.280  17.676   6.837  1.00  0.00     0.156 HD
ATOM      9  H22 UNL     1      -5.541  17.153   5.784  1.00  0.00     0.156 HD
HETATM   10  C10 UNL     1      -4.235  20.249   6.163  1.00  0.00     0.050 C
HETATM   11  C11 UNL     1      -3.313  20.660   5.032  1.00  0.00     0.018 C
HETATM   12  C12 UNL     1      -5.052  21.416   6.636  1.00  0.00     0.101 C
HETATM   13  S1  UNL     1      -5.457  21.162   8.400  1.00  0.00    -0.086 SA
ENDROOT
BRANCH   1  14
HETATM   14  C3  UNL     1      -8.414  22.918   5.511  1.00  0.00     0.137 C
BRANCH  14  15
HETATM   15  C2  UNL     1      -8.448  24.310   4.973  1.00  0.00     0.221 C
HETATM   16  N1  UNL     1      -7.403  24.744   4.117  1.00  0.00    -0.365 N
HETATM   17  C1  UNL     1      -7.363  26.080   3.552  1.00  0.00     0.149 C
ATOM     18  H1  UNL     1      -6.653  24.092   3.890  1.00  0.00     0.161 HD
HETATM   19  O1  UNL     1      -9.353  25.133   5.233  1.00  0.00    -0.273 OA
ENDBRANCH  14  15
ENDBRANCH   1  14
TORSDOF 2
ENDMDL