MODEL 1
REMARK VINA RESULT: -5.976260763      0.000      0.000
REMARK  2 active torsions:
REMARK  status: ('A' for Active; 'I' for Inactive)
REMARK       I    between atoms: C1_4  and  N2_5
REMARK       I    between atoms: C1_4  and  N3_12
REMARK    1  A    between atoms: N2_5  and  C2_7
REMARK    2  A    between atoms: N3_12  and  C6_14
ROOT
HETATM    1  N1  UNL     1      -9.262  26.232   8.799  1.00  0.00    -0.235 N
ATOM      2  H11 UNL     1      -9.921  26.433   9.551  1.00  0.00     0.174 HD
ATOM      3  H12 UNL     1      -8.296  25.991   9.021  1.00  0.00     0.174 HD
HETATM    4  C1  UNL     1      -9.638  26.280   7.589  1.00  0.00     0.672 C
HETATM    5  N2  UNL     1      -8.729  26.002   6.552  1.00  0.00    -0.192 N
ATOM      6  H2  UNL     1      -8.261  26.779   6.086  1.00  0.00     0.184 HD
HETATM    7  N3  UNL     1     -10.973  26.612   7.282  1.00  0.00    -0.222 N
ATOM      8  H3  UNL     1     -11.177  26.936   6.337  1.00  0.00     0.178 HD
ENDROOT
BRANCH   5   9
HETATM    9  C2  UNL     1      -8.436  24.647   6.123  1.00  0.00     0.056 A
HETATM   10  C3  UNL     1      -9.382  23.761   5.750  1.00  0.00     0.037 A
HETATM   11  C4  UNL     1      -8.965  22.519   5.370  1.00  0.00     0.052 A
HETATM   12  S1  UNL     1      -7.278  22.607   5.539  1.00  0.00    -0.111 SA
HETATM   13  C5  UNL     1      -7.134  24.214   6.086  1.00  0.00     0.079 A
ENDBRANCH   5   9
BRANCH   7  14
HETATM   14  C6  UNL     1     -12.067  26.525   8.214  1.00  0.00     0.099 C
HETATM   15  C7  UNL     1     -12.448  25.116   8.566  1.00  0.00     0.026 C
HETATM   16  C8  UNL     1     -13.612  25.221   9.560  1.00  0.00     0.002 C
HETATM   17  C9  UNL     1     -14.787  25.750   8.756  1.00  0.00     0.000 C
HETATM   18  C10 UNL     1     -14.488  27.181   8.411  1.00  0.00     0.002 C
HETATM   19  C11 UNL     1     -13.183  27.368   7.717  1.00  0.00     0.026 C
ENDBRANCH   7  14
TORSDOF 2
ENDMDL