MODEL 3
REMARK VINA RESULT: -6.493321567      2.760      5.828
REMARK  3 active torsions:
REMARK  status: ('A' for Active; 'I' for Inactive)
REMARK    1  A    between atoms: O1_1  and  N1_3
REMARK       I    between atoms: C1_5  and  N2_6
REMARK       I    between atoms: C1_5  and  N3_13
REMARK    2  A    between atoms: N2_6  and  C2_8
REMARK    3  A    between atoms: N3_13  and  C6_15
ROOT
HETATM    1  N1  UNL     1      -7.855  25.784   5.395  1.00  0.00    -0.099 N
ATOM      2  H1  UNL     1      -7.620  25.425   4.470  1.00  0.00     0.213 HD
HETATM    3  C1  UNL     1      -8.262  24.944   6.305  1.00  0.00     0.699 C
HETATM    4  N2  UNL     1      -8.580  25.469   7.574  1.00  0.00    -0.184 N
ATOM      5  H2  UNL     1      -7.930  25.390   8.356  1.00  0.00     0.185 HD
HETATM    6  N3  UNL     1      -8.358  23.571   5.962  1.00  0.00    -0.220 N
ATOM      7  H3  UNL     1      -9.266  23.132   5.812  1.00  0.00     0.178 HD
ENDROOT
BRANCH   1   8
HETATM    8  O1  UNL     1      -7.731  27.117   5.624  1.00  0.00    -0.276 OA
ATOM      9  H1  UNL     1      -7.587  27.749   4.930  1.00  0.00     0.245 HD
ENDBRANCH   1   8
BRANCH   4  10
HETATM   10  C2  UNL     1      -9.862  26.122   7.725  1.00  0.00     0.090 A
HETATM   11  C3  UNL     1     -11.060  25.785   7.157  1.00  0.00     0.038 A
HETATM   12  C4  UNL     1     -12.122  26.554   7.453  1.00  0.00     0.010 A
HETATM   13  C5  UNL     1     -11.914  27.611   8.299  1.00  0.00     0.052 A
HETATM   14  S1  UNL     1     -10.252  27.500   8.654  1.00  0.00    -0.084 SA
ENDBRANCH   4  10
BRANCH   6  15
HETATM   15  C6  UNL     1      -7.147  22.819   5.831  1.00  0.00     0.099 C
HETATM   16  C7  UNL     1      -6.486  22.523   7.155  1.00  0.00     0.026 C
HETATM   17  C8  UNL     1      -5.530  21.405   6.824  1.00  0.00     0.002 C
HETATM   18  C9  UNL     1      -5.991  20.818   5.508  1.00  0.00     0.002 C
HETATM   19  C10 UNL     1      -7.391  21.409   5.302  1.00  0.00     0.026 C
ENDBRANCH   6  15
TORSDOF 3
ENDMDL