MODEL 4
REMARK VINA RESULT: -7.347473413      1.361      2.186
REMARK  5 active torsions:
REMARK  status: ('A' for Active; 'I' for Inactive)
REMARK    1  A    between atoms: O1_1  and  N1_3
REMARK    2  A    between atoms: C1_5  and  O2_6
REMARK    3  A    between atoms: C1_5  and  C2_8
REMARK    4  A    between atoms: C2_8  and  C3_9
REMARK    5  A    between atoms: C3_9  and  O3_10
ROOT
HETATM    1  C3  UNL     1      -6.700  23.747   4.478  1.00  0.00     0.053 C
HETATM    2  C4  UNL     1      -5.974  22.746   4.910  1.00  0.00    -0.050 C
HETATM    3  C5  UNL     1      -4.559  22.508   4.494  1.00  0.00     0.037 C
HETATM    4  C6  UNL     1      -4.084  21.405   5.405  1.00  0.00     0.014 C
HETATM    5  C7  UNL     1      -5.357  20.614   5.608  1.00  0.00    -0.036 C
HETATM    6  C8  UNL     1      -5.681  19.745   4.426  1.00  0.00     0.010 C
HETATM    7  C9  UNL     1      -4.641  18.652   4.544  1.00  0.00     0.001 C
HETATM    8  C10 UNL     1      -4.312  18.562   6.015  1.00  0.00     0.001 C
HETATM    9  C11 UNL     1      -5.150  19.623   6.701  1.00  0.00     0.010 C
HETATM   10  C12 UNL     1      -6.375  21.658   5.875  1.00  0.00     0.046 C
ENDROOT
BRANCH   1  11
HETATM   11  C2  UNL     1      -6.162  24.734   3.530  1.00  0.00     0.150 C
BRANCH  11  12
HETATM   12  C1  UNL     1      -7.225  25.649   3.035  1.00  0.00     0.141 C
HETATM   13  N1  UNL     1      -7.798  26.503   3.813  1.00  0.00    -0.251 N
ATOM     14  H1  UNL     1      -7.527  26.565   4.795  1.00  0.00     0.196 HD
BRANCH  13  15
HETATM   15  O1  UNL     1      -8.772  27.325   3.315  1.00  0.00    -0.288 OA
ATOM     16  H1  UNL     1      -8.894  28.189   3.691  1.00  0.00     0.244 HD
ENDBRANCH  13  15
BRANCH  12  17
HETATM   17  O2  UNL     1      -7.584  25.561   1.712  1.00  0.00    -0.348 OA
ATOM     18  H2  UNL     1      -6.922  25.466   1.038  1.00  0.00     0.219 HD
ENDBRANCH  12  17
ENDBRANCH  11  12
ENDBRANCH   1  11
BRANCH   1  19
HETATM   19  O3  UNL     1      -7.999  23.890   4.915  1.00  0.00    -0.364 OA
ATOM     20  H3  UNL     1      -8.180  24.514   5.608  1.00  0.00     0.217 HD
ENDBRANCH   1  19
TORSDOF 5
ENDMDL