MODEL 1
REMARK VINA RESULT: -7.056332150      0.000      0.000
REMARK  3 active torsions:
REMARK  status: ('A' for Active; 'I' for Inactive)
REMARK    1  A    between atoms: O1_1  and  N1_3
REMARK    2  A    between atoms: C6_10  and  N2_11
REMARK    3  A    between atoms: N2_11  and  C7_13
ROOT
HETATM    1  N1  UNL     1      -4.176  17.028   4.546  1.00  0.00    -0.277 N
ATOM      2  H1  UNL     1      -3.930  17.218   3.574  1.00  0.00     0.193 HD
HETATM    3  C1  UNL     1      -4.255  18.036   5.377  1.00  0.00     0.014 C
HETATM    4  C2  UNL     1      -4.591  18.000   6.825  1.00  0.00     0.055 C
HETATM    5  C3  UNL     1      -4.917  19.444   7.109  1.00  0.00     0.011 C
HETATM    6  C4  UNL     1      -3.899  20.168   6.259  1.00  0.00    -0.003 C
HETATM    7  C5  UNL     1      -4.313  21.612   6.148  1.00  0.00     0.030 C
HETATM    8  C6  UNL     1      -4.250  22.142   4.757  1.00  0.00     0.082 C
HETATM    9  C11 UNL     1      -5.106  21.367   3.786  1.00  0.00     0.026 C
HETATM   10  C12 UNL     1      -5.188  19.900   4.139  1.00  0.00     0.013 C
HETATM   11  C13 UNL     1      -3.998  19.435   4.944  1.00  0.00     0.037 C
ENDROOT
BRANCH   8  12
HETATM   12  N2  UNL     1      -4.619  23.535   4.763  1.00  0.00    -0.384 N
ATOM     13  H2  UNL     1      -3.877  24.222   4.896  1.00  0.00     0.160 HD
BRANCH  12  14
HETATM   14  C7  UNL     1      -5.950  24.016   4.598  1.00  0.00     0.045 A
HETATM   15  C8  UNL     1      -7.051  23.738   5.365  1.00  0.00     0.047 A
HETATM   16  C9  UNL     1      -8.119  24.436   4.802  1.00  0.00     0.090 A
HETATM   17  N3  UNL     1      -7.674  25.125   3.713  1.00  0.00    -0.373 N
HETATM   18  C10 UNL     1      -6.365  24.879   3.580  1.00  0.00     0.116 A
ATOM     19  H3  UNL     1      -8.239  25.721   3.107  1.00  0.00     0.164 HD
ENDBRANCH  12  14
ENDBRANCH   8  12
BRANCH   1  20
HETATM   20  O1  UNL     1      -4.407  15.740   4.915  1.00  0.00    -0.290 OA
ATOM     21  H1  UNL     1      -4.300  15.003   4.324  1.00  0.00     0.244 HD
ENDBRANCH   1  20
TORSDOF 3
ENDMDL