MODEL 5
REMARK VINA RESULT: -6.047675526      2.178      4.848
REMARK  3 active torsions:
REMARK  status: ('A' for Active; 'I' for Inactive)
REMARK    1  A    between atoms: C2_2  and  C3_6
REMARK    2  A    between atoms: C4_8  and  N2_9
REMARK    3  A    between atoms: C5_14  and  C6_15
ROOT
HETATM    1  C3  UNL     1      -7.085  24.670   4.152  1.00  0.00     0.053 A
HETATM    2  S1  UNL     1      -5.666  23.726   3.807  1.00  0.00    -0.051 SA
HETATM    3  C4  UNL     1      -5.969  22.416   4.810  1.00  0.00     0.143 A
HETATM    4  N3  UNL     1      -7.136  22.731   5.396  1.00  0.00    -0.339 N
ATOM      5  H3  UNL     1      -7.567  22.106   6.077  1.00  0.00     0.168 HD
HETATM    6  C5  UNL     1      -7.708  23.874   5.065  1.00  0.00     0.034 A
ENDROOT
BRANCH   6   7
HETATM    7  C6  UNL     1      -9.049  24.281   5.690  1.00  0.00     0.037 C
HETATM    8  C7  UNL     1      -8.577  25.269   6.837  1.00  0.00     0.011 C
HETATM    9  C8  UNL     1      -9.841  25.858   7.403  1.00  0.00     0.001 C
HETATM   10  C9  UNL     1     -10.488  24.756   8.243  1.00  0.00     0.000 C
HETATM   11  C10 UNL     1     -10.694  23.515   7.439  1.00  0.00     0.001 C
HETATM   12  C11 UNL     1      -9.568  23.131   6.513  1.00  0.00     0.011 C
ENDBRANCH   6   7
BRANCH   1  13
HETATM   13  C2  UNL     1      -7.474  25.915   3.483  1.00  0.00     0.018 C
HETATM   14  C1  UNL     1      -7.476  25.784   1.967  1.00  0.00     0.069 C
HETATM   15  N1  UNL     1      -7.604  27.033   3.981  1.00  0.00    -0.402 N
ATOM     16  H12 UNL     1      -7.875  27.900   3.515  1.00  0.00     0.156 HD
ATOM     17  H11 UNL     1      -7.603  27.121   4.997  1.00  0.00     0.156 HD
ENDBRANCH   1  13
BRANCH   3  18
HETATM   18  N2  UNL     1      -5.264  21.309   5.001  1.00  0.00    -0.380 N
ATOM     19  H22 UNL     1      -4.587  21.143   5.745  1.00  0.00     0.158 HD
ATOM     20  H21 UNL     1      -5.261  20.436   4.474  1.00  0.00     0.158 HD
ENDBRANCH   3  18
TORSDOF 3
ENDMDL