MODEL 2
REMARK VINA RESULT: -5.699942726      0.101      1.137
REMARK  3 active torsions:
REMARK  status: ('A' for Active; 'I' for Inactive)
REMARK    1  A    between atoms: C2_2  and  C5_5
REMARK    2  A    between atoms: C5_5  and  N1_6
REMARK    3  A    between atoms: N1_6  and  C6_8
ROOT
HETATM    1  C6  UNL     1      -7.126  24.507   5.616  1.00  0.00     0.082 A
HETATM    2  C7  UNL     1      -7.391  23.882   6.793  1.00  0.00     0.122 A
HETATM    3  N2  UNL     1      -8.416  24.313   7.568  1.00  0.00    -0.341 N
ATOM      4  H2  UNL     1      -8.632  23.855   8.455  1.00  0.00     0.167 HD
HETATM    5  C8  UNL     1      -9.141  25.359   7.135  1.00  0.00     0.176 A
HETATM    6  S1  UNL     1     -10.374  25.870   8.076  1.00  0.00    -0.041 SA
HETATM    7  N3  UNL     1      -8.895  25.991   5.975  1.00  0.00    -0.322 N
ATOM      8  H3  UNL     1      -9.477  26.780   5.694  1.00  0.00     0.169 HD
HETATM    9  C9  UNL     1      -7.886  25.589   5.185  1.00  0.00     0.130 A
HETATM   10  S2  UNL     1      -7.566  26.339   3.772  1.00  0.00    -0.058 SA
ENDROOT
BRANCH   1  11
HETATM   11  N1  UNL     1      -6.056  24.057   4.809  1.00  0.00    -0.386 N
ATOM     12  H1  UNL     1      -5.947  24.415   3.860  1.00  0.00     0.159 HD
BRANCH  11  13
HETATM   13  C5  UNL     1      -5.130  23.101   5.324  1.00  0.00     0.128 C
BRANCH  13  14
HETATM   14  C2  UNL     1      -4.830  22.047   4.264  1.00  0.00    -0.035 C
HETATM   15  C1  UNL     1      -4.869  22.648   2.877  1.00  0.00     0.016 C
HETATM   16  C3  UNL     1      -5.886  20.971   4.424  1.00  0.00     0.016 C
HETATM   17  C4  UNL     1      -3.428  21.492   4.462  1.00  0.00     0.016 C
ENDBRANCH  13  14
ENDBRANCH  11  13
ENDBRANCH   1  11
TORSDOF 3
ENDMDL