MODEL 1
REMARK VINA RESULT: -6.525691432      0.000      0.000
REMARK  2 active torsions:
REMARK  status: ('A' for Active; 'I' for Inactive)
REMARK    1  A    between atoms: C2_3  and  N2_4
REMARK    2  A    between atoms: C3_6  and  C4_7
ROOT
HETATM    1  N1  UNL     1      -7.087  24.347   5.898  1.00  0.00    -0.097 NA
HETATM    2  C1  UNL     1      -6.441  24.149   4.636  1.00  0.00     0.111 A
HETATM    3  C2  UNL     1      -5.663  23.042   4.409  1.00  0.00     0.060 A
HETATM    4  C10 UNL     1      -5.058  22.880   3.189  1.00  0.00     0.048 A
HETATM    5  C11 UNL     1      -5.253  23.847   2.221  1.00  0.00     0.091 A
HETATM    6  N3  UNL     1      -6.007  24.934   2.423  1.00  0.00    -0.355 N
ATOM      7  H3  UNL     1      -6.133  25.631   1.689  1.00  0.00     0.166 HD
HETATM    8  C12 UNL     1      -6.589  25.076   3.615  1.00  0.00     0.127 A
HETATM    9  S1  UNL     1      -7.521  26.405   3.883  1.00  0.00    -0.058 SA
ENDROOT
BRANCH   3  10
HETATM   10  N2  UNL     1      -5.487  22.076   5.419  1.00  0.00    -0.368 N
HETATM   11  C3  UNL     1      -5.688  20.831   5.184  1.00  0.00     0.066 C
ATOM     12  H2  UNL     1      -5.195  22.370   6.351  1.00  0.00     0.165 HD
BRANCH  11  13
HETATM   13  C4  UNL     1      -5.520  19.773   6.199  1.00  0.00     0.024 C
HETATM   14  C5  UNL     1      -4.856  18.533   5.631  1.00  0.00     0.010 C
HETATM   15  C6  UNL     1      -4.879  17.498   6.718  1.00  0.00     0.001 C
HETATM   16  C7  UNL     1      -4.122  17.912   7.946  1.00  0.00     0.000 C
HETATM   17  C8  UNL     1      -4.330  19.318   8.365  1.00  0.00     0.001 C
HETATM   18  C9  UNL     1      -4.626  20.288   7.286  1.00  0.00     0.010 C
ENDBRANCH  11  13
ENDBRANCH   3  10
TORSDOF 2
ENDMDL