MODEL 3
REMARK VINA RESULT: -8.107883616      5.279      7.248
REMARK  4 active torsions:
REMARK  status: ('A' for Active; 'I' for Inactive)
REMARK    1  A    between atoms: C4_5  and  C5_6
REMARK    2  A    between atoms: C5_6  and  O1_7
REMARK    3  A    between atoms: O1_7  and  C6_8
REMARK    4  A    between atoms: C9_12  and  C10_13
ROOT
HETATM    1  C10 UNL     1      74.625  -2.103  70.407  1.00  0.00     0.070 C
HETATM    2  C11 UNL     1      75.666  -3.061  70.821  1.00  0.00     0.041 C
HETATM    3  C12 UNL     1      76.608  -2.695  71.898  1.00  0.00     0.178 C
HETATM    4  O2  UNL     1      76.327  -1.512  72.608  1.00  0.00    -0.335 OA
HETATM    5  C13 UNL     1      75.563  -0.481  72.066  1.00  0.00     0.159 A
HETATM    6  C14 UNL     1      74.734  -0.754  70.999  1.00  0.00     0.027 A
HETATM    7  C15 UNL     1      74.117   0.434  70.684  1.00  0.00     0.100 A
HETATM    8  C16 UNL     1      73.146   0.699  69.635  1.00  0.00     0.104 C
HETATM    9  N2  UNL     1      72.384   0.921  68.789  1.00  0.00    -0.191 NA
HETATM   10  C17 UNL     1      74.606   1.381  71.584  1.00  0.00     0.135 A
HETATM   11  N3  UNL     1      74.335   2.689  71.715  1.00  0.00    -0.351 N
ATOM     12  H3  UNL     1      73.668   3.130  71.082  1.00  0.00     0.166 HD
HETATM   13  C18 UNL     1      74.927   3.421  72.662  1.00  0.00     0.091 A
HETATM   14  C19 UNL     1      75.841   2.886  73.551  1.00  0.00     0.035 A
HETATM   15  C20 UNL     1      76.091   1.532  73.378  1.00  0.00     0.102 A
HETATM   16  N4  UNL     1      75.484   0.816  72.419  1.00  0.00    -0.287 N
ENDROOT
BRANCH   1  17
HETATM   17  C9  UNL     1      73.223  -2.659  70.577  1.00  0.00     0.033 A
HETATM   18  C8  UNL     1      72.564  -2.885  71.754  1.00  0.00     0.133 A
HETATM   19  C7  UNL     1      71.309  -3.390  71.669  1.00  0.00     0.087 A
HETATM   20  F1  UNL     1      73.151  -2.612  72.998  1.00  0.00    -0.205 F
HETATM   21  C6  UNL     1      70.797  -3.634  70.428  1.00  0.00     0.113 A
HETATM   22  S1  UNL     1      72.105  -3.142  69.399  1.00  0.00    -0.066 SA
BRANCH  21  23
HETATM   23  O1  UNL     1      69.572  -4.134  70.006  1.00  0.00    -0.343 OA
BRANCH  23  24
HETATM   24  C5  UNL     1      68.892  -5.206  70.521  1.00  0.00     0.181 C
BRANCH  24  25
HETATM   25  C4  UNL     1      69.842  -6.332  70.846  1.00  0.00     0.013 C
HETATM   26  C3  UNL     1      69.551  -7.403  69.775  1.00  0.00     0.026 C
HETATM   27  C2  UNL     1      70.526  -8.543  69.967  1.00  0.00     0.117 C
HETATM   28  N1  UNL     1      70.463  -9.023  71.309  1.00  0.00    -0.417 N
HETATM   29  C1  UNL     1      71.725  -9.246  71.938  1.00  0.00     0.143 C
HETATM   30  C22 UNL     1      69.479  -8.386  72.121  1.00  0.00     0.117 C
HETATM   31  C21 UNL     1      69.589  -6.901  72.227  1.00  0.00     0.026 C
ENDBRANCH  24  25
ENDBRANCH  23  24
ENDBRANCH  21  23
ENDBRANCH   1  17
TORSDOF 4
ENDMDL