MODEL 3
REMARK VINA RESULT: -7.980582366      0.875      1.211
REMARK  6 active torsions:
REMARK  status: ('A' for Active; 'I' for Inactive)
REMARK    1  A    between atoms: C4_4  and  C5_5
REMARK    2  A    between atoms: C6_6  and  C7_7
REMARK    3  A    between atoms: C9_10  and  C10_11
REMARK    4  A    between atoms: N2_14  and  C13_15
REMARK    5  A    between atoms: C13_15  and  S1_16
REMARK    6  A    between atoms: S1_16  and  C14_17
ROOT
HETATM    1  C7  UNL     1      69.100  -6.345  71.929  1.00  0.00     0.100 C
HETATM    2  C8  UNL     1      69.640  -5.816  73.135  1.00  0.00     0.108 C
HETATM    3  N1  UNL     1      70.076  -5.349  74.135  1.00  0.00    -0.191 NA
HETATM    4  C9  UNL     1      69.253  -7.597  71.601  1.00  0.00     0.061 C
ENDROOT
BRANCH   1   5
HETATM    5  C6  UNL     1      68.357  -5.439  71.060  1.00  0.00    -0.055 C
HETATM    6  C5  UNL     1      67.746  -4.712  70.324  1.00  0.00    -0.090 C
BRANCH   6   7
HETATM    7  C4  UNL     1      66.983  -3.835  69.393  1.00  0.00     0.106 C
HETATM    8  C3  UNL     1      67.920  -3.078  68.522  1.00  0.00    -0.006 C
HETATM    9  C2  UNL     1      67.492  -2.552  67.405  1.00  0.00    -0.086 C
HETATM   10  C1  UNL     1      68.424  -1.800  66.540  1.00  0.00     0.043 C
HETATM   11  C21 UNL     1      66.045  -2.761  67.071  1.00  0.00     0.035 C
HETATM   12  C20 UNL     1      65.806  -4.244  67.193  1.00  0.00     0.026 C
HETATM   13  C19 UNL     1      66.151  -4.775  68.546  1.00  0.00     0.102 C
HETATM   14 CL1  UNL     1      67.016  -6.336  68.330  1.00  0.00    -0.123 Cl
ENDBRANCH   6   7
ENDBRANCH   1   5
BRANCH   4  15
HETATM   15  C10 UNL     1      69.963  -8.591  72.369  1.00  0.00     0.039 A
HETATM   16  C11 UNL     1      71.198  -9.010  71.929  1.00  0.00     0.047 A
HETATM   17  C12 UNL     1      71.891  -9.952  72.639  1.00  0.00     0.099 A
HETATM   18  N2  UNL     1      71.308 -10.440  73.779  1.00  0.00    -0.300 N
HETATM   19  C18 UNL     1      70.122 -10.023  74.184  1.00  0.00     0.327 A
HETATM   20  O3  UNL     1      69.639 -10.526  75.259  1.00  0.00    -0.246 OA
HETATM   21  N3  UNL     1      69.454  -9.110  73.489  1.00  0.00    -0.308 N
ATOM     22  H3  UNL     1      68.538  -8.801  73.816  1.00  0.00     0.170 HD
BRANCH  18  23
HETATM   23  C13 UNL     1      72.092 -11.427  74.482  1.00  0.00     0.207 C
BRANCH  23  24
HETATM   24  S1  UNL     1      72.033 -13.014  73.705  1.00  0.00    -0.134 SA
BRANCH  24  25
HETATM   25  C14 UNL     1      70.390 -13.733  73.720  1.00  0.00     0.150 C
HETATM   26  C15 UNL     1      70.083 -14.044  75.200  1.00  0.00     0.052 C
HETATM   27  C16 UNL     1      71.182 -15.096  75.433  1.00  0.00     0.180 C
HETATM   28  O1  UNL     1      71.019 -15.903  74.261  1.00  0.00    -0.321 OA
HETATM   29  C17 UNL     1      70.477 -15.150  73.228  1.00  0.00     0.272 C
HETATM   30  O2  UNL     1      70.130 -15.566  72.116  1.00  0.00    -0.264 OA
ENDBRANCH  24  25
ENDBRANCH  23  24
ENDBRANCH  18  23
ENDBRANCH   4  15
TORSDOF 6
ENDMDL