MODEL 2
REMARK VINA RESULT: -7.981865570      2.249      2.754
REMARK  4 active torsions:
REMARK  status: ('A' for Active; 'I' for Inactive)
REMARK    1  A    between atoms: C6_8  and  O1_9
REMARK    2  A    between atoms: O1_9  and  C7_10
REMARK    3  A    between atoms: C7_10  and  C8_11
REMARK    4  A    between atoms: C8_11  and  C9_12
ROOT
HETATM    1  C9  UNL     1      73.754  -3.306  72.735  1.00  0.00     0.131 C
HETATM    2  O2  UNL     1      74.440  -3.021  73.893  1.00  0.00    -0.383 OA
HETATM    3  C10 UNL     1      75.298  -1.963  73.687  1.00  0.00     0.200 C
HETATM    4  C11 UNL     1      75.234  -1.599  72.218  1.00  0.00     0.153 C
HETATM    5  O3  UNL     1      76.458  -1.222  71.741  1.00  0.00    -0.371 OA
HETATM    6  C12 UNL     1      76.410  -0.541  70.532  1.00  0.00     0.182 C
HETATM    7  C13 UNL     1      77.104  -1.375  69.448  1.00  0.00     0.039 C
HETATM    8  C14 UNL     1      77.420  -2.759  69.897  1.00  0.00     0.003 C
HETATM    9  C15 UNL     1      76.468  -3.820  69.537  1.00  0.00     0.001 C
HETATM   10  C16 UNL     1      75.081  -3.444  69.217  1.00  0.00     0.012 C
HETATM   11  C17 UNL     1      74.230  -2.868  70.287  1.00  0.00     0.055 C
HETATM   12  C18 UNL     1      74.031  -1.433  69.949  1.00  0.00     0.096 A
HETATM   13  O4  UNL     1      72.940  -0.880  69.496  1.00  0.00    -0.257 OA
HETATM   14  C19 UNL     1      73.194   0.403  69.331  1.00  0.00     0.416 A
HETATM   15  O5  UNL     1      72.415   1.310  68.909  1.00  0.00    -0.229 OA
HETATM   16  O6  UNL     1      74.431   0.662  69.674  1.00  0.00    -0.254 OA
HETATM   17  C20 UNL     1      74.978  -0.441  70.059  1.00  0.00     0.118 A
HETATM   18  C21 UNL     1      74.750  -2.947  71.663  1.00  0.00     0.056 C
ENDROOT
BRANCH   1  19
HETATM   19  C8  UNL     1      72.485  -2.541  72.691  1.00  0.00     0.059 C
BRANCH  19  20
HETATM   20  C7  UNL     1      71.484  -3.287  73.582  1.00  0.00     0.180 C
BRANCH  20  21
HETATM   21  O1  UNL     1      70.369  -3.618  72.812  1.00  0.00    -0.335 OA
BRANCH  21  22
HETATM   22  C6  UNL     1      70.218  -4.729  72.028  1.00  0.00     0.151 A
HETATM   23  C2  UNL     1      70.395  -4.781  70.670  1.00  0.00    -0.008 A
HETATM   24  C1  UNL     1      70.779  -3.681  69.764  1.00  0.00     0.052 C
HETATM   25  C3  UNL     1      70.149  -6.073  70.266  1.00  0.00     0.053 A
HETATM   26  C4  UNL     1      69.823  -6.788  71.394  1.00  0.00     0.107 A
HETATM   27 CL1  UNL     1      69.410  -8.511  71.466  1.00  0.00    -0.064 Cl
HETATM   28  N1  UNL     1      69.873  -5.950  72.441  1.00  0.00    -0.322 N
HETATM   29  C5  UNL     1      69.581  -6.376  73.823  1.00  0.00     0.159 C
ENDBRANCH  21  22
ENDBRANCH  20  21
ENDBRANCH  19  20
ENDBRANCH   1  19
TORSDOF 4
ENDMDL