MODEL 5
REMARK VINA RESULT: -5.830929955      4.360      6.250
REMARK  6 active torsions:
REMARK  status: ('A' for Active; 'I' for Inactive)
REMARK    1  A    between atoms: C2_2  and  S1_3
REMARK    2  A    between atoms: S1_3  and  C3_4
REMARK    3  A    between atoms: C3_4  and  N1_6
REMARK    4  A    between atoms: N2_9  and  C6_10
REMARK    5  A    between atoms: C10_19  and  C11_20
REMARK    6  A    between atoms: C11_20  and  C12_22
ROOT
HETATM    1  C6  UNL     1      74.928  -2.221  69.876  1.00  0.00     0.118 A
HETATM    2  N3  UNL     1      75.444  -3.489  70.018  1.00  0.00    -0.338 N
ATOM      3  H3  UNL     1      74.835  -4.204  70.415  1.00  0.00     0.168 HD
HETATM    4  C7  UNL     1      76.664  -3.850  69.681  1.00  0.00     0.182 A
HETATM    5  N4  UNL     1      77.467  -2.917  69.162  1.00  0.00    -0.346 N
ATOM      6  H4  UNL     1      78.420  -3.155  68.888  1.00  0.00     0.167 HD
HETATM    7  C8  UNL     1      77.002  -1.636  68.999  1.00  0.00     0.089 A
HETATM    8  S3  UNL     1      77.760  -0.237  68.379  1.00  0.00    -0.082 SA
HETATM    9  C9  UNL     1      76.505   0.855  68.547  1.00  0.00     0.068 A
HETATM   10  C10 UNL     1      75.453   0.095  69.110  1.00  0.00     0.037 A
HETATM   11  C15 UNL     1      75.730  -1.215  69.340  1.00  0.00     0.056 A
ENDROOT
BRANCH   1  12
HETATM   12  N2  UNL     1      73.599  -2.134  70.258  1.00  0.00    -0.363 N
HETATM   13  C5  UNL     1      72.511  -2.371  69.356  1.00  0.00     0.144 C
HETATM   14  C4  UNL     1      71.665  -3.550  69.846  1.00  0.00     0.144 C
HETATM   15  N1  UNL     1      71.498  -3.478  71.327  1.00  0.00    -0.363 N
HETATM   16  C17 UNL     1      71.755  -2.174  71.863  1.00  0.00     0.144 C
HETATM   17  C16 UNL     1      73.250  -1.893  71.639  1.00  0.00     0.144 C
BRANCH  15  18
HETATM   18  C3  UNL     1      71.154  -4.667  71.949  1.00  0.00     0.136 C
HETATM   19  S2  UNL     1      72.045  -5.054  73.343  1.00  0.00    -0.053 SA
BRANCH  18  20
HETATM   20  S1  UNL     1      69.946  -5.813  71.507  1.00  0.00    -0.101 SA
BRANCH  20  21
HETATM   21  C2  UNL     1      70.057  -6.759  70.036  1.00  0.00     0.077 C
HETATM   22  C1  UNL     1      70.309  -8.242  70.291  1.00  0.00     0.016 C
ENDBRANCH  20  21
ENDBRANCH  18  20
ENDBRANCH  15  18
ENDBRANCH   1  12
BRANCH  10  23
HETATM   23  C11 UNL     1      74.239   0.857  69.476  1.00  0.00     0.184 C
HETATM   24  O1  UNL     1      73.204   0.731  68.776  1.00  0.00    -0.287 OA
BRANCH  23  25
HETATM   25  C12 UNL     1      74.147   1.743  70.595  1.00  0.00     0.074 C
HETATM   26  C13 UNL     1      74.370   3.009  70.721  1.00  0.00     0.011 C
HETATM   27  C14 UNL     1      74.172   3.630  72.085  1.00  0.00     0.062 C
HETATM   28 CL1  UNL     1      74.832   4.087  69.458  1.00  0.00    -0.089 Cl
ENDBRANCH  23  25
ENDBRANCH  10  23
TORSDOF 6
ENDMDL