MODEL 5
REMARK VINA RESULT: -7.748557483      1.633      2.328
REMARK  4 active torsions:
REMARK  status: ('A' for Active; 'I' for Inactive)
REMARK    1  A    between atoms: C8_9  and  C9_10
REMARK    2  A    between atoms: C9_10  and  O1_11
REMARK    3  A    between atoms: O1_11  and  C10_12
REMARK    4  A    between atoms: C13_20  and  N3_21
ROOT
HETATM    1  C10 UNL     1      71.638  -4.906  73.167  1.00  0.00     0.173 A
HETATM    2  N1  UNL     1      72.297  -5.737  73.969  1.00  0.00    -0.331 N
ATOM      3  H1  UNL     1      73.042  -5.319  74.527  1.00  0.00     0.168 HD
HETATM    4  C11 UNL     1      72.111  -7.030  74.135  1.00  0.00     0.183 A
HETATM    5  N2  UNL     1      71.117  -7.598  73.393  1.00  0.00    -0.345 N
ATOM      6  H2  UNL     1      70.921  -8.595  73.473  1.00  0.00     0.167 HD
HETATM    7  C12 UNL     1      70.389  -6.822  72.543  1.00  0.00     0.109 A
HETATM    8  S1  UNL     1      69.083  -7.094  71.446  1.00  0.00    -0.034 SA
HETATM    9  C13 UNL     1      68.899  -5.481  70.868  1.00  0.00     0.149 A
HETATM   10  N4  UNL     1      69.831  -4.854  71.539  1.00  0.00    -0.331 N
ATOM     11  H4  UNL     1      69.962  -3.852  71.398  1.00  0.00     0.168 HD
HETATM   12  C18 UNL     1      70.594  -5.487  72.384  1.00  0.00     0.120 A
ENDROOT
BRANCH   1  13
HETATM   13  O1  UNL     1      71.889  -3.575  73.055  1.00  0.00    -0.333 OA
BRANCH  13  14
HETATM   14  C9  UNL     1      71.834  -2.564  72.195  1.00  0.00     0.187 C
BRANCH  14  15
HETATM   15  C8  UNL     1      72.900  -2.263  71.207  1.00  0.00    -0.016 C
HETATM   16  C7  UNL     1      72.511  -3.003  69.906  1.00  0.00     0.016 C
HETATM   17  C5  UNL     1      73.526  -2.789  68.832  1.00  0.00    -0.012 C
HETATM   18  C4  UNL     1      73.553  -1.299  68.540  1.00  0.00     0.009 C
HETATM   19  C6  UNL     1      74.902  -3.257  69.212  1.00  0.00     0.030 C
HETATM   20  C3  UNL     1      74.073  -0.603  69.750  1.00  0.00    -0.012 C
HETATM   21  C2  UNL     1      75.412  -1.125  70.230  1.00  0.00     0.030 C
HETATM   22  C19 UNL     1      73.118  -0.828  70.942  1.00  0.00     0.016 C
HETATM   23  C1  UNL     1      75.247  -2.594  70.531  1.00  0.00     0.038 C
HETATM   24 CL1  UNL     1      76.827  -3.240  71.044  1.00  0.00    -0.119 Cl
HETATM   25  C20 UNL     1      74.235  -2.903  71.582  1.00  0.00     0.037 C
ENDBRANCH  14  15
ENDBRANCH  13  14
ENDBRANCH   1  13
BRANCH   9  26
HETATM   26  N3  UNL     1      67.952  -5.027  69.906  1.00  0.00    -0.357 N
HETATM   27  C14 UNL     1      67.677  -3.611  69.838  1.00  0.00     0.151 C
HETATM   28  C15 UNL     1      67.481  -3.173  68.416  1.00  0.00     0.187 C
HETATM   29  O2  UNL     1      66.853  -4.097  67.620  1.00  0.00    -0.388 OA
HETATM   30  C16 UNL     1      66.200  -5.100  68.295  1.00  0.00     0.187 C
HETATM   31  C17 UNL     1      67.279  -5.915  69.023  1.00  0.00     0.151 C
ENDBRANCH   9  26
TORSDOF 4
ENDMDL