MODEL 5
REMARK VINA RESULT: -7.944737974      3.087      6.665
REMARK  4 active torsions:
REMARK  status: ('A' for Active; 'I' for Inactive)
REMARK    1  A    between atoms: C3_6  and  C4_7
REMARK       I    between atoms: N2_11  and  C8_12
REMARK    2  A    between atoms: C8_12  and  C9_14
REMARK    3  A    between atoms: C9_14  and  C10_15
REMARK    4  A    between atoms: C15_22  and  C16_23
ROOT
HETATM    1  C10 UNL     1      70.937  -4.908  72.100  1.00  0.00     0.143 C
HETATM    2  O3  UNL     1      71.822  -5.849  72.589  1.00  0.00    -0.349 OA
HETATM    3  C11 UNL     1      71.343  -6.626  73.607  1.00  0.00     0.157 C
HETATM    4  C12 UNL     1      71.488  -5.895  74.929  1.00  0.00     0.078 C
HETATM    5  C13 UNL     1      72.276  -7.843  73.712  1.00  0.00     0.078 C
HETATM    6  O4  UNL     1      70.071  -7.139  73.433  1.00  0.00    -0.355 OA
HETATM    7  C14 UNL     1      69.148  -6.170  73.045  1.00  0.00     0.182 C
HETATM    8  C15 UNL     1      69.680  -5.662  71.689  1.00  0.00     0.062 C
ENDROOT
BRANCH   1   9
HETATM    9  C9  UNL     1      71.524  -4.098  71.009  1.00  0.00     0.135 C
BRANCH   9  10
HETATM   10  C8  UNL     1      71.975  -2.793  71.539  1.00  0.00     0.223 C
HETATM   11  N2  UNL     1      72.788  -1.900  70.754  1.00  0.00    -0.340 N
HETATM   12  C4  UNL     1      73.273  -2.103  69.403  1.00  0.00     0.164 C
HETATM   13  C7  UNL     1      73.289  -0.605  71.160  1.00  0.00     0.127 C
HETATM   14  C5  UNL     1      73.043  -0.717  68.795  1.00  0.00     0.035 C
HETATM   15  C6  UNL     1      73.255   0.253  69.927  1.00  0.00     0.022 C
HETATM   16  O2  UNL     1      71.653  -2.441  72.697  1.00  0.00    -0.273 OA
BRANCH  12  17
HETATM   17  C3  UNL     1      74.751  -2.307  69.402  1.00  0.00     0.171 A
HETATM   18  O1  UNL     1      75.673  -1.813  68.627  1.00  0.00    -0.221 OA
HETATM   19  N1  UNL     1      76.858  -2.245  68.962  1.00  0.00    -0.247 N
HETATM   20  C2  UNL     1      76.726  -3.063  70.004  1.00  0.00     0.100 A
ATOM     21  H1  UNL     1      77.734  -1.998  68.504  1.00  0.00     0.196 HD
HETATM   22  C1  UNL     1      77.830  -3.766  70.691  1.00  0.00     0.091 C
HETATM   23  N3  UNL     1      75.410  -3.108  70.287  1.00  0.00    -0.325 N
ATOM     24  H3  UNL     1      74.979  -3.649  71.037  1.00  0.00     0.169 HD
ENDBRANCH  12  17
ENDBRANCH   9  10
ENDBRANCH   1   9
BRANCH   8  25
HETATM   25  C16 UNL     1      68.653  -4.780  71.138  1.00  0.00    -0.012 C
HETATM   26  C17 UNL     1      67.819  -5.196  70.207  1.00  0.00    -0.050 C
HETATM   27  C18 UNL     1      66.782  -4.211  69.687  1.00  0.00     0.037 C
HETATM   28  C22 UNL     1      67.870  -6.567  69.687  1.00  0.00     0.199 C
HETATM   29  C19 UNL     1      66.733  -4.521  68.183  1.00  0.00     0.004 C
HETATM   30  C20 UNL     1      66.048  -5.862  68.070  1.00  0.00     0.003 C
HETATM   31  C21 UNL     1      66.650  -6.943  68.880  1.00  0.00     0.042 C
HETATM   32  F1  UNL     1      68.949  -6.691  68.840  1.00  0.00    -0.245 F
ENDBRANCH   8  25
TORSDOF 4
ENDMDL