MODEL 2
REMARK VINA RESULT: -6.747549574      3.356      4.548
REMARK  4 active torsions:
REMARK  status: ('A' for Active; 'I' for Inactive)
REMARK    1  A    between atoms: C2_2  and  C3_3
REMARK    2  A    between atoms: C5_5  and  C6_6
REMARK    3  A    between atoms: C5_5  and  N2_16
REMARK    4  A    between atoms: C6_6  and  C8_9
ROOT
HETATM    1  C6  UNL     1      71.109  -4.868  70.757  1.00  0.00     0.184 C
HETATM    2  C7  UNL     1      71.705  -3.917  69.823  1.00  0.00     0.075 C
HETATM    3  N1  UNL     1      72.146  -3.153  69.064  1.00  0.00    -0.196 NA
ENDROOT
BRANCH   1   4
HETATM    4  C5  UNL     1      71.489  -4.750  72.158  1.00  0.00     0.118 C
HETATM    5  C4  UNL     1      71.383  -5.537  73.171  1.00  0.00     0.042 C
HETATM    6  C3  UNL     1      70.804  -6.915  73.291  1.00  0.00     0.043 C
HETATM    7  S1  UNL     1      72.069  -4.955  74.753  1.00  0.00     0.035 SA
HETATM    8  C16 UNL     1      69.772  -6.994  74.336  1.00  0.00     0.099 C
HETATM    9  C14 UNL     1      69.849  -6.200  75.544  1.00  0.00     0.159 C
HETATM   10  C15 UNL     1      69.398  -8.321  74.919  1.00  0.00     0.215 C
HETATM   11  O3  UNL     1      70.679  -5.124  75.818  1.00  0.00    -0.259 OA
HETATM   12  N3  UNL     1      68.967  -6.693  76.358  1.00  0.00    -0.247 N
HETATM   13  O4  UNL     1      68.309  -7.775  75.758  1.00  0.00    -0.278 OA
ATOM     14  H3  UNL     1      68.779  -6.344  77.298  1.00  0.00     0.196 HD
BRANCH   6  15
HETATM   15  C2  UNL     1      71.961  -7.876  73.366  1.00  0.00     0.006 C
HETATM   16  C1  UNL     1      71.899  -9.093  72.529  1.00  0.00     0.006 C
ENDBRANCH   6  15
BRANCH   4  17
HETATM   17  N2  UNL     1      72.022  -3.406  72.478  1.00  0.00    -0.117 N
HETATM   18  O1  UNL     1      71.195  -2.594  72.904  1.00  0.00    -0.532 OA
HETATM   19  O2  UNL     1      73.340  -3.106  72.319  1.00  0.00    -0.532 OA
ENDBRANCH   4  17
ENDBRANCH   1   4
BRANCH   1  20
HETATM   20  C8  UNL     1      69.635  -4.823  70.592  1.00  0.00    -0.017 A
HETATM   21  C9  UNL     1      68.925  -3.676  70.816  1.00  0.00     0.010 A
HETATM   22  C10 UNL     1      67.548  -3.661  70.626  1.00  0.00     0.001 A
HETATM   23  C11 UNL     1      66.877  -4.787  70.214  1.00  0.00     0.001 A
HETATM   24  C12 UNL     1      67.581  -5.934  69.988  1.00  0.00     0.019 A
HETATM   25  C13 UNL     1      68.964  -5.942  70.180  1.00  0.00     0.018 A
HETATM   26 BR1  UNL     1      69.863  -7.582  69.843  1.00  0.00    -0.051 Br
ENDBRANCH   1  20
TORSDOF 4
ENDMDL