MODEL 2
REMARK VINA RESULT: -7.213968220      1.334      1.558
REMARK  4 active torsions:
REMARK  status: ('A' for Active; 'I' for Inactive)
REMARK    1  A    between atoms: C2_2  and  C4_5
REMARK    2  A    between atoms: C5_8  and  N2_9
REMARK    3  A    between atoms: N3_14  and  C10_15
REMARK    4  A    between atoms: C10_15  and  C11_16
ROOT
HETATM    1  N2  UNL     1      74.569  -1.891  68.771  1.00  0.00    -0.214 N
HETATM    2  C6  UNL     1      73.333  -1.301  69.218  1.00  0.00     0.152 C
HETATM    3  C7  UNL     1      72.839  -2.619  69.775  1.00  0.00    -0.004 C
HETATM    4  C8  UNL     1      72.771  -2.723  71.265  1.00  0.00     0.043 C
HETATM    5  C9  UNL     1      71.341  -2.826  71.719  1.00  0.00     0.273 C
HETATM    6  N3  UNL     1      70.738  -4.015  71.198  1.00  0.00     0.088 N
HETATM    7  C16 UNL     1      71.169  -4.395  69.882  1.00  0.00     0.273 C
HETATM    8  C17 UNL     1      71.605  -3.160  69.126  1.00  0.00     0.043 C
HETATM    9  C18 UNL     1      74.085  -3.201  69.147  1.00  0.00     0.152 C
ENDROOT
BRANCH   1  10
HETATM   10  C5  UNL     1      75.768  -1.402  68.198  1.00  0.00     0.703 A
HETATM   11  N1  UNL     1      75.901  -1.049  66.886  1.00  0.00    -0.189 N
HETATM   12  C4  UNL     1      77.121  -0.624  66.621  1.00  0.00     0.086 A
ATOM     13  H1  UNL     1      75.152  -1.107  66.196  1.00  0.00     0.184 HD
HETATM   14  C20 UNL     1      77.793  -0.719  67.853  1.00  0.00     0.141 A
HETATM   15  N4  UNL     1      76.984  -1.184  68.803  1.00  0.00    -0.077 N
HETATM   16  S1  UNL     1      79.246  -0.496  68.724  1.00  0.00    -0.061 SA
HETATM   17  N5  UNL     1      77.451  -1.330  69.989  1.00  0.00    -0.283 N
HETATM   18  C19 UNL     1      78.705  -1.023  70.259  1.00  0.00     0.160 A
ATOM     19  H5  UNL     1      76.847  -1.685  70.730  1.00  0.00     0.187 HD
BRANCH  12  20
HETATM   20  C2  UNL     1      77.803  -0.130  65.410  1.00  0.00     0.075 C
HETATM   21  C1  UNL     1      76.798  -0.266  64.257  1.00  0.00     0.039 C
HETATM   22  C3  UNL     1      78.094   1.347  65.553  1.00  0.00     0.039 C
HETATM   23 CL1  UNL     1      79.277  -1.014  65.025  1.00  0.00    -0.113 Cl
ENDBRANCH  12  20
ENDBRANCH   1  10
BRANCH   6  24
HETATM   24  C10 UNL     1      69.310  -4.044  71.264  1.00  0.00     0.277 C
BRANCH  24  25
HETATM   25  C11 UNL     1      68.685  -4.627  70.011  1.00  0.00     0.018 C
HETATM   26  C12 UNL     1      67.787  -5.794  70.382  1.00  0.00     0.032 C
HETATM   27  C13 UNL     1      67.186  -6.380  69.133  1.00  0.00     0.168 C
HETATM   28  O1  UNL     1      66.729  -5.411  68.253  1.00  0.00    -0.391 OA
HETATM   29  C14 UNL     1      66.468  -4.210  68.937  1.00  0.00     0.168 C
HETATM   30  C15 UNL     1      67.771  -3.576  69.363  1.00  0.00     0.032 C
ENDBRANCH  24  25
ENDBRANCH   6  24
TORSDOF 4
ENDMDL