MODEL 2
REMARK VINA RESULT: -7.451102585      0.414      1.041
REMARK  4 active torsions:
REMARK  status: ('A' for Active; 'I' for Inactive)
REMARK    1  A    between atoms: S1_2  and  C1_4
REMARK    2  A    between atoms: S1_2  and  N2_16
REMARK    3  A    between atoms: C2_6  and  C3_7
REMARK    4  A    between atoms: C11_20  and  C12_21
ROOT
HETATM    1  O1  UNL     1      67.681  -6.508  72.151  1.00  0.00    -0.205 OA
HETATM    2  S1  UNL     1      68.498  -7.019  70.997  1.00  0.00     0.253 S
HETATM    3  O2  UNL     1      67.694  -7.994  70.224  1.00  0.00    -0.205 OA
ENDROOT
BRANCH   2   4
HETATM    4  C1  UNL     1      69.897  -7.824  71.693  1.00  0.00     0.155 A
HETATM    5  S2  UNL     1      70.482  -7.763  73.321  1.00  0.00    -0.055 SA
HETATM    6  C2  UNL     1      71.844  -8.764  73.138  1.00  0.00     0.093 A
HETATM    7  N1  UNL     1      71.789  -9.093  71.859  1.00  0.00    -0.338 N
HETATM    8  C7  UNL     1      70.833  -8.640  71.116  1.00  0.00     0.134 A
ATOM      9  H1  UNL     1      72.501  -9.704  71.458  1.00  0.00     0.167 HD
HETATM   10 CL1  UNL     1      70.722  -9.030  69.375  1.00  0.00    -0.062 Cl
BRANCH   6  11
HETATM   11  C3  UNL     1      72.863  -9.197  74.102  1.00  0.00     0.038 A
HETATM   12  C4  UNL     1      73.889  -8.447  74.602  1.00  0.00     0.022 A
HETATM   13  C5  UNL     1      74.713  -9.036  75.477  1.00  0.00     0.008 A
HETATM   14  C6  UNL     1      74.458 -10.345  75.800  1.00  0.00     0.050 A
HETATM   15  S3  UNL     1      73.073 -10.700  74.865  1.00  0.00    -0.099 SA
ENDBRANCH   6  11
ENDBRANCH   2   4
BRANCH   2  16
HETATM   16  N2  UNL     1      68.952  -5.692  70.038  1.00  0.00    -0.201 NA
HETATM   17  C8  UNL     1      70.289  -5.222  70.210  1.00  0.00     0.108 C
HETATM   18  C9  UNL     1      70.241  -4.142  71.270  1.00  0.00     0.017 C
HETATM   19  C10 UNL     1      68.890  -3.509  71.010  1.00  0.00     0.022 C
HETATM   20  C11 UNL     1      68.079  -4.572  70.349  1.00  0.00     0.078 C
BRANCH  20  21
HETATM   21  C12 UNL     1      67.321  -4.040  69.181  1.00  0.00     0.008 C
HETATM   22  C13 UNL     1      68.052  -2.988  68.382  1.00  0.00     0.032 C
HETATM   23  C14 UNL     1      67.232  -2.606  67.167  1.00  0.00     0.168 C
HETATM   24  O3  UNL     1      65.921  -3.090  67.275  1.00  0.00    -0.391 OA
HETATM   25  C15 UNL     1      65.898  -4.484  67.234  1.00  0.00     0.168 C
HETATM   26  C16 UNL     1      66.788  -5.112  68.253  1.00  0.00     0.032 C
ENDBRANCH  20  21
ENDBRANCH   2  16
TORSDOF 4
ENDMDL