MODEL 1
REMARK VINA RESULT: -7.574257731      0.000      0.000
REMARK  5 active torsions:
REMARK  status: ('A' for Active; 'I' for Inactive)
REMARK    1  A    between atoms: O1_2  and  C2_3
REMARK    2  A    between atoms: C4_5  and  O2_6
REMARK    3  A    between atoms: C6_8  and  C7_9
REMARK    4  A    between atoms: C8_11  and  C9_12
REMARK    5  A    between atoms: C15_19  and  N1_20
ROOT
HETATM    1  C7  UNL     1      70.062  -4.759  72.049  1.00  0.00     0.165 C
HETATM    2  O3  UNL     1      68.722  -5.075  71.757  1.00  0.00    -0.370 OA
HETATM    3  C8  UNL     1      68.760  -3.976  70.862  1.00  0.00     0.180 C
HETATM    4  C15 UNL     1      70.206  -4.308  70.635  1.00  0.00     0.147 C
ENDROOT
BRANCH   1   5
HETATM    5  C6  UNL     1      70.906  -5.876  72.529  1.00  0.00     0.119 C
HETATM    6  C4  UNL     1      70.274  -7.170  72.804  1.00  0.00     0.141 C
HETATM    7  C3  UNL     1      69.223  -7.299  73.811  1.00  0.00     0.077 C
HETATM    8  C2  UNL     1      69.744  -7.581  75.225  1.00  0.00     0.196 C
HETATM    9  S3  UNL     1      69.543  -6.088  76.249  1.00  0.00    -0.054 SA
HETATM   10  S2  UNL     1      70.517  -4.412  75.325  1.00  0.00    -0.022 SA
HETATM   11  S1  UNL     1      71.909  -5.239  73.910  1.00  0.00    -0.076 SA
BRANCH   6  12
HETATM   12  O2  UNL     1      71.309  -8.069  73.155  1.00  0.00    -0.389 OA
HETATM   13  C5  UNL     1      71.692  -8.879  72.110  1.00  0.00     0.202 C
ENDBRANCH   6  12
BRANCH   8  14
HETATM   14  O1  UNL     1      69.064  -8.601  75.845  1.00  0.00    -0.380 OA
HETATM   15  C1  UNL     1      69.498  -9.863  75.430  1.00  0.00     0.203 C
ENDBRANCH   8  14
ENDBRANCH   1   5
BRANCH   4  16
HETATM   16  N1  UNL     1      71.012  -3.251  70.279  1.00  0.00    -0.383 N
HETATM   17  C16 UNL     1      71.716  -2.456  71.176  1.00  0.00     0.059 C
HETATM   18  C17 UNL     1      73.164  -2.537  70.728  1.00  0.00     0.046 C
HETATM   19  C18 UNL     1      73.021  -2.585  69.223  1.00  0.00     0.025 C
HETATM   20  C19 UNL     1      71.670  -3.241  69.024  1.00  0.00     0.123 C
ENDBRANCH   4  16
BRANCH   3  21
HETATM   21  C9  UNL     1      67.872  -4.148  69.694  1.00  0.00    -0.027 A
HETATM   22  C10 UNL     1      67.675  -3.085  68.844  1.00  0.00     0.013 A
HETATM   23  C11 UNL     1      66.841  -3.241  67.744  1.00  0.00     0.043 A
HETATM   24  C12 UNL     1      66.195  -4.431  67.469  1.00  0.00     0.116 A
HETATM   25  F1  UNL     1      65.380  -4.570  66.388  1.00  0.00    -0.206 F
HETATM   26  C13 UNL     1      66.407  -5.483  68.336  1.00  0.00     0.043 A
HETATM   27  C14 UNL     1      67.237  -5.345  69.439  1.00  0.00     0.013 A
ENDBRANCH   3  21
TORSDOF 5
ENDMDL