MODEL 3
REMARK VINA RESULT: -8.076758520      5.369      8.446
REMARK  5 active torsions:
REMARK  status: ('A' for Active; 'I' for Inactive)
REMARK    1  A    between atoms: C6_6  and  O1_7
REMARK    2  A    between atoms: O1_7  and  C7_8
REMARK    3  A    between atoms: N1_18  and  C16_19
REMARK    4  A    between atoms: C16_19  and  C17_20
REMARK    5  A    between atoms: C17_20  and  C18_21
ROOT
HETATM    1  C7  UNL     1      69.861  -3.732  70.869  1.00  0.00     0.139 C
HETATM    2  C8  UNL     1      70.793  -4.948  70.872  1.00  0.00     0.104 C
HETATM    3  C9  UNL     1      70.591  -5.017  72.358  1.00  0.00     0.202 C
HETATM    4  C10 UNL     1      70.358  -3.492  72.312  1.00  0.00     0.104 C
HETATM    5  O2  UNL     1      71.654  -5.259  73.148  1.00  0.00    -0.352 OA
HETATM    6  C11 UNL     1      72.047  -6.503  73.447  1.00  0.00     0.177 C
HETATM    7  C12 UNL     1      71.365  -7.666  72.837  1.00  0.00     0.101 C
HETATM    8  C13 UNL     1      69.887  -7.674  72.909  1.00  0.00     0.238 C
HETATM    9  C14 UNL     1      69.332  -7.404  74.281  1.00  0.00     0.121 C
HETATM   10  C15 UNL     1      69.503  -8.587  75.178  1.00  0.00     0.098 C
HETATM   11  N1  UNL     1      69.687  -9.828  74.536  1.00  0.00    -0.242 N
HETATM   12  O3  UNL     1      69.970  -9.822  73.249  1.00  0.00    -0.108 OA
HETATM   13  O4  UNL     1      69.411  -8.918  72.515  1.00  0.00    -0.173 OA
HETATM   14  O5  UNL     1      69.298  -6.734  72.037  1.00  0.00    -0.194 OA
HETATM   15  O6  UNL     1      69.394  -5.597  72.696  1.00  0.00    -0.197 OA
ENDROOT
BRANCH  11  16
HETATM   16  C16 UNL     1      68.765 -10.865  74.953  1.00  0.00     0.158 C
BRANCH  16  17
HETATM   17  C17 UNL     1      68.949 -12.023  74.028  1.00  0.00     0.029 C
BRANCH  17  18
HETATM   18  C18 UNL     1      68.341 -13.310  74.465  1.00  0.00     0.021 C
HETATM   19  C19 UNL     1      69.341 -13.918  75.466  1.00  0.00     0.007 C
HETATM   20  C20 UNL     1      70.323 -14.699  74.625  1.00  0.00     0.003 C
HETATM   21  C21 UNL     1      69.782 -14.709  73.204  1.00  0.00     0.037 C
HETATM   22  C22 UNL     1      68.329 -14.400  73.433  1.00  0.00     0.174 C
HETATM   23  F1  UNL     1      67.609 -14.139  72.315  1.00  0.00    -0.249 F
ENDBRANCH  17  18
ENDBRANCH  16  17
ENDBRANCH  11  16
BRANCH   1  24
HETATM   24  O1  UNL     1      68.509  -4.043  70.934  1.00  0.00    -0.345 OA
BRANCH  24  25
HETATM   25  C6  UNL     1      67.729  -4.263  69.826  1.00  0.00     0.069 A
HETATM   26  C5  UNL     1      67.107  -5.505  69.627  1.00  0.00     0.037 A
HETATM   27  C4  UNL     1      66.318  -5.781  68.542  1.00  0.00     0.003 A
HETATM   28  C3  UNL     1      66.099  -4.832  67.586  1.00  0.00     0.007 A
HETATM   29  C2  UNL     1      66.686  -3.601  67.737  1.00  0.00    -0.059 A
HETATM   30  C1  UNL     1      66.446  -2.568  66.701  1.00  0.00     0.048 C
HETATM   31  C23 UNL     1      67.492  -3.326  68.850  1.00  0.00     0.043 A
ENDBRANCH  24  25
ENDBRANCH   1  24
TORSDOF 5
ENDMDL