MODEL 4
REMARK VINA RESULT: -7.558871105      2.531      3.234
REMARK  7 active torsions:
REMARK  status: ('A' for Active; 'I' for Inactive)
REMARK    1  A    between atoms: C2_2  and  O2_4
REMARK    2  A    between atoms: O2_4  and  C3_5
REMARK    3  A    between atoms: C3_5  and  C4_6
REMARK    4  A    between atoms: C4_6  and  O4_8
REMARK    5  A    between atoms: O4_8  and  C5_9
REMARK    6  A    between atoms: C5_9  and  C6_10
REMARK    7  A    between atoms: C6_10  and  C8_12
ROOT
HETATM    1  C5  UNL     1      69.963  -5.411  71.967  1.00  0.00     0.127 C
HETATM    2  C12 UNL     1      70.539  -6.291  70.913  1.00  0.00     0.061 C
HETATM    3  C13 UNL     1      70.383  -7.705  71.122  1.00  0.00    -0.025 C
HETATM    4  C14 UNL     1      69.868  -8.427  69.858  1.00  0.00     0.016 C
HETATM    5  C15 UNL     1      71.663  -8.440  71.457  1.00  0.00     0.018 C
HETATM    6  C16 UNL     1      71.127  -9.751  72.061  1.00  0.00     0.019 C
HETATM    7  C17 UNL     1      72.243 -10.464  72.715  1.00  0.00     0.046 C
HETATM    8  C18 UNL     1      72.046 -10.845  74.130  1.00  0.00     0.194 C
HETATM    9  F1  UNL     1      73.236 -10.726  74.863  1.00  0.00    -0.247 F
HETATM   10  C19 UNL     1      71.020 -10.022  74.865  1.00  0.00     0.205 C
HETATM   11  O5  UNL     1      70.719  -8.839  74.178  1.00  0.00    -0.382 OA
HETATM   12  C20 UNL     1      70.076  -9.224  73.003  1.00  0.00     0.140 C
HETATM   13  C21 UNL     1      69.483  -8.061  72.247  1.00  0.00     0.088 C
HETATM   14  S2  UNL     1      69.395  -6.542  73.256  1.00  0.00    -0.122 SA
ENDROOT
BRANCH   1  15
HETATM   15  O4  UNL     1      68.961  -4.567  71.465  1.00  0.00    -0.296 OA
BRANCH  15  16
HETATM   16  C4  UNL     1      67.918  -4.806  70.661  1.00  0.00     0.284 C
HETATM   17  O3  UNL     1      67.137  -5.734  70.957  1.00  0.00    -0.263 OA
BRANCH  16  18
HETATM   18  C3  UNL     1      67.637  -4.011  69.420  1.00  0.00     0.289 C
BRANCH  18  19
HETATM   19  O2  UNL     1      66.289  -4.180  69.018  1.00  0.00    -0.312 OA
BRANCH  19  20
HETATM   20  C2  UNL     1      66.054  -4.295  67.661  1.00  0.00     0.255 C
HETATM   21  C1  UNL     1      66.314  -3.149  66.720  1.00  0.00     0.126 C
HETATM   22  O1  UNL     1      65.613  -5.371  67.177  1.00  0.00    -0.266 OA
ENDBRANCH  19  20
ENDBRANCH  18  19
ENDBRANCH  16  18
ENDBRANCH  15  16
ENDBRANCH   1  15
BRANCH   1  23
HETATM   23  C6  UNL     1      70.976  -4.424  72.532  1.00  0.00     0.067 C
HETATM   24  C7  UNL     1      70.960  -3.229  71.602  1.00  0.00     0.019 C
BRANCH  23  25
HETATM   25  C8  UNL     1      70.737  -4.028  73.935  1.00  0.00    -0.010 A
HETATM   26  C9  UNL     1      69.786  -3.186  74.454  1.00  0.00     0.015 A
HETATM   27  C10 UNL     1      69.771  -2.983  75.769  1.00  0.00     0.008 A
HETATM   28  C11 UNL     1      70.712  -3.632  76.528  1.00  0.00     0.050 A
HETATM   29  S1  UNL     1      71.591  -4.510  75.362  1.00  0.00    -0.106 SA
ENDBRANCH  23  25
ENDBRANCH   1  23
TORSDOF 7
ENDMDL