MODEL 2
REMARK VINA RESULT: -8.417302379      3.280      8.276
REMARK  5 active torsions:
REMARK  status: ('A' for Active; 'I' for Inactive)
REMARK    1  A    between atoms: C4_5  and  C5_6
REMARK    2  A    between atoms: N2_9  and  C8_10
REMARK    3  A    between atoms: N5_24  and  C16_25
REMARK    4  A    between atoms: C16_25  and  C17_26
REMARK    5  A    between atoms: C17_26  and  N6_27
ROOT
HETATM    1  N1  UNL     1      70.433  -8.873  73.865  1.00  0.00    -0.191 NA
HETATM    2  C1  UNL     1      70.225  -7.876  73.297  1.00  0.00     0.101 C
HETATM    3  C2  UNL     1      69.963  -6.641  72.614  1.00  0.00     0.062 A
HETATM    4  C3  UNL     1      70.817  -5.595  72.337  1.00  0.00     0.049 A
HETATM    5  C4  UNL     1      70.141  -4.582  71.647  1.00  0.00     0.019 A
HETATM    6  N5  UNL     1      68.872  -5.037  71.516  1.00  0.00    -0.356 N
HETATM    7  C23 UNL     1      68.750  -6.252  72.081  1.00  0.00     0.113 A
ENDROOT
BRANCH   5   8
HETATM    8  C5  UNL     1      70.705  -3.291  71.176  1.00  0.00     0.073 C
HETATM    9  C6  UNL     1      71.542  -2.695  72.290  1.00  0.00     0.033 C
HETATM   10  C7  UNL     1      72.977  -2.490  71.861  1.00  0.00     0.125 C
HETATM   11  N2  UNL     1      73.022  -1.769  70.604  1.00  0.00    -0.363 N
HETATM   12  C14 UNL     1      72.310  -2.354  69.491  1.00  0.00     0.162 C
HETATM   13  C15 UNL     1      71.510  -3.551  69.943  1.00  0.00     0.198 C
HETATM   14  F1  UNL     1      70.674  -3.913  68.913  1.00  0.00    -0.247 F
BRANCH  11  15
HETATM   15  C8  UNL     1      73.736  -0.574  70.523  1.00  0.00     0.123 A
HETATM   16  N3  UNL     1      73.178   0.626  70.763  1.00  0.00    -0.338 N
HETATM   17  C9  UNL     1      74.008   1.685  70.644  1.00  0.00     0.182 A
ATOM     18  H3  UNL     1      72.195   0.730  71.019  1.00  0.00     0.168 HD
HETATM   19  N4  UNL     1      75.300   1.615  70.315  1.00  0.00    -0.351 N
HETATM   20  C10 UNL     1      75.901   0.410  70.062  1.00  0.00     0.054 A
ATOM     21  H4  UNL     1      75.848   2.473  70.250  1.00  0.00     0.166 HD
HETATM   22  C11 UNL     1      77.193   0.186  69.718  1.00  0.00     0.038 A
HETATM   23  C13 UNL     1      75.090  -0.679  70.174  1.00  0.00     0.075 A
HETATM   24  C12 UNL     1      77.567  -1.109  69.514  1.00  0.00     0.053 A
HETATM   25  S1  UNL     1      76.127  -1.978  69.803  1.00  0.00    -0.096 SA
ENDBRANCH  11  15
ENDBRANCH   5   8
BRANCH   6  26
HETATM   26  C16 UNL     1      67.785  -4.316  70.861  1.00  0.00     0.158 C
BRANCH  26  27
HETATM   27  C17 UNL     1      67.252  -5.189  69.751  1.00  0.00     0.292 C
BRANCH  27  28
HETATM   28  N6  UNL     1      67.273  -4.571  68.452  1.00  0.00     0.090 N
HETATM   29  C18 UNL     1      67.517  -3.177  68.576  1.00  0.00     0.272 C
HETATM   30  C19 UNL     1      67.406  -2.403  67.281  1.00  0.00     0.030 C
HETATM   31  C20 UNL     1      66.042  -2.677  66.692  1.00  0.00     0.003 C
HETATM   32  C21 UNL     1      65.993  -4.187  66.426  1.00  0.00     0.030 C
HETATM   33  C22 UNL     1      66.003  -4.837  67.809  1.00  0.00     0.272 C
ENDBRANCH  27  28
ENDBRANCH  26  27
ENDBRANCH   6  26
TORSDOF 5
ENDMDL