MODEL 4
REMARK VINA RESULT: -7.467216640      6.248      9.452
REMARK  6 active torsions:
REMARK  status: ('A' for Active; 'I' for Inactive)
REMARK    1  A    between atoms: O1_1  and  C1_3
REMARK    2  A    between atoms: C1_3  and  C2_4
REMARK    3  A    between atoms: C5_8  and  C6_9
REMARK    4  A    between atoms: C6_9  and  S1_10
REMARK    5  A    between atoms: S1_10  and  C7_11
REMARK    6  A    between atoms: C7_11  and  C8_12
ROOT
HETATM    1  C2  UNL     1      69.767  -5.480  70.690  1.00  0.00     0.075 A
HETATM    2  C3  UNL     1      70.499  -5.633  71.818  1.00  0.00     0.122 A
HETATM    3  N1  UNL     1      71.004  -6.813  72.113  1.00  0.00    -0.310 N
HETATM    4  C4  UNL     1      71.771  -7.374  73.108  1.00  0.00     0.124 A
HETATM    5  C5  UNL     1      71.974  -8.713  72.839  1.00  0.00     0.036 A
HETATM    6  N4  UNL     1      71.350  -8.982  71.705  1.00  0.00    -0.338 N
ATOM      7  H4  UNL     1      71.308  -9.885  71.233  1.00  0.00     0.168 HD
HETATM    8  C14 UNL     1      70.777  -7.821  71.293  1.00  0.00     0.156 A
HETATM    9  S2  UNL     1      69.839  -7.139  70.068  1.00  0.00    -0.048 SA
ENDROOT
BRANCH   5  10
HETATM   10  C6  UNL     1      72.745  -9.700  73.637  1.00  0.00     0.132 C
BRANCH  10  11
HETATM   11  S1  UNL     1      72.183 -11.347  73.108  1.00  0.00    -0.157 SA
BRANCH  11  12
HETATM   12  C7  UNL     1      71.316 -12.169  74.413  1.00  0.00     0.135 C
BRANCH  12  13
HETATM   13  C8  UNL     1      69.867 -12.365  74.186  1.00  0.00     0.061 A
HETATM   14  C9  UNL     1      68.990 -11.300  74.495  1.00  0.00     0.128 A
HETATM   15 CL1  UNL     1      69.403  -9.747  75.188  1.00  0.00    -0.062 Cl
HETATM   16  N2  UNL     1      67.780 -11.727  74.148  1.00  0.00    -0.335 N
HETATM   17  C10 UNL     1      67.847 -12.963  73.653  1.00  0.00     0.084 A
ATOM     18  H2  UNL     1      66.921 -11.185  74.248  1.00  0.00     0.168 HD
HETATM   19  N3  UNL     1      69.137 -13.351  73.678  1.00  0.00    -0.337 N
HETATM   20  C13 UNL     1      66.997 -14.063  73.084  1.00  0.00     0.078 C
HETATM   21  C11 UNL     1      69.239 -14.683  73.108  1.00  0.00     0.131 C
HETATM   22  C12 UNL     1      67.840 -15.269  73.351  1.00  0.00     0.028 C
ENDBRANCH  12  13
ENDBRANCH  11  12
ENDBRANCH  10  11
ENDBRANCH   5  10
BRANCH   1  23
HETATM   23  C1  UNL     1      69.088  -4.393  70.011  1.00  0.00     0.157 C
HETATM   24  N5  UNL     1      67.807  -4.300  69.600  1.00  0.00    -0.361 N
HETATM   25  C15 UNL     1      66.740  -5.245  69.763  1.00  0.00     0.125 C
HETATM   26  C19 UNL     1      67.443  -3.062  68.827  1.00  0.00     0.125 C
HETATM   27  C16 UNL     1      66.473  -5.793  68.344  1.00  0.00     0.020 C
HETATM   28  C17 UNL     1      65.863  -4.619  67.606  1.00  0.00     0.003 C
HETATM   29  C18 UNL     1      66.757  -3.437  67.559  1.00  0.00     0.020 C
BRANCH  23  30
HETATM   30  O1  UNL     1      69.844  -3.345  69.764  1.00  0.00    -0.345 OA
ATOM     31  H1  UNL     1      70.778  -3.521  69.771  1.00  0.00     0.219 HD
ENDBRANCH  23  30
ENDBRANCH   1  23
TORSDOF 6
ENDMDL