MODEL 1
REMARK VINA RESULT: -8.562518163      0.000      0.000
REMARK  7 active torsions:
REMARK  status: ('A' for Active; 'I' for Inactive)
REMARK    1  A    between atoms: C3_5  and  N2_6
REMARK    2  A    between atoms: N2_6  and  C4_7
REMARK    3  A    between atoms: N2_6  and  C11_14
REMARK    4  A    between atoms: C4_7  and  C5_8
REMARK    5  A    between atoms: C5_8  and  C6_9
REMARK    6  A    between atoms: C7_10  and  C8_11
REMARK    7  A    between atoms: N5_23  and  C16_24
ROOT
HETATM    1  C11 UNL     1      69.493  -5.585  71.216  1.00  0.00     0.701 A
HETATM    2  N3  UNL     1      69.901  -6.526  70.327  1.00  0.00    -0.193 N
ATOM      3  H3  UNL     1      70.025  -6.264  69.349  1.00  0.00     0.184 HD
HETATM    4  C12 UNL     1      70.145  -7.791  70.697  1.00  0.00     0.053 A
HETATM    5  C13 UNL     1      70.586  -8.800  69.706  1.00  0.00     0.071 C
HETATM    6  C14 UNL     1      69.964  -8.105  72.042  1.00  0.00     0.101 A
HETATM    7  N4  UNL     1      70.116  -9.235  72.718  1.00  0.00    -0.348 N
ATOM      8  H4  UNL     1      70.416 -10.127  72.326  1.00  0.00     0.167 HD
HETATM    9  C15 UNL     1      69.809  -9.009  74.011  1.00  0.00     0.185 A
HETATM   10  N5  UNL     1      69.455  -7.726  74.187  1.00  0.00    -0.322 N
HETATM   11  C22 UNL     1      69.550  -7.154  72.948  1.00  0.00     0.153 A
HETATM   12  N6  UNL     1      69.325  -5.899  72.491  1.00  0.00    -0.173 N
ATOM     13  H6  UNL     1      69.018  -5.178  73.145  1.00  0.00     0.186 HD
ENDROOT
BRANCH   1  14
HETATM   14  N2  UNL     1      69.267  -4.267  70.697  1.00  0.00    -0.013 N
BRANCH  14  15
HETATM   15  C3  UNL     1      68.256  -4.152  69.705  1.00  0.00     0.699 A
HETATM   16  N1  UNL     1      68.252  -3.169  68.786  1.00  0.00    -0.192 N
HETATM   17  C2  UNL     1      67.313  -3.024  67.837  1.00  0.00     0.062 A
ATOM     18  H1  UNL     1      69.013  -2.489  68.812  1.00  0.00     0.184 HD
HETATM   19  C1  UNL     1      67.453  -1.902  66.891  1.00  0.00     0.072 C
HETATM   20  C24 UNL     1      66.277  -3.931  67.787  1.00  0.00     0.154 A
HETATM   21  C23 UNL     1      66.271  -4.936  68.720  1.00  0.00     0.150 A
HETATM   22  F1  UNL     1      65.330  -3.785  66.831  1.00  0.00    -0.203 F
HETATM   23  N7  UNL     1      67.231  -5.041  69.648  1.00  0.00    -0.198 N
ATOM     24  H7  UNL     1      67.191  -5.803  70.325  1.00  0.00     0.183 HD
ENDBRANCH  14  15
BRANCH  14  25
HETATM   25  C4  UNL     1      70.061  -3.189  71.209  1.00  0.00     0.179 C
BRANCH  25  26
HETATM   26  C5  UNL     1      71.555  -3.447  71.096  1.00  0.00     0.115 C
BRANCH  26  27
HETATM   27  C6  UNL     1      72.166  -2.128  70.816  1.00  0.00    -0.105 C
HETATM   28  C7  UNL     1      72.645  -1.054  70.559  1.00  0.00    -0.102 C
BRANCH  28  29
HETATM   29  C8  UNL     1      73.204   0.250  70.222  1.00  0.00     0.065 A
HETATM   30  C9  UNL     1      74.171   0.319  69.061  1.00  0.00     0.018 A
HETATM   31  C10 UNL     1      72.829   0.941  68.956  1.00  0.00     0.018 A
ENDBRANCH  28  29
ENDBRANCH  26  27
ENDBRANCH  25  26
ENDBRANCH  14  25
ENDBRANCH   1  14
BRANCH  10  32
HETATM   32  C16 UNL     1      69.056  -7.002  75.336  1.00  0.00     0.097 C
HETATM   33  C17 UNL     1      68.413  -7.838  76.439  1.00  0.00     0.031 C
HETATM   34  C18 UNL     1      69.015  -7.138  77.630  1.00  0.00    -0.012 C
HETATM   35  C19 UNL     1      69.255  -5.696  77.217  1.00  0.00     0.011 C
HETATM   36  C21 UNL     1      70.502  -7.309  77.273  1.00  0.00     0.011 C
HETATM   37  C20 UNL     1      70.151  -6.370  76.147  1.00  0.00     0.010 C
ENDBRANCH  10  32
TORSDOF 7
ENDMDL