MODEL 1
REMARK VINA RESULT: -6.714936444      0.000      0.000
REMARK  5 active torsions:
REMARK  status: ('A' for Active; 'I' for Inactive)
REMARK    1  A    between atoms: C2_2  and  C3_3
REMARK    2  A    between atoms: C3_3  and  C4_4
REMARK    3  A    between atoms: C7_10  and  N2_11
REMARK    4  A    between atoms: N3_14  and  C10_15
REMARK    5  A    between atoms: C13_18  and  C14_19
ROOT
HETATM    1  N2  UNL     1      70.644  -3.771  70.225  1.00  0.00    -0.363 N
HETATM    2  C8  UNL     1      71.189  -3.206  68.987  1.00  0.00     0.144 C
HETATM    3  C9  UNL     1      72.649  -2.869  69.110  1.00  0.00     0.143 C
HETATM    4  N3  UNL     1      72.773  -1.990  70.255  1.00  0.00    -0.372 N
HETATM    5  C17 UNL     1      72.364  -2.549  71.523  1.00  0.00     0.143 C
HETATM    6  C18 UNL     1      70.958  -3.127  71.469  1.00  0.00     0.144 C
ENDROOT
BRANCH   1   7
HETATM    7  C7  UNL     1      69.863  -4.964  70.073  1.00  0.00     0.123 A
HETATM    8  C6  UNL     1      68.506  -4.924  70.019  1.00  0.00     0.070 A
HETATM    9  C5  UNL     1      67.811  -6.146  69.910  1.00  0.00     0.112 A
HETATM   10 BR1  UNL     1      67.521  -3.295  70.038  1.00  0.00    -0.046 Br
HETATM   11  N1  UNL     1      68.517  -7.271  69.864  1.00  0.00    -0.354 N
HETATM   12  C4  UNL     1      69.855  -7.316  69.916  1.00  0.00     0.086 A
ATOM     13  H1  UNL     1      68.010  -8.153  69.784  1.00  0.00     0.166 HD
HETATM   14  N5  UNL     1      70.533  -6.169  70.020  1.00  0.00    -0.331 N
ATOM     15  H5  UNL     1      71.551  -6.184  70.061  1.00  0.00     0.168 HD
BRANCH  12  16
HETATM   16  C3  UNL     1      70.535  -8.645  69.854  1.00  0.00     0.103 C
BRANCH  16  17
HETATM   17  C2  UNL     1      71.269  -8.952  71.105  1.00  0.00    -0.029 C
HETATM   18  C1  UNL     1      70.659  -9.193  72.246  1.00  0.00     0.007 C
ENDBRANCH  16  17
ENDBRANCH  12  16
ENDBRANCH   1   7
BRANCH   4  19
HETATM   19  C10 UNL     1      73.268  -0.636  70.147  1.00  0.00     0.072 A
HETATM   20  C11 UNL     1      72.889   0.323  69.243  1.00  0.00     0.038 A
HETATM   21  C12 UNL     1      73.488   1.519  69.327  1.00  0.00     0.024 A
HETATM   22  C13 UNL     1      74.423   1.688  70.298  1.00  0.00     0.034 A
HETATM   23  S2  UNL     1      74.449   0.172  71.077  1.00  0.00    -0.070 SA
BRANCH  22  24
HETATM   24  C14 UNL     1      75.230   2.899  70.605  1.00  0.00     0.056 A
HETATM   25  C15 UNL     1      76.258   3.290  69.779  1.00  0.00     0.081 A
HETATM   26  S1  UNL     1      76.828   4.687  70.574  1.00  0.00    -0.094 SA
HETATM   27  C16 UNL     1      75.744   4.693  71.890  1.00  0.00     0.138 A
HETATM   28  N4  UNL     1      75.002   3.628  71.654  1.00  0.00    -0.358 N
ATOM     29  H4  UNL     1      74.250   3.376  72.297  1.00  0.00     0.166 HD
ENDBRANCH  22  24
ENDBRANCH   4  19
TORSDOF 5
ENDMDL