MODEL 3
REMARK VINA RESULT: -7.878907336      2.534      7.114
REMARK  6 active torsions:
REMARK  status: ('A' for Active; 'I' for Inactive)
REMARK    1  A    between atoms: O1_2  and  C2_3
REMARK    2  A    between atoms: C7_8  and  C8_9
REMARK    3  A    between atoms: C8_9  and  C9_10
REMARK    4  A    between atoms: C8_9  and  C18_23
REMARK    5  A    between atoms: C9_10  and  C10_11
REMARK    6  A    between atoms: C10_11  and  C11_12
ROOT
HETATM    1  C8  UNL     1      71.293  -4.462  72.343  1.00  0.00     0.029 C
ENDROOT
BRANCH   1   2
HETATM    2  C7  UNL     1      70.312  -4.807  71.310  1.00  0.00    -0.017 A
HETATM    3  C2  UNL     1      70.070  -6.114  70.950  1.00  0.00     0.077 A
HETATM    4  C3  UNL     1      69.071  -6.364  70.016  1.00  0.00     0.077 A
HETATM    5  C4  UNL     1      68.320  -5.371  69.440  1.00  0.00     0.111 A
HETATM    6  C5  UNL     1      68.565  -4.067  69.800  1.00  0.00     0.109 A
HETATM    7  O7  UNL     1      67.291  -5.339  68.508  1.00  0.00    -0.284 OA
HETATM    8  C6  UNL     1      69.542  -3.795  70.716  1.00  0.00     0.050 A
HETATM    9  O6  UNL     1      67.669  -3.259  69.068  1.00  0.00    -0.284 OA
HETATM   10  C22 UNL     1      66.652  -4.074  68.519  1.00  0.00     0.325 C
HETATM   11  C23 UNL     1      66.391  -3.726  67.062  1.00  0.00     0.121 C
HETATM   12  F1  UNL     1      65.500  -4.073  69.249  1.00  0.00    -0.180 F
BRANCH   3  13
HETATM   13  O1  UNL     1      70.773  -7.204  71.463  1.00  0.00    -0.355 OA
HETATM   14  C1  UNL     1      70.725  -8.442  70.837  1.00  0.00     0.210 C
ENDBRANCH   3  13
ENDBRANCH   1   2
BRANCH   1  15
HETATM   15  C9  UNL     1      71.865  -3.047  72.127  1.00  0.00     0.011 C
BRANCH  15  16
HETATM   16  C10 UNL     1      73.279  -3.122  71.628  1.00  0.00     0.018 C
BRANCH  16  17
HETATM   17  C11 UNL     1      73.444  -2.250  70.432  1.00  0.00     0.119 C
HETATM   18  C12 UNL     1      73.233  -2.909  69.154  1.00  0.00     0.268 C
HETATM   19  O2  UNL     1      72.195  -3.384  68.660  1.00  0.00    -0.265 OA
HETATM   20  O3  UNL     1      74.466  -2.940  68.489  1.00  0.00    -0.286 OA
HETATM   21  C13 UNL     1      75.192  -1.764  68.916  1.00  0.00     0.302 C
HETATM   22  O4  UNL     1      76.550  -1.973  68.912  1.00  0.00    -0.323 OA
HETATM   23  C17 UNL     1      74.824  -1.620  70.375  1.00  0.00     0.194 C
HETATM   24  C14 UNL     1      76.934  -2.244  70.216  1.00  0.00     0.160 C
HETATM   25  C15 UNL     1      77.748  -3.535  70.245  1.00  0.00     0.078 C
HETATM   26  C16 UNL     1      77.703  -1.091  70.817  1.00  0.00     0.078 C
HETATM   27  O5  UNL     1      75.778  -2.451  70.967  1.00  0.00    -0.345 OA
ENDBRANCH  16  17
ENDBRANCH  15  16
ENDBRANCH   1  15
BRANCH   1  28
HETATM   28  C18 UNL     1      70.712  -4.528  73.724  1.00  0.00    -0.044 C
HETATM   29  C19 UNL     1      70.254  -3.154  74.236  1.00  0.00     0.015 C
HETATM   30  C20 UNL     1      69.575  -5.469  73.946  1.00  0.00     0.015 C
HETATM   31  C21 UNL     1      71.793  -4.941  74.740  1.00  0.00     0.015 C
ENDBRANCH   1  28
TORSDOF 6
ENDMDL