MODEL 3
REMARK VINA RESULT: -7.993489951      5.011      7.464
REMARK  5 active torsions:
REMARK  status: ('A' for Active; 'I' for Inactive)
REMARK    1  A    between atoms: C2_3  and  O1_4
REMARK    2  A    between atoms: O1_4  and  C3_5
REMARK    3  A    between atoms: C3_5  and  C4_6
REMARK    4  A    between atoms: C4_6  and  N1_7
REMARK    5  A    between atoms: N2_16  and  C13_17
ROOT
HETATM    1 CL1  UNL     1      71.466  -3.922  69.399  1.00  0.00    -0.079 Cl
HETATM    2  C1  UNL     1      72.415  -3.487  70.779  1.00  0.00     0.094 A
HETATM    3  C2  UNL     1      73.675  -2.911  70.623  1.00  0.00     0.092 A
HETATM    4  C9  UNL     1      74.438  -2.549  71.707  1.00  0.00     0.039 A
HETATM    5  C10 UNL     1      73.917  -2.774  72.962  1.00  0.00     0.012 A
HETATM    6  C11 UNL     1      72.696  -3.332  73.145  1.00  0.00    -0.029 A
HETATM    7  C12 UNL     1      71.913  -3.702  72.039  1.00  0.00     0.067 A
HETATM    8  N2  UNL     1      70.639  -4.285  72.264  1.00  0.00    -0.329 N
HETATM    9  C21 UNL     1      69.840  -3.816  73.398  1.00  0.00     0.131 C
HETATM   10  C22 UNL     1      70.665  -3.167  74.450  1.00  0.00     0.025 C
HETATM   11  C23 UNL     1      72.093  -3.599  74.478  1.00  0.00     0.042 C
ENDROOT
BRANCH   8  12
HETATM   12  C13 UNL     1      70.156  -5.299  71.441  1.00  0.00     0.145 A
HETATM   13  N3  UNL     1      70.649  -6.538  71.505  1.00  0.00    -0.336 N
HETATM   14  C14 UNL     1      70.163  -7.556  70.758  1.00  0.00     0.182 A
ATOM     15  H3  UNL     1      71.423  -6.724  72.143  1.00  0.00     0.168 HD
HETATM   16  N4  UNL     1      69.146  -7.361  69.903  1.00  0.00    -0.349 N
HETATM   17  C15 UNL     1      68.621  -6.125  69.809  1.00  0.00     0.082 A
ATOM     18  H4  UNL     1      68.781  -8.129  69.340  1.00  0.00     0.166 HD
HETATM   19  C16 UNL     1      67.603  -5.575  69.061  1.00  0.00     0.027 A
HETATM   20  C18 UNL     1      69.116  -5.075  70.574  1.00  0.00     0.147 A
HETATM   21  C17 UNL     1      67.507  -4.240  69.380  1.00  0.00     0.088 A
HETATM   22  C20 UNL     1      66.561  -5.818  68.048  1.00  0.00     0.212 C
HETATM   23  O2  UNL     1      68.427  -4.002  70.280  1.00  0.00    -0.306 OA
HETATM   24  C19 UNL     1      66.393  -3.651  68.557  1.00  0.00     0.233 C
HETATM   25  O3  UNL     1      65.669  -4.761  68.205  1.00  0.00    -0.380 OA
ENDBRANCH   8  12
BRANCH   3  26
HETATM   26  O1  UNL     1      74.155  -2.705  69.360  1.00  0.00    -0.348 OA
BRANCH  26  27
HETATM   27  C3  UNL     1      75.231  -1.907  68.972  1.00  0.00     0.206 C
BRANCH  27  28
HETATM   28  C4  UNL     1      74.685  -0.851  68.042  1.00  0.00     0.299 C
BRANCH  28  29
HETATM   29  N1  UNL     1      74.489   0.419  68.692  1.00  0.00     0.090 N
HETATM   30  C5  UNL     1      75.298   0.614  69.850  1.00  0.00     0.272 C
HETATM   31  C6  UNL     1      74.397   1.127  70.950  1.00  0.00     0.032 C
HETATM   32  C7  UNL     1      73.027   0.630  70.538  1.00  0.00     0.032 C
HETATM   33  C8  UNL     1      73.116   0.674  69.036  1.00  0.00     0.272 C
ENDBRANCH  28  29
ENDBRANCH  27  28
ENDBRANCH  26  27
ENDBRANCH   3  26
TORSDOF 5
ENDMDL