MODEL 1
REMARK VINA RESULT: -7.805429663      0.000      0.000
REMARK  5 active torsions:
REMARK  status: ('A' for Active; 'I' for Inactive)
REMARK    1  A    between atoms: C2_3  and  S1_4
REMARK    2  A    between atoms: S1_4  and  C3_5
REMARK    3  A    between atoms: C9_13  and  N3_14
REMARK    4  A    between atoms: C14_20  and  S2_21
REMARK    5  A    between atoms: S2_21  and  C15_22
ROOT
HETATM    1  C1  UNL     1      73.339  -2.759  72.607  1.00  0.00     0.161 C
HETATM    2  N1  UNL     1      72.116  -3.176  71.981  1.00  0.00    -0.298 N
HETATM    3  C2  UNL     1      71.724  -2.587  70.849  1.00  0.00     0.150 A
HETATM    4  N2  UNL     1      70.593  -3.004  70.269  1.00  0.00    -0.322 N
ATOM      5  H2  UNL     1      70.289  -2.559  69.403  1.00  0.00     0.169 HD
HETATM    6  C9  UNL     1      69.820  -4.023  70.808  1.00  0.00     0.128 A
HETATM    7  C14 UNL     1      70.226  -4.621  71.966  1.00  0.00     0.117 A
HETATM    8  C21 UNL     1      71.395  -4.184  72.556  1.00  0.00     0.270 A
HETATM    9  O2  UNL     1      71.768  -4.727  73.612  1.00  0.00    -0.266 OA
ENDROOT
BRANCH   7  10
HETATM   10  S2  UNL     1      69.336  -5.929  72.722  1.00  0.00    -0.078 SA
BRANCH  10  11
HETATM   11  C15 UNL     1      70.028  -7.532  72.570  1.00  0.00     0.044 A
HETATM   12  C16 UNL     1      70.771  -7.821  71.446  1.00  0.00     0.022 A
HETATM   13  C17 UNL     1      71.334  -9.056  71.292  1.00  0.00     0.002 A
HETATM   14  C18 UNL     1      71.148 -10.008  72.280  1.00  0.00     0.003 A
HETATM   15  C19 UNL     1      70.402  -9.711  73.405  1.00  0.00     0.044 A
HETATM   16  C20 UNL     1      69.832  -8.468  73.563  1.00  0.00     0.133 A
HETATM   17  F1  UNL     1      69.091  -8.182  74.686  1.00  0.00    -0.205 F
ENDBRANCH  10  11
ENDBRANCH   7  10
BRANCH   6  18
HETATM   18  N3  UNL     1      68.637  -4.382  70.145  1.00  0.00    -0.362 N
HETATM   19  C10 UNL     1      67.579  -3.356  69.974  1.00  0.00     0.150 C
HETATM   20  C11 UNL     1      67.152  -3.442  68.523  1.00  0.00     0.187 C
HETATM   21  O1  UNL     1      66.655  -4.707  68.210  1.00  0.00    -0.388 OA
HETATM   22  C12 UNL     1      66.797  -5.606  69.235  1.00  0.00     0.187 C
HETATM   23  C13 UNL     1      68.292  -5.657  69.613  1.00  0.00     0.150 C
ENDBRANCH   6  18
BRANCH   3  24
HETATM   24  S1  UNL     1      72.704  -1.254  70.177  1.00  0.00    -0.089 SA
BRANCH  24  25
HETATM   25  C3  UNL     1      73.773  -1.725  68.835  1.00  0.00     0.055 C
HETATM   26  C4  UNL     1      74.909  -0.747  68.687  1.00  0.00     0.015 C
HETATM   27  C5  UNL     1      75.864  -1.361  67.667  1.00  0.00     0.001 C
HETATM   28  C6  UNL     1      76.715  -2.341  68.448  1.00  0.00     0.000 C
HETATM   29  C7  UNL     1      75.837  -3.027  69.473  1.00  0.00     0.001 C
HETATM   30  C8  UNL     1      74.387  -3.084  69.062  1.00  0.00     0.015 C
ENDBRANCH  24  25
ENDBRANCH   3  24
TORSDOF 5
ENDMDL