MODEL 4
REMARK VINA RESULT: -7.718546276      1.089      2.785
REMARK  5 active torsions:
REMARK  status: ('A' for Active; 'I' for Inactive)
REMARK    1  A    between atoms: C4_7  and  C5_8
REMARK    2  A    between atoms: C5_8  and  N3_9
REMARK    3  A    between atoms: C5_8  and  N5_13
REMARK    4  A    between atoms: N5_13  and  C7_15
REMARK    5  A    between atoms: C8_18  and  C9_19
ROOT
HETATM    1  N3  UNL     1      19.210   4.742  -9.573  1.00  0.00    -0.277 N
ATOM      2  H3  UNL     1      18.683   5.611  -9.677  1.00  0.00     0.179 HD
HETATM    3  C6  UNL     1      18.501   3.543  -9.461  1.00  0.00     0.183 C
HETATM    4  N4  UNL     1      17.915   2.544  -9.379  1.00  0.00    -0.172 NA
ENDROOT
BRANCH   1   5
HETATM    5  C5  UNL     1      20.472   4.802  -9.551  1.00  0.00     0.144 C
BRANCH   5   6
HETATM    6  C4  UNL     1      21.265   3.848 -10.312  1.00  0.00     0.096 A
HETATM    7  N1  UNL     1      21.387   3.686 -11.639  1.00  0.00    -0.293 N
HETATM    8  C1  UNL     1      20.698   4.504 -12.629  1.00  0.00     0.178 C
HETATM    9  N2  UNL     1      22.226   2.678 -11.900  1.00  0.00    -0.310 N
HETATM   10  C2  UNL     1      22.664   2.167 -10.741  1.00  0.00     0.110 A
ATOM     11  H2  UNL     1      22.489   2.350 -12.829  1.00  0.00     0.186 HD
HETATM   12  C3  UNL     1      22.084   2.874  -9.738  1.00  0.00     0.053 A
ENDBRANCH   5   6
BRANCH   5  13
HETATM   13  N5  UNL     1      21.139   5.790  -8.797  1.00  0.00    -0.325 N
ATOM     14  H5  UNL     1      21.738   6.439  -9.307  1.00  0.00     0.169 HD
BRANCH  13  15
HETATM   15  C7  UNL     1      21.058   5.942  -7.531  1.00  0.00     0.118 A
HETATM   16  N6  UNL     1      20.822   4.902  -6.690  1.00  0.00    -0.341 N
HETATM   17  C8  UNL     1      20.733   5.026  -5.356  1.00  0.00     0.044 A
ATOM     18  H6  UNL     1      20.706   3.973  -7.095  1.00  0.00     0.167 HD
HETATM   19  C15 UNL     1      20.898   6.304  -4.856  1.00  0.00     0.042 A
HETATM   20  C16 UNL     1      21.142   7.408  -5.664  1.00  0.00    -0.020 A
HETATM   21  C17 UNL     1      21.306   8.679  -5.163  1.00  0.00     0.012 A
HETATM   22  C21 UNL     1      21.223   7.220  -7.020  1.00  0.00     0.018 A
HETATM   23  C18 UNL     1      21.545   9.745  -5.979  1.00  0.00     0.001 A
HETATM   24  C19 UNL     1      21.624   9.549  -7.331  1.00  0.00     0.001 A
HETATM   25  C20 UNL     1      21.464   8.292  -7.856  1.00  0.00     0.016 A
BRANCH  17  26
HETATM   26  C9  UNL     1      20.478   3.887  -4.483  1.00  0.00    -0.009 A
HETATM   27  C10 UNL     1      19.515   2.939  -4.753  1.00  0.00     0.013 A
HETATM   28  C11 UNL     1      19.253   1.847  -3.940  1.00  0.00     0.001 A
HETATM   29  C12 UNL     1      19.994   1.688  -2.788  1.00  0.00     0.000 A
HETATM   30  C13 UNL     1      20.972   2.612  -2.474  1.00  0.00     0.001 A
HETATM   31  C14 UNL     1      21.201   3.697  -3.321  1.00  0.00     0.013 A
ENDBRANCH  17  26
ENDBRANCH  13  15
ENDBRANCH   5  13
ENDBRANCH   1   5
TORSDOF 5
ENDMDL