MODEL 5
REMARK VINA RESULT: -7.594334003      2.539      7.214
REMARK  3 active torsions:
REMARK  status: ('A' for Active; 'I' for Inactive)
REMARK    1  A    between atoms: S1_2  and  N1_4
REMARK    2  A    between atoms: S1_2  and  C11_21
REMARK    3  A    between atoms: N1_4  and  C1_6
ROOT
HETATM    1  C1  UNL     1      21.267   3.725  -5.380  1.00  0.00     0.159 A
HETATM    2  N2  UNL     1      21.127   3.944  -6.690  1.00  0.00    -0.334 N
ATOM      3  H2  UNL     1      21.017   3.165  -7.338  1.00  0.00     0.168 HD
HETATM    4  C2  UNL     1      21.134   5.185  -7.126  1.00  0.00     0.068 A
HETATM    5  C3  UNL     1      21.005   5.656  -8.451  1.00  0.00     0.119 A
HETATM    6  N3  UNL     1      21.027   6.948  -8.767  1.00  0.00    -0.363 N
ATOM      7  H3  UNL     1      20.926   7.207  -9.748  1.00  0.00     0.165 HD
HETATM    8  C4  UNL     1      21.172   7.917  -7.874  1.00  0.00     0.043 A
HETATM    9  C5  UNL     1      21.191   9.219  -8.224  1.00  0.00     0.030 A
HETATM   10  C6  UNL     1      21.350  10.189  -7.221  1.00  0.00     0.002 A
HETATM   11  C7  UNL     1      21.479   9.770  -5.917  1.00  0.00     0.001 A
HETATM   12  C8  UNL     1      21.462   8.447  -5.545  1.00  0.00     0.015 A
HETATM   13  C9  UNL     1      21.305   7.532  -6.558  1.00  0.00     0.010 A
HETATM   14  C10 UNL     1      21.285   6.177  -6.196  1.00  0.00     0.049 A
HETATM   15  S2  UNL     1      21.410   5.293  -4.740  1.00  0.00    -0.050 SA
ENDROOT
BRANCH   1  16
HETATM   16  N1  UNL     1      21.282   2.557  -4.773  1.00  0.00    -0.260 N
ATOM     17  H1  UNL     1      22.045   1.902  -4.950  1.00  0.00     0.181 HD
BRANCH  16  18
HETATM   18  S1  UNL     1      20.020   2.125  -3.678  1.00  0.00     0.264 S
HETATM   19  O1  UNL     1      20.349   0.760  -3.142  1.00  0.00    -0.200 OA
HETATM   20  O2  UNL     1      19.970   3.063  -2.504  1.00  0.00    -0.200 OA
BRANCH  18  21
HETATM   21  C11 UNL     1      18.507   2.171  -4.501  1.00  0.00     0.079 A
HETATM   22  C12 UNL     1      17.763   1.028  -4.655  1.00  0.00     0.025 A
HETATM   23  C13 UNL     1      16.549   1.067  -5.316  1.00  0.00     0.002 A
HETATM   24  C14 UNL     1      16.049   2.241  -5.836  1.00  0.00     0.000 A
HETATM   25  C15 UNL     1      16.815   3.366  -5.667  1.00  0.00     0.002 A
HETATM   26  C16 UNL     1      18.026   3.349  -5.013  1.00  0.00     0.025 A
ENDBRANCH  18  21
ENDBRANCH  16  18
ENDBRANCH   1  16
TORSDOF 3
ENDMDL