MODEL 4
REMARK VINA RESULT: -8.502196935      4.474      9.862
REMARK  3 active torsions:
REMARK  status: ('A' for Active; 'I' for Inactive)
REMARK    1  A    between atoms: C5_6  and  C6_7
REMARK    2  A    between atoms: C9_12  and  N3_13
REMARK       I    between atoms: N3_13  and  C10_15
REMARK    3  A    between atoms: C10_15  and  C11_17
ROOT
HETATM    1  N1  UNL     1      20.300   1.876  -2.888  1.00  0.00    -0.191 NA
HETATM    2  C1  UNL     1      20.519   2.927  -3.320  1.00  0.00     0.099 C
HETATM    3  C2  UNL     1      20.810   4.250  -3.844  1.00  0.00     0.044 A
HETATM    4  C3  UNL     1      19.987   5.314  -3.589  1.00  0.00     0.023 A
HETATM    5  C4  UNL     1      20.282   6.582  -4.100  1.00  0.00     0.015 A
HETATM    6  C5  UNL     1      21.395   6.806  -4.869  1.00  0.00    -0.008 A
HETATM    7  C20 UNL     1      22.205   5.729  -5.113  1.00  0.00     0.015 A
HETATM    8  C21 UNL     1      21.916   4.456  -4.603  1.00  0.00     0.023 A
ENDROOT
BRANCH   6   9
HETATM    9  C6  UNL     1      21.718   8.119  -5.411  1.00  0.00     0.059 A
HETATM   10  C7  UNL     1      20.852   8.823  -6.220  1.00  0.00     0.118 A
HETATM   11  N2  UNL     1      21.186  10.052  -6.712  1.00  0.00    -0.370 N
HETATM   12  C8  UNL     1      22.376  10.600  -6.412  1.00  0.00     0.136 A
ATOM     13  H2  UNL     1      20.530  10.555  -7.309  1.00  0.00     0.164 HD
HETATM   14  C9  UNL     1      23.271   9.930  -5.606  1.00  0.00     0.124 A
HETATM   15  N5  UNL     1      22.901   8.725  -5.145  1.00  0.00    -0.340 N
ATOM     16  H5  UNL     1      23.561   8.227  -4.548  1.00  0.00     0.167 HD
BRANCH  14  17
HETATM   17  N3  UNL     1      24.428  10.452  -5.309  1.00  0.00    -0.306 N
HETATM   18  C10 UNL     1      24.847  10.697  -3.999  1.00  0.00     0.273 C
HETATM   19  O1  UNL     1      25.665   9.914  -3.458  1.00  0.00    -0.266 OA
ATOM     20  H3  UNL     1      25.060  10.695  -6.072  1.00  0.00     0.170 HD
BRANCH  18  21
HETATM   21  C11 UNL     1      24.339  11.844  -3.271  1.00  0.00     0.101 A
HETATM   22  C12 UNL     1      22.981  12.176  -3.371  1.00  0.00     0.036 A
HETATM   23  C13 UNL     1      22.524  13.272  -2.669  1.00  0.00     0.016 A
HETATM   24  C14 UNL     1      23.416  13.999  -1.897  1.00  0.00    -0.009 A
HETATM   25  C15 UNL     1      22.989  15.102  -1.180  1.00  0.00     0.013 A
HETATM   26  C19 UNL     1      24.748  13.644  -1.819  1.00  0.00     0.043 A
HETATM   27  C16 UNL     1      23.867  15.832  -0.409  1.00  0.00     0.001 A
HETATM   28  C17 UNL     1      25.187  15.473  -0.339  1.00  0.00     0.002 A
HETATM   29  C18 UNL     1      25.636  14.388  -1.036  1.00  0.00     0.030 A
HETATM   30  N4  UNL     1      25.165  12.578  -2.511  1.00  0.00    -0.351 N
ATOM     31  H4  UNL     1      26.149  12.313  -2.457  1.00  0.00     0.166 HD
ENDBRANCH  18  21
ENDBRANCH  14  17
ENDBRANCH   6   9
TORSDOF 3
ENDMDL