MODEL 5
REMARK VINA RESULT: -7.385721739      8.375     10.229
REMARK  4 active torsions:
REMARK  status: ('A' for Active; 'I' for Inactive)
REMARK    1  A    between atoms: C1_1  and  C18_26
REMARK    2  A    between atoms: C2_2  and  C3_3
REMARK    3  A    between atoms: C6_8  and  C7_9
REMARK    4  A    between atoms: C18_26  and  N5_27
ROOT
HETATM    1  C3  UNL     1      21.513   9.748  -8.317  1.00  0.00     0.163 A
HETATM    2  N1  UNL     1      21.348   8.428  -8.370  1.00  0.00    -0.332 N
ATOM      3  H1  UNL     1      21.337   7.870  -9.224  1.00  0.00     0.168 HD
HETATM    4  C4  UNL     1      21.197   7.942  -7.119  1.00  0.00     0.079 A
HETATM    5  C5  UNL     1      20.997   6.656  -6.613  1.00  0.00     0.048 A
HETATM    6  C6  UNL     1      20.875   6.446  -5.261  1.00  0.00     0.008 A
HETATM    7  C16 UNL     1      20.960   7.562  -4.456  1.00  0.00     0.103 A
HETATM    8  N3  UNL     1      21.150   8.800  -4.906  1.00  0.00    -0.349 N
ATOM      9  H3  UNL     1      21.204   9.585  -4.256  1.00  0.00     0.166 HD
HETATM   10  C17 UNL     1      21.270   9.003  -6.242  1.00  0.00     0.134 A
HETATM   11  N4  UNL     1      21.464  10.084  -7.016  1.00  0.00    -0.319 N
ATOM     12  H4  UNL     1      21.561  11.036  -6.662  1.00  0.00     0.169 HD
ENDROOT
BRANCH   6  13
HETATM   13  C7  UNL     1      20.664   5.132  -4.657  1.00  0.00     0.044 A
HETATM   14  C8  UNL     1      21.514   4.584  -3.744  1.00  0.00     0.031 A
HETATM   15  C9  UNL     1      21.253   3.330  -3.211  1.00  0.00     0.016 A
HETATM   16  C10 UNL     1      20.141   2.660  -3.611  1.00  0.00    -0.009 A
HETATM   17  C11 UNL     1      19.889   1.416  -3.076  1.00  0.00     0.013 A
HETATM   18  C15 UNL     1      19.278   3.211  -4.536  1.00  0.00     0.043 A
HETATM   19  C12 UNL     1      18.769   0.716  -3.466  1.00  0.00     0.001 A
HETATM   20  C13 UNL     1      17.911   1.274  -4.391  1.00  0.00     0.002 A
HETATM   21  C14 UNL     1      18.162   2.516  -4.924  1.00  0.00     0.030 A
HETATM   22  N2  UNL     1      19.579   4.420  -5.015  1.00  0.00    -0.355 N
ATOM     23  H2  UNL     1      18.944   4.832  -5.699  1.00  0.00     0.166 HD
ENDBRANCH   6  13
BRANCH   1  24
HETATM   24  C2  UNL     1      21.709  10.666  -9.426  1.00  0.00    -0.028 C
HETATM   25  C1  UNL     1      21.849  11.421 -10.346  1.00  0.00    -0.068 C
BRANCH  25  26
HETATM   26  C18 UNL     1      21.997  12.338 -11.476  1.00  0.00     0.366 C
BRANCH  26  27
HETATM   27  N5  UNL     1      22.940  13.391 -11.116  1.00  0.00     0.105 N
HETATM   28  C19 UNL     1      23.082  14.294 -12.256  1.00  0.00     0.301 C
HETATM   29  C20 UNL     1      22.003  15.283 -12.035  1.00  0.00     0.001 C
HETATM   30  C21 UNL     1      21.596  15.260 -10.760  1.00  0.00     0.001 C
HETATM   31  C22 UNL     1      22.413  14.218 -10.042  1.00  0.00     0.301 C
ENDBRANCH  26  27
ENDBRANCH  25  26
ENDBRANCH   1  24
TORSDOF 4
ENDMDL