MODEL 3
REMARK VINA RESULT: -7.805689565      2.037      4.468
REMARK  2 active torsions:
REMARK  status: ('A' for Active; 'I' for Inactive)
REMARK    1  A    between atoms: N1_7  and  S1_9
REMARK    2  A    between atoms: S1_9  and  C8_12
ROOT
HETATM    1  S1  UNL     1      22.079   9.426  -5.130  1.00  0.00     0.016 SA
HETATM    2  C7  UNL     1      23.889   9.891  -4.643  1.00  0.00     0.148 C
HETATM    3  N2  UNL     1      24.977  10.148  -4.349  1.00  0.00    -0.183 NA
ENDROOT
BRANCH   1   4
HETATM    4  N1  UNL     1      21.593   7.781  -4.723  1.00  0.00    -0.309 N
HETATM    5  C6  UNL     1      21.388   6.782  -5.531  1.00  0.00     0.125 A
HETATM    6  C5  UNL     1      21.008   5.541  -5.065  1.00  0.00     0.035 A
HETATM    7  N4  UNL     1      21.568   7.021  -6.852  1.00  0.00    -0.331 N
HETATM    8  C4  UNL     1      20.828   5.299  -3.737  1.00  0.00     0.018 A
HETATM    9  C17 UNL     1      20.806   4.520  -5.971  1.00  0.00     0.048 A
HETATM   10  C3  UNL     1      20.444   4.036  -3.295  1.00  0.00     0.008 A
HETATM   11  C2  UNL     1      20.236   3.001  -4.182  1.00  0.00    -0.060 A
HETATM   12  C1  UNL     1      19.822   1.637  -3.712  1.00  0.00     0.048 C
HETATM   13  C18 UNL     1      20.423   3.262  -5.524  1.00  0.00     0.037 A
HETATM   14  N5  UNL     1      20.998   4.816  -7.265  1.00  0.00    -0.345 N
HETATM   15  C15 UNL     1      21.367   6.016  -7.722  1.00  0.00     0.079 A
ATOM     16  H5  UNL     1      20.852   4.072  -7.948  1.00  0.00     0.167 HD
HETATM   17  C16 UNL     1      21.555   6.239  -9.189  1.00  0.00     0.089 C
ATOM     18  H4  UNL     1      21.851   7.944  -7.180  1.00  0.00     0.168 HD
ATOM     19  H1  UNL     1      21.455   7.588  -3.731  1.00  0.00     0.176 HD
ENDBRANCH   1   4
BRANCH   1  20
HETATM   20  C8  UNL     1      21.665  10.050  -6.889  1.00  0.00     0.024 A
HETATM   21  C9  UNL     1      22.646  10.557  -7.716  1.00  0.00     0.022 A
HETATM   22  C10 UNL     1      22.351  11.007  -8.985  1.00  0.00     0.024 A
HETATM   23  C11 UNL     1      21.068  10.975  -9.491  1.00  0.00     0.044 A
HETATM   24  C12 UNL     1      20.744  11.441 -10.812  1.00  0.00     0.099 C
HETATM   25  C13 UNL     1      20.092  10.465  -8.654  1.00  0.00     0.024 A
HETATM   26  N3  UNL     1      20.465  11.819 -11.872  1.00  0.00    -0.191 NA
HETATM   27  C14 UNL     1      20.379  10.012  -7.383  1.00  0.00     0.022 A
ENDBRANCH   1  20
TORSDOF 2
ENDMDL