MODEL 5
REMARK VINA RESULT: -7.845922042      4.168      8.908
REMARK  3 active torsions:
REMARK  status: ('A' for Active; 'I' for Inactive)
REMARK    1  A    between atoms: C4_5  and  C5_6
REMARK    2  A    between atoms: C8_9  and  C9_10
REMARK       I    between atoms: C9_10  and  N2_12
REMARK    3  A    between atoms: N2_12  and  C10_14
ROOT
HETATM    1  N1  UNL     1      16.306  11.804 -10.725  1.00  0.00    -0.190 NA
HETATM    2  C1  UNL     1      17.404  11.652 -10.399  1.00  0.00     0.117 C
HETATM    3  C2  UNL     1      18.787  11.436  -9.994  1.00  0.00     0.115 A
HETATM    4  C3  UNL     1      19.121  10.301  -9.301  1.00  0.00     0.054 A
HETATM    5  C4  UNL     1      20.457  10.103  -8.916  1.00  0.00    -0.011 A
HETATM    6  C16 UNL     1      21.412  11.038  -9.234  1.00  0.00     0.002 A
HETATM    7  C17 UNL     1      22.729  10.859  -8.882  1.00  0.00     0.014 A
HETATM    8  C18 UNL     1      23.698  11.805  -9.215  1.00  0.00     0.001 A
HETATM    9  C19 UNL     1      23.288  12.919  -9.909  1.00  0.00     0.002 A
HETATM   10  C20 UNL     1      21.981  13.112 -10.269  1.00  0.00     0.030 A
HETATM   11  C21 UNL     1      21.025  12.174  -9.937  1.00  0.00     0.044 A
HETATM   12  N5  UNL     1      19.743  12.325 -10.285  1.00  0.00    -0.347 N
ATOM     13  H5  UNL     1      19.479  13.165 -10.800  1.00  0.00     0.167 HD
ENDROOT
BRANCH   5  14
HETATM   14  C5  UNL     1      20.786   8.908  -8.130  1.00  0.00    -0.025 A
HETATM   15  C6  UNL     1      20.897   8.931  -6.773  1.00  0.00     0.013 A
HETATM   16  C7  UNL     1      21.205   7.810  -6.063  1.00  0.00     0.018 A
HETATM   17  C8  UNL     1      21.415   6.610  -6.681  1.00  0.00     0.032 A
HETATM   18  C14 UNL     1      21.310   6.555  -8.054  1.00  0.00     0.018 A
HETATM   19  C15 UNL     1      20.999   7.685  -8.779  1.00  0.00     0.013 A
BRANCH  17  20
HETATM   20  C9  UNL     1      21.744   5.415  -5.908  1.00  0.00     0.257 C
HETATM   21  O1  UNL     1      22.416   5.508  -4.851  1.00  0.00    -0.267 OA
HETATM   22  N2  UNL     1      21.329   4.116  -6.305  1.00  0.00    -0.308 N
ATOM     23  H2  UNL     1      21.700   3.725  -7.171  1.00  0.00     0.170 HD
BRANCH  22  24
HETATM   24  C10 UNL     1      20.505   3.418  -5.614  1.00  0.00     0.123 A
HETATM   25  C11 UNL     1      19.172   3.424  -5.960  1.00  0.00     0.136 A
HETATM   26  N3  UNL     1      18.251   2.714  -5.279  1.00  0.00    -0.371 N
HETATM   27  C12 UNL     1      18.610   1.968  -4.228  1.00  0.00     0.104 A
ATOM     28  H3  UNL     1      17.273   2.746  -5.567  1.00  0.00     0.164 HD
HETATM   29  C13 UNL     1      19.939   1.948  -3.865  1.00  0.00     0.106 A
HETATM   30  N4  UNL     1      20.836   2.660  -4.557  1.00  0.00    -0.350 N
ATOM     31  H4  UNL     1      21.813   2.627  -4.268  1.00  0.00     0.166 HD
ENDBRANCH  22  24
ENDBRANCH  17  20
ENDBRANCH   5  14
TORSDOF 3
ENDMDL