MODEL 5
REMARK VINA RESULT: -7.334784554      4.211      7.821
REMARK  4 active torsions:
REMARK  status: ('A' for Active; 'I' for Inactive)
REMARK    1  A    between atoms: N1_1  and  S1_4
REMARK    2  A    between atoms: S1_4  and  C1_7
REMARK    3  A    between atoms: C4_10  and  N2_11
REMARK    4  A    between atoms: N2_11  and  C5_13
ROOT
HETATM    1  C5  UNL     1      19.998   3.382  -5.908  1.00  0.00     0.074 A
HETATM    2  C6  UNL     1      19.036   3.141  -6.865  1.00  0.00     0.020 A
HETATM    3  C7  UNL     1      19.106   3.702  -8.126  1.00  0.00     0.016 A
HETATM    4  C8  UNL     1      18.180   3.494  -9.107  1.00  0.00     0.001 A
HETATM    5  C9  UNL     1      17.111   2.669  -8.813  1.00  0.00     0.002 A
HETATM    6  C10 UNL     1      17.004   2.088  -7.568  1.00  0.00     0.030 A
HETATM    7  C11 UNL     1      17.955   2.315  -6.588  1.00  0.00     0.045 A
HETATM    8  N3  UNL     1      17.842   1.743  -5.373  1.00  0.00    -0.354 N
ATOM      9  H3  UNL     1      17.047   1.137  -5.175  1.00  0.00     0.166 HD
HETATM   10  C12 UNL     1      18.771   1.961  -4.411  1.00  0.00     0.062 A
HETATM   11  C13 UNL     1      18.624   1.360  -3.179  1.00  0.00     0.033 A
HETATM   12  C14 UNL     1      19.562   1.572  -2.191  1.00  0.00     0.019 A
HETATM   13  C15 UNL     1      20.628   2.385  -2.460  1.00  0.00     0.088 A
HETATM   14  N4  UNL     1      20.724   2.945  -3.673  1.00  0.00    -0.362 N
ATOM     15  H4  UNL     1      21.532   3.545  -3.841  1.00  0.00     0.165 HD
HETATM   16  C16 UNL     1      19.870   2.794  -4.678  1.00  0.00     0.087 A
ENDROOT
BRANCH   1  17
HETATM   17  N2  UNL     1      20.967   4.135  -6.186  1.00  0.00    -0.354 N
ATOM     18  H2  UNL     1      21.839   3.640  -6.375  1.00  0.00     0.166 HD
BRANCH  17  19
HETATM   19  C4  UNL     1      21.067   5.520  -6.284  1.00  0.00     0.032 A
HETATM   20  C3  UNL     1      21.302   6.156  -7.483  1.00  0.00     0.031 A
HETATM   21  C2  UNL     1      21.407   7.528  -7.552  1.00  0.00     0.027 A
HETATM   22  C1  UNL     1      21.276   8.285  -6.423  1.00  0.00     0.079 A
HETATM   23  C18 UNL     1      21.041   7.655  -5.227  1.00  0.00     0.027 A
HETATM   24  C17 UNL     1      20.940   6.297  -5.171  1.00  0.00     0.031 A
BRANCH  22  25
HETATM   25  S1  UNL     1      21.392  10.031  -6.422  1.00  0.00     0.256 S
HETATM   26  O1  UNL     1      21.423  10.534  -4.995  1.00  0.00    -0.201 OA
HETATM   27  O2  UNL     1      20.269  10.642  -7.173  1.00  0.00    -0.201 OA
BRANCH  25  28
HETATM   28  N1  UNL     1      22.914  10.461  -7.127  1.00  0.00    -0.324 N
ATOM     29  H12 UNL     1      23.643  11.021  -6.684  1.00  0.00     0.169 HD
ATOM     30  H11 UNL     1      22.929  10.047  -8.058  1.00  0.00     0.169 HD
ENDBRANCH  25  28
ENDBRANCH  22  25
ENDBRANCH  17  19
ENDBRANCH   1  17
TORSDOF 4
ENDMDL