MODEL 1
REMARK VINA RESULT: -8.185323702      0.000      0.000
REMARK  4 active torsions:
REMARK  status: ('A' for Active; 'I' for Inactive)
REMARK    1  A    between atoms: S1_2  and  C2_4
REMARK    2  A    between atoms: C5_7  and  C6_8
REMARK    3  A    between atoms: C7_9  and  C8_10
REMARK    4  A    between atoms: C11_13  and  C12_14
ROOT
HETATM    1  C8  UNL     1      21.467   7.474  -5.194  1.00  0.00     0.018 A
HETATM    2  C9  UNL     1      20.558   7.287  -4.180  1.00  0.00     0.021 A
HETATM    3  C10 UNL     1      19.857   6.106  -4.017  1.00  0.00     0.015 A
HETATM    4  C11 UNL     1      20.047   5.060  -4.877  1.00  0.00    -0.007 A
HETATM    5  C18 UNL     1      20.964   5.219  -5.920  1.00  0.00     0.015 A
HETATM    6  C19 UNL     1      21.649   6.408  -6.058  1.00  0.00     0.021 A
ENDROOT
BRANCH   1   7
HETATM    7  C7  UNL     1      22.170   8.715  -5.324  1.00  0.00    -0.060 C
HETATM    8  C6  UNL     1      22.764   9.762  -5.413  1.00  0.00    -0.043 C
BRANCH   8   9
HETATM    9  C5  UNL     1      23.480  11.006  -5.495  1.00  0.00     0.086 A
HETATM   10  C4  UNL     1      24.341  11.265  -6.554  1.00  0.00     0.040 A
HETATM   11  C3  UNL     1      25.037  12.437  -6.661  1.00  0.00     0.025 A
HETATM   12  C2  UNL     1      24.863  13.381  -5.674  1.00  0.00     0.046 A
HETATM   13  C20 UNL     1      23.997  13.097  -4.628  1.00  0.00     0.110 A
HETATM   14  N4  UNL     1      23.331  11.931  -4.558  1.00  0.00    -0.358 N
ATOM     15  H4  UNL     1      22.702  11.756  -3.774  1.00  0.00     0.166 HD
BRANCH  12  16
HETATM   16  S1  UNL     1      25.734  14.892  -5.775  1.00  0.00     0.047 S
HETATM   17  C1  UNL     1      27.427  14.527  -6.109  1.00  0.00     0.133 C
HETATM   18  O1  UNL     1      25.525  15.791  -4.384  1.00  0.00    -0.253 OA
ENDBRANCH  12  16
ENDBRANCH   8   9
ENDBRANCH   1   7
BRANCH   4  19
HETATM   19  C12 UNL     1      19.313   3.816  -4.712  1.00  0.00     0.071 A
HETATM   20  N1  UNL     1      18.112   3.687  -5.291  1.00  0.00    -0.363 N
HETATM   21  C13 UNL     1      17.374   2.564  -5.181  1.00  0.00     0.089 A
ATOM     22  H1  UNL     1      17.743   4.466  -5.835  1.00  0.00     0.165 HD
HETATM   23  C14 UNL     1      17.865   1.513  -4.451  1.00  0.00     0.032 A
HETATM   24  C15 UNL     1      19.080   1.575  -3.835  1.00  0.00     0.012 A
HETATM   25  C16 UNL     1      19.880   0.776  -3.055  1.00  0.00     0.120 A
HETATM   26  C17 UNL     1      19.807   2.763  -3.979  1.00  0.00     0.087 A
HETATM   27  N2  UNL     1      21.010   1.432  -2.747  1.00  0.00    -0.310 N
HETATM   28  N3  UNL     1      20.954   2.624  -3.309  1.00  0.00    -0.298 N
ATOM     29  H2  UNL     1      21.777   1.071  -2.179  1.00  0.00     0.186 HD
ATOM     30  H3  UNL     1      21.681   3.336  -3.241  1.00  0.00     0.187 HD
ENDBRANCH   4  19
TORSDOF 4
ENDMDL