MODEL 1
REMARK VINA RESULT: -8.303036133      0.000      0.000
REMARK  3 active torsions:
REMARK  status: ('A' for Active; 'I' for Inactive)
REMARK    1  A    between atoms: C7_7  and  C8_8
REMARK    2  A    between atoms: N3_15  and  O1_16
REMARK    3  A    between atoms: N5_28  and  O2_29
ROOT
HETATM    1  C8  UNL     1      15.857   0.590  -6.886  1.00  0.00     0.119 A
HETATM    2  N1  UNL     1      16.390   0.276  -5.713  1.00  0.00    -0.323 N
ATOM      3  H1  UNL     1      16.119  -0.526  -5.145  1.00  0.00     0.169 HD
HETATM    4  C9  UNL     1      17.332   1.160  -5.385  1.00  0.00     0.182 A
HETATM    5  C10 UNL     1      17.409   2.092  -6.404  1.00  0.00     0.182 A
HETATM    6  N2  UNL     1      16.494   1.706  -7.296  1.00  0.00    -0.323 N
ATOM      7  H2  UNL     1      16.301   2.192  -8.173  1.00  0.00     0.169 HD
HETATM    8  N3  UNL     1      18.269   3.127  -6.384  1.00  0.00    -0.200 N
HETATM    9  C11 UNL     1      19.080   3.240  -5.314  1.00  0.00     0.115 A
HETATM   10  C12 UNL     1      20.024   4.330  -5.233  1.00  0.00    -0.004 A
HETATM   11  C13 UNL     1      19.641   5.510  -4.642  1.00  0.00     0.014 A
HETATM   12  C14 UNL     1      20.521   6.568  -4.551  1.00  0.00     0.001 A
HETATM   13  C15 UNL     1      21.804   6.464  -5.051  1.00  0.00     0.000 A
HETATM   14  C16 UNL     1      22.148   5.264  -5.635  1.00  0.00     0.001 A
HETATM   15  C17 UNL     1      21.293   4.188  -5.743  1.00  0.00     0.014 A
HETATM   16  C18 UNL     1      19.050   2.340  -4.266  1.00  0.00     0.174 A
HETATM   17  C19 UNL     1      19.908   2.443  -3.117  1.00  0.00     0.122 C
HETATM   18  N4  UNL     1      20.599   2.523  -2.189  1.00  0.00    -0.190 NA
HETATM   19  N5  UNL     1      18.175   1.319  -4.326  1.00  0.00    -0.191 N
ENDROOT
BRANCH  19  20
HETATM   20  O2  UNL     1      18.091   0.386  -3.319  1.00  0.00    -0.280 OA
ATOM     21  H2  UNL     1      18.764   0.414  -2.650  1.00  0.00     0.245 HD
ENDBRANCH  19  20
BRANCH   8  22
HETATM   22  O1  UNL     1      18.297   4.024  -7.429  1.00  0.00    -0.281 OA
ATOM     23  H1  UNL     1      19.127   4.342  -7.763  1.00  0.00     0.245 HD
ENDBRANCH   8  22
BRANCH   1  24
HETATM   24  C7  UNL     1      14.799  -0.094  -7.630  1.00  0.00     0.014 A
HETATM   25  C2  UNL     1      14.848  -0.272  -8.984  1.00  0.00    -0.048 A
HETATM   26  C1  UNL     1      16.009   0.238  -9.774  1.00  0.00     0.049 C
HETATM   27  C3  UNL     1      13.818  -0.927  -9.636  1.00  0.00     0.007 A
HETATM   28  C4  UNL     1      12.718  -1.423  -8.979  1.00  0.00     0.001 A
HETATM   29  C5  UNL     1      12.667  -1.244  -7.609  1.00  0.00     0.001 A
HETATM   30  C6  UNL     1      13.695  -0.590  -6.961  1.00  0.00     0.016 A
ENDBRANCH   1  24
TORSDOF 3
ENDMDL