MODEL 4
REMARK VINA RESULT: -8.699371932      1.533      2.305
REMARK  5 active torsions:
REMARK  status: ('A' for Active; 'I' for Inactive)
REMARK    1  A    between atoms: C1_1  and  C16_24
REMARK    2  A    between atoms: C2_2  and  C3_3
REMARK    3  A    between atoms: C7_7  and  N1_8
REMARK    4  A    between atoms: N1_8  and  N2_10
REMARK    5  A    between atoms: C8_12  and  C9_13
ROOT
HETATM    1  C3  UNL     1      21.489   9.670  -6.649  1.00  0.00     0.088 A
HETATM    2  C4  UNL     1      20.719  10.379  -7.570  1.00  0.00     0.039 A
HETATM    3  C5  UNL     1      20.175   9.789  -8.672  1.00  0.00     0.007 A
HETATM    4  C6  UNL     1      20.390   8.449  -8.888  1.00  0.00     0.050 A
HETATM    5  C7  UNL     1      21.146   7.751  -7.984  1.00  0.00     0.120 A
HETATM    6  N3  UNL     1      21.670   8.366  -6.904  1.00  0.00    -0.334 N
ATOM      7  H3  UNL     1      22.230   7.815  -6.252  1.00  0.00     0.168 HD
ENDROOT
BRANCH   5   8
HETATM    8  N1  UNL     1      21.400   6.490  -8.107  1.00  0.00    -0.286 N
ATOM      9  H1  UNL     1      21.898   6.126  -8.920  1.00  0.00     0.188 HD
BRANCH   8  10
HETATM   10  N2  UNL     1      20.965   5.645  -7.083  1.00  0.00    -0.309 N
HETATM   11  C8  UNL     1      21.784   5.118  -6.246  1.00  0.00     0.118 C
ATOM     12  H2  UNL     1      19.969   5.441  -6.998  1.00  0.00     0.186 HD
BRANCH  11  13
HETATM   13  C9  UNL     1      21.328   4.244  -5.187  1.00  0.00    -0.017 A
HETATM   14  C10 UNL     1      21.795   4.374  -3.898  1.00  0.00     0.016 A
HETATM   15  C11 UNL     1      21.369   3.549  -2.882  1.00  0.00     0.040 A
HETATM   16  C12 UNL     1      20.453   2.557  -3.132  1.00  0.00     0.105 A
HETATM   17  C13 UNL     1      19.964   2.399  -4.413  1.00  0.00     0.105 A
HETATM   18  O2  UNL     1      19.833   1.579  -2.340  1.00  0.00    -0.323 OA
HETATM   19  C14 UNL     1      20.413   3.252  -5.429  1.00  0.00     0.052 A
HETATM   20  O1  UNL     1      19.073   1.348  -4.382  1.00  0.00    -0.323 OA
HETATM   21  C15 UNL     1      18.664   1.164  -3.040  1.00  0.00     0.352 C
ENDBRANCH  11  13
ENDBRANCH   8  10
ENDBRANCH   5   8
BRANCH   1  22
HETATM   22  C2  UNL     1      22.067  10.271  -5.490  1.00  0.00    -0.043 C
HETATM   23  C1  UNL     1      22.560  10.797  -4.519  1.00  0.00    -0.060 C
BRANCH  23  24
HETATM   24  C16 UNL     1      23.161  11.432  -3.380  1.00  0.00     0.018 A
HETATM   25  C17 UNL     1      24.179  10.805  -2.725  1.00  0.00     0.020 A
HETATM   26  C18 UNL     1      24.768  11.401  -1.629  1.00  0.00     0.001 A
HETATM   27  C19 UNL     1      24.344  12.632  -1.175  1.00  0.00     0.000 A
HETATM   28  C20 UNL     1      23.324  13.277  -1.818  1.00  0.00     0.001 A
HETATM   29  C21 UNL     1      22.743  12.665  -2.917  1.00  0.00     0.020 A
ENDBRANCH  23  24
ENDBRANCH   1  22
TORSDOF 5
ENDMDL