MODEL 2
REMARK VINA RESULT: -4.825556765      0.861      1.105
REMARK  3 active torsions:
REMARK  status: ('A' for Active; 'I' for Inactive)
REMARK    1  A    between atoms: C2_2  and  C3_3
REMARK    2  A    between atoms: C3_3  and  C6_9
REMARK    3  A    between atoms: C4_4  and  C5_5
ROOT
HETATM    1  C3  UNL     1      19.231   2.142  -4.113  1.00  0.00    -0.011 C
HETATM    2  C4  UNL     1      19.131   0.940  -3.496  1.00  0.00     0.030 C
ENDROOT
BRANCH   1   3
HETATM    3  C2  UNL     1      18.221   2.497  -5.018  1.00  0.00     0.003 C
HETATM    4  C1  UNL     1      17.417   3.501  -5.126  1.00  0.00     0.012 C
ENDBRANCH   1   3
BRANCH   1   5
HETATM    5  C6  UNL     1      20.392   2.909  -3.743  1.00  0.00     0.069 C
HETATM    6  N2  UNL     1      20.822   2.817  -2.328  1.00  0.00    -0.101 NA
HETATM    7  C7  UNL     1      21.142   3.686  -4.458  1.00  0.00     0.127 C
HETATM    8  N3  UNL     1      22.262   4.330  -3.777  1.00  0.00    -0.113 NA
ENDBRANCH   1   5
BRANCH   2   9
HETATM    9  C5  UNL     1      18.101  -0.032  -3.658  1.00  0.00     0.081 C
HETATM   10  N1  UNL     1      18.298  -0.996  -4.523  1.00  0.00    -0.408 N
ATOM     11  H12 UNL     1      19.167  -1.036  -5.056  1.00  0.00     0.155 HD
ATOM     12  H11 UNL     1      17.561  -1.692  -4.639  1.00  0.00     0.155 HD
ENDBRANCH   2   9
TORSDOF 3
ENDMDL