MODEL 5
REMARK VINA RESULT: -4.522422804      2.052      3.192
REMARK  2 active torsions:
REMARK  status: ('A' for Active; 'I' for Inactive)
REMARK    1  A    between atoms: C3_4  and  C4_5
REMARK    2  A    between atoms: C4_5  and  C5_6
ROOT
HETATM    1  C4  UNL     1      20.180   3.891  -4.239  1.00  0.00    -0.021 C
HETATM    2  C7  UNL     1      20.888   3.472  -3.114  1.00  0.00     0.111 C
HETATM    3  N3  UNL     1      20.596   2.278  -2.455  1.00  0.00    -0.114 NA
ENDROOT
BRANCH   1   4
HETATM    4  C3  UNL     1      20.611   5.110  -4.766  1.00  0.00     0.034 C
HETATM    5  C2  UNL     1      20.664   6.364  -4.489  1.00  0.00     0.021 C
HETATM    6  C1  UNL     1      21.308   7.279  -5.559  1.00  0.00     0.065 C
HETATM    7  N1  UNL     1      20.232   7.062  -3.371  1.00  0.00    -0.107 NA
ENDBRANCH   1   4
BRANCH   1   8
HETATM    8  C5  UNL     1      19.159   2.979  -4.609  1.00  0.00     0.027 C
HETATM    9  C6  UNL     1      17.963   3.056  -5.058  1.00  0.00     0.101 C
HETATM   10  N2  UNL     1      17.226   1.818  -5.320  1.00  0.00    -0.115 NA
ENDBRANCH   1   8
TORSDOF 2
ENDMDL