MODEL 4
REMARK VINA RESULT: -4.129950750      1.601      3.803
REMARK  6 active torsions:
REMARK  status: ('A' for Active; 'I' for Inactive)
REMARK    1  A    between atoms: C2_2  and  C3_3
REMARK    2  A    between atoms: C3_3  and  N1_4
REMARK    3  A    between atoms: C4_8  and  C5_9
REMARK    4  A    between atoms: C4_8  and  C7_15
REMARK    5  A    between atoms: C5_9  and  C6_10
REMARK    6  A    between atoms: C6_10  and  N2_11
ROOT
HETATM    1  C1  UNL     1      18.682   0.997  -1.979  1.00  0.00     0.046 C
HETATM    2  C2  UNL     1      19.005   0.863  -3.796  1.00  0.00    -0.040 C
HETATM    3  C4  UNL     1      19.737   2.053  -3.817  1.00  0.00     0.023 C
ENDROOT
BRANCH   3   4
HETATM    4  C5  UNL     1      19.779   2.564  -5.032  1.00  0.00    -0.116 C
BRANCH   4   5
HETATM    5  C6  UNL     1      19.823   3.114  -6.338  1.00  0.00     0.315 C
BRANCH   5   6
HETATM    6  N2  UNL     1      20.647   4.342  -6.347  1.00  0.00    -0.070 N
ATOM      7  H23 UNL     1      21.541   4.204  -5.878  1.00  0.00     0.275 HD
ATOM      8  H22 UNL     1      20.999   4.557  -7.280  1.00  0.00     0.275 HD
ATOM      9  H21 UNL     1      20.123   5.121  -5.948  1.00  0.00     0.275 HD
ENDBRANCH   5   6
ENDBRANCH   4   5
ENDBRANCH   3   4
BRANCH   3  10
HETATM   10  C7  UNL     1      20.604   2.621  -2.785  1.00  0.00     0.119 C
HETATM   11  N3  UNL     1      21.427   3.737  -3.009  1.00  0.00    -0.114 NA
ENDBRANCH   3  10
BRANCH   2  12
HETATM   12  C3  UNL     1      18.340  -0.218  -3.778  1.00  0.00     0.265 C
BRANCH  12  13
HETATM   13  N1  UNL     1      18.077  -0.700  -5.183  1.00  0.00    -0.076 N
ATOM     14  H13 UNL     1      17.520  -1.554  -5.193  1.00  0.00     0.274 HD
ATOM     15  H12 UNL     1      17.427  -0.089  -5.678  1.00  0.00     0.274 HD
ATOM     16  H11 UNL     1      18.954  -0.813  -5.691  1.00  0.00     0.274 HD
ENDBRANCH  12  13
ENDBRANCH   2  12
TORSDOF 6
ENDMDL