MODEL 2
REMARK VINA RESULT: -7.703611678      3.695      8.493
REMARK  6 active torsions:
REMARK  status: ('A' for Active; 'I' for Inactive)
REMARK    1  A    between atoms: C2_2  and  O1_3
REMARK    2  A    between atoms: O1_3  and  C3_4
REMARK    3  A    between atoms: C4_5  and  C5_6
REMARK    4  A    between atoms: C8_13  and  S1_14
REMARK    5  A    between atoms: S1_14  and  C9_15
REMARK    6  A    between atoms: C9_15  and  C10_16
ROOT
HETATM    1  S1  UNL     1      18.831   1.255  -2.633  1.00  0.00    -0.105 SA
ENDROOT
BRANCH   1   2
HETATM    2  C8  UNL     1      18.361   0.584  -4.217  1.00  0.00     0.096 A
HETATM    3  C6  UNL     1      17.790   1.334  -5.326  1.00  0.00     0.016 A
HETATM    4  C5  UNL     1      17.534   2.617  -5.329  1.00  0.00     0.017 C
HETATM    5  C7  UNL     1      17.585   0.350  -6.381  1.00  0.00     0.121 A
HETATM    6  N1  UNL     1      17.987  -0.791  -5.922  1.00  0.00    -0.310 N
HETATM    7  N2  UNL     1      18.457  -0.650  -4.611  1.00  0.00    -0.294 N
ATOM      8  H1  UNL     1      17.964  -1.669  -6.442  1.00  0.00     0.186 HD
ATOM      9  H2  UNL     1      18.825  -1.413  -4.043  1.00  0.00     0.187 HD
BRANCH   4  10
HETATM   10  C4  UNL     1      16.963   3.263  -6.494  1.00  0.00     0.025 C
HETATM   11  C3  UNL     1      15.698   3.066  -6.789  1.00  0.00     0.134 C
BRANCH  11  12
HETATM   12  O1  UNL     1      15.126   3.672  -7.899  1.00  0.00    -0.363 OA
BRANCH  12  13
HETATM   13  C2  UNL     1      13.982   3.019  -8.449  1.00  0.00     0.170 C
HETATM   14  C1  UNL     1      14.255   1.539  -8.420  1.00  0.00     0.034 C
ENDBRANCH  12  13
ENDBRANCH  11  12
ENDBRANCH   4  10
ENDBRANCH   1   2
BRANCH   1  15
HETATM   15  C9  UNL     1      20.603   1.707  -2.709  1.00  0.00     0.119 C
BRANCH  15  16
HETATM   16  C10 UNL     1      20.806   2.827  -3.668  1.00  0.00    -0.046 A
HETATM   17  C11 UNL     1      21.131   2.586  -5.003  1.00  0.00     0.010 A
HETATM   18  C12 UNL     1      21.319   3.630  -5.891  1.00  0.00     0.032 A
HETATM   19  C13 UNL     1      21.178   4.915  -5.419  1.00  0.00     0.063 A
HETATM   20  N3  UNL     1      21.286   6.125  -5.992  1.00  0.00    -0.307 N
HETATM   21  C15 UNL     1      20.855   5.165  -4.097  1.00  0.00     0.063 A
HETATM   22  C14 UNL     1      21.042   7.081  -5.061  1.00  0.00     0.325 A
ATOM     23  H3  UNL     1      21.516   6.297  -6.970  1.00  0.00     0.170 HD
HETATM   24  O2  UNL     1      21.065   8.314  -5.273  1.00  0.00    -0.247 OA
HETATM   25  N4  UNL     1      20.774   6.491  -3.884  1.00  0.00    -0.306 N
ATOM     26  H4  UNL     1      20.553   6.957  -3.004  1.00  0.00     0.170 HD
HETATM   27  C16 UNL     1      20.669   4.129  -3.218  1.00  0.00     0.039 A
ENDBRANCH  15  16
ENDBRANCH   1  15
TORSDOF 6
ENDMDL