MODEL 5
REMARK VINA RESULT: -4.575661971      3.253      5.091
REMARK  5 active torsions:
REMARK  status: ('A' for Active; 'I' for Inactive)
REMARK    1  A    between atoms: N1_1  and  C1_5
REMARK    2  A    between atoms: C1_5  and  C2_6
REMARK    3  A    between atoms: C2_6  and  C3_7
REMARK    4  A    between atoms: C3_7  and  N2_8
REMARK    5  A    between atoms: C3_7  and  C4_12
ROOT
HETATM    1  C3  UNL     1      21.492   4.033  -4.571  1.00  0.00     0.234 C
ENDROOT
BRANCH   1   2
HETATM    2  C2  UNL     1      20.838   5.307  -4.892  1.00  0.00     0.066 C
BRANCH   2   3
HETATM    3  C1  UNL     1      20.608   6.262  -3.776  1.00  0.00     0.232 C
BRANCH   3   4
HETATM    4  N1  UNL     1      19.686   7.330  -4.173  1.00  0.00    -0.079 N
ATOM      5  H13 UNL     1      18.770   7.215  -3.738  1.00  0.00     0.274 HD
ATOM      6  H12 UNL     1      19.945   8.225  -3.756  1.00  0.00     0.274 HD
ATOM      7  H11 UNL     1      19.612   7.398  -5.188  1.00  0.00     0.274 HD
ENDBRANCH   3   4
ENDBRANCH   2   3
ENDBRANCH   1   2
BRANCH   1   8
HETATM    8  N2  UNL     1      22.581   4.340  -3.607  1.00  0.00    -0.070 N
ATOM      9  H23 UNL     1      23.215   5.068  -3.936  1.00  0.00     0.275 HD
ATOM     10  H22 UNL     1      22.252   4.824  -2.771  1.00  0.00     0.275 HD
ATOM     11  H21 UNL     1      23.051   3.459  -3.402  1.00  0.00     0.275 HD
ENDBRANCH   1   8
BRANCH   1  12
HETATM   12  C4  UNL     1      20.668   3.026  -3.860  1.00  0.00     0.035 A
HETATM   13  C5  UNL     1      20.723   2.615  -2.616  1.00  0.00     0.005 A
HETATM   14  C6  UNL     1      19.670   1.593  -2.427  1.00  0.00     0.073 A
HETATM   15  C7  UNL     1      19.054   1.519  -3.770  1.00  0.00     0.065 A
HETATM   16  N3  UNL     1      19.638   2.336  -4.543  1.00  0.00    -0.371 N
ATOM     17  H3  UNL     1      19.398   2.477  -5.525  1.00  0.00     0.164 HD
ENDBRANCH   1  12
TORSDOF 5
ENDMDL