MODEL 4
REMARK VINA RESULT: -4.442357238      1.075      1.186
REMARK  5 active torsions:
REMARK  status: ('A' for Active; 'I' for Inactive)
REMARK    1  A    between atoms: C2_2  and  C3_4
REMARK    2  A    between atoms: C3_4  and  C4_5
REMARK    3  A    between atoms: C4_5  and  N2_6
REMARK    4  A    between atoms: C5_10  and  C7_12
REMARK    5  A    between atoms: C7_12  and  N3_13
ROOT
HETATM    1  C3  UNL     1      18.604   1.257  -4.287  1.00  0.00    -0.006 C
HETATM    2  C5  UNL     1      19.531   2.046  -3.915  1.00  0.00    -0.049 C
HETATM    3  C6  UNL     1      20.299   1.703  -2.639  1.00  0.00     0.046 C
ENDROOT
BRANCH   1   4
HETATM    4  C2  UNL     1      17.759   1.376  -5.435  1.00  0.00     0.045 C
HETATM    5  C1  UNL     1      18.304   1.384  -6.645  1.00  0.00     0.040 C
HETATM    6  N1  UNL     1      16.357   1.502  -5.400  1.00  0.00    -0.103 NA
ENDBRANCH   1   4
BRANCH   1   7
HETATM    7  C4  UNL     1      18.372   0.053  -3.363  1.00  0.00     0.270 C
BRANCH   7   8
HETATM    8  N2  UNL     1      17.863  -1.084  -4.093  1.00  0.00    -0.075 N
ATOM      9  H23 UNL     1      16.848  -1.155  -4.015  1.00  0.00     0.274 HD
ATOM     10  H22 UNL     1      17.935  -0.944  -5.101  1.00  0.00     0.274 HD
ATOM     11  H21 UNL     1      18.320  -1.949  -3.803  1.00  0.00     0.274 HD
ENDBRANCH   7   8
ENDBRANCH   1   7
BRANCH   2  12
HETATM   12  C7  UNL     1      20.030   3.255  -4.533  1.00  0.00     0.264 C
BRANCH  12  13
HETATM   13  N3  UNL     1      21.388   3.068  -5.081  1.00  0.00    -0.076 N
ATOM     14  H33 UNL     1      21.980   3.877  -4.893  1.00  0.00     0.274 HD
ATOM     15  H32 UNL     1      21.908   2.365  -4.555  1.00  0.00     0.274 HD
ATOM     16  H31 UNL     1      21.367   2.846  -6.076  1.00  0.00     0.274 HD
ENDBRANCH  12  13
ENDBRANCH   2  12
TORSDOF 5
ENDMDL