MODEL 5
REMARK VINA RESULT: -6.434294498      3.853      8.276
REMARK  5 active torsions:
REMARK  status: ('A' for Active; 'I' for Inactive)
REMARK    1  A    between atoms: C2_2  and  N1_4
REMARK       I    between atoms: C4_6  and  N3_8
REMARK    2  A    between atoms: N3_8  and  C5_10
REMARK    3  A    between atoms: C5_10  and  C6_11
REMARK    4  A    between atoms: C6_11  and  N4_12
REMARK       I    between atoms: C7_14  and  N6_16
REMARK    5  A    between atoms: C10_19  and  N7_20
ROOT
HETATM    1  N4  UNL     1      59.377 -27.918 -36.888  1.00  0.00    -0.363 N
ATOM      2  H4  UNL     1      58.555 -27.862 -37.489  1.00  0.00     0.162 HD
HETATM    3  C7  UNL     1      59.539 -27.026 -35.973  1.00  0.00     0.186 C
HETATM    4  N5  UNL     1      58.599 -25.986 -35.796  1.00  0.00    -0.064 NA
HETATM    5  N6  UNL     1      60.676 -27.079 -35.122  1.00  0.00    -0.354 N
HETATM    6  C8  UNL     1      60.693 -27.735 -33.837  1.00  0.00     0.127 C
HETATM    7  C9  UNL     1      61.904 -27.079 -33.160  1.00  0.00     0.054 C
HETATM    8  C10 UNL     1      62.861 -27.025 -34.335  1.00  0.00     0.203 C
HETATM    9  C11 UNL     1      61.963 -26.485 -35.425  1.00  0.00     0.158 C
ENDROOT
BRANCH   1  10
HETATM   10  C6  UNL     1      60.311 -28.986 -37.095  1.00  0.00     0.142 C
BRANCH  10  11
HETATM   11  C5  UNL     1      59.803 -30.254 -36.474  1.00  0.00     0.142 C
BRANCH  11  12
HETATM   12  N3  UNL     1      60.868 -30.895 -35.736  1.00  0.00    -0.363 N
HETATM   13  C4  UNL     1      60.585 -31.987 -34.874  1.00  0.00     0.184 C
HETATM   14  N1  UNL     1      61.035 -33.140 -35.142  1.00  0.00    -0.361 N
HETATM   15  N2  UNL     1      59.797 -31.751 -33.723  1.00  0.00    -0.064 NA
ATOM     16  H1  UNL     1      61.593 -33.212 -35.993  1.00  0.00     0.162 HD
ATOM     17  H3  UNL     1      61.826 -30.562 -35.836  1.00  0.00     0.162 HD
BRANCH  14  18
HETATM   18  C2  UNL     1      60.863 -34.350 -34.409  1.00  0.00     0.076 C
HETATM   19  C1  UNL     1      59.713 -35.190 -34.906  1.00  0.00     0.032 C
HETATM   20  C3  UNL     1      62.091 -35.217 -34.327  1.00  0.00     0.032 C
ENDBRANCH  14  18
ENDBRANCH  11  12
ENDBRANCH  10  11
ENDBRANCH   1  10
BRANCH   8  21
HETATM   21  N7  UNL     1      63.958 -26.112 -34.098  1.00  0.00    -0.073 N
ATOM     22  H73 UNL     1      63.970 -25.791 -33.129  1.00  0.00     0.274 HD
ATOM     23  H72 UNL     1      64.855 -26.598 -34.117  1.00  0.00     0.274 HD
ATOM     24  H71 UNL     1      63.949 -25.327 -34.749  1.00  0.00     0.274 HD
ENDBRANCH   8  21
TORSDOF 5
ENDMDL