MODEL 4
REMARK VINA RESULT: -7.234392104      1.041      1.683
REMARK  6 active torsions:
REMARK  status: ('A' for Active; 'I' for Inactive)
REMARK    1  A    between atoms: C2_2  and  C3_3
REMARK    2  A    between atoms: C2_2  and  C7_22
REMARK       I    between atoms: C3_3  and  N1_5
REMARK    3  A    between atoms: N1_5  and  C4_7
REMARK    4  A    between atoms: C4_7  and  N2_8
REMARK    5  A    between atoms: C4_7  and  C5_12
REMARK    6  A    between atoms: C5_12  and  O2_13
REMARK       I    between atoms: N3_15  and  C6_17
ROOT
HETATM    1  C4  UNL     1      60.447 -31.552 -34.864  1.00  0.00     0.359 C
ENDROOT
BRANCH   1   2
HETATM    2  N1  UNL     1      61.087 -30.858 -33.762  1.00  0.00    -0.327 N
HETATM    3  C3  UNL     1      61.363 -29.485 -33.774  1.00  0.00     0.223 C
HETATM    4  O1  UNL     1      61.038 -28.806 -34.811  1.00  0.00    -0.273 OA
ATOM      5  H1  UNL     1      61.350 -31.398 -32.937  1.00  0.00     0.165 HD
BRANCH   3   6
HETATM    6  C2  UNL     1      62.002 -28.739 -32.682  1.00  0.00     0.078 C
HETATM    7  C1  UNL     1      62.124 -29.606 -31.421  1.00  0.00     0.020 C
BRANCH   6   8
HETATM    8  C7  UNL     1      63.384 -28.308 -33.026  1.00  0.00     0.003 C
HETATM    9  C8  UNL     1      64.301 -28.500 -31.797  1.00  0.00     0.010 C
HETATM   10  C9  UNL     1      64.864 -27.112 -31.709  1.00  0.00    -0.013 C
HETATM   11  C10 UNL     1      65.157 -26.810 -33.161  1.00  0.00     0.010 C
HETATM   12  C12 UNL     1      63.618 -26.242 -31.910  1.00  0.00     0.010 C
HETATM   13  C11 UNL     1      63.616 -26.875 -33.286  1.00  0.00    -0.009 C
ENDBRANCH   6   8
ENDBRANCH   3   6
ENDBRANCH   1   2
BRANCH   1  14
HETATM   14  N2  UNL     1      59.039 -31.214 -34.839  1.00  0.00    -0.051 N
ATOM     15  H23 UNL     1      58.435 -32.036 -34.810  1.00  0.00     0.277 HD
ATOM     16  H22 UNL     1      58.746 -30.801 -33.954  1.00  0.00     0.277 HD
ATOM     17  H21 UNL     1      58.851 -30.611 -35.640  1.00  0.00     0.277 HD
ENDBRANCH   1  14
BRANCH   1  18
HETATM   18  C5  UNL     1      60.541 -33.015 -34.637  1.00  0.00     0.169 C
HETATM   19  N3  UNL     1      61.662 -33.630 -34.676  1.00  0.00    -0.312 N
HETATM   20  C6  UNL     1      62.873 -32.927 -34.944  1.00  0.00     0.187 C
ATOM     21  H3  UNL     1      61.690 -34.637 -34.515  1.00  0.00     0.170 HD
HETATM   22  N4  UNL     1      63.208 -32.741 -36.170  1.00  0.00    -0.373 N
HETATM   23  N5  UNL     1      63.709 -32.434 -33.918  1.00  0.00    -0.064 NA
ATOM     24  H42 UNL     1      62.604 -33.097 -36.911  1.00  0.00     0.158 HD
ATOM     25  H41 UNL     1      64.074 -32.238 -36.361  1.00  0.00     0.158 HD
BRANCH  18  26
HETATM   26  O2  UNL     1      59.400 -33.768 -34.370  1.00  0.00    -0.346 OA
ATOM     27  H2  UNL     1      59.463 -34.597 -33.910  1.00  0.00     0.219 HD
ENDBRANCH  18  26
ENDBRANCH   1  18
TORSDOF 6
ENDMDL