MODEL 2
REMARK VINA RESULT: -6.109701836      1.697      2.002
REMARK  7 active torsions:
REMARK  status: ('A' for Active; 'I' for Inactive)
REMARK       I    between atoms: C2_4  and  N3_6
REMARK    1  A    between atoms: N3_6  and  C3_8
REMARK    2  A    between atoms: C3_8  and  S2_10
REMARK    3  A    between atoms: S2_10  and  C4_11
REMARK    4  A    between atoms: C4_11  and  C5_12
REMARK    5  A    between atoms: C5_12  and  C6_13
REMARK    6  A    between atoms: C6_13  and  N4_14
REMARK    7  A    between atoms: N4_14  and  C7_16
ROOT
HETATM    1  C3  UNL     1      61.527 -30.807 -35.016  1.00  0.00     0.140 C
HETATM    2  S1  UNL     1      62.244 -29.869 -33.887  1.00  0.00    -0.052 SA
ENDROOT
BRANCH   1   3
HETATM    3  N3  UNL     1      61.777 -32.208 -35.076  1.00  0.00    -0.316 N
HETATM    4  C2  UNL     1      60.785 -33.185 -34.755  1.00  0.00     0.189 C
HETATM    5  N1  UNL     1      60.989 -34.423 -35.076  1.00  0.00    -0.369 N
HETATM    6  N2  UNL     1      59.580 -32.836 -34.092  1.00  0.00    -0.064 NA
HETATM    7  C1  UNL     1      59.987 -35.398 -34.748  1.00  0.00     0.148 C
ATOM      8  H1  UNL     1      61.846 -34.701 -35.554  1.00  0.00     0.161 HD
ATOM      9  H3  UNL     1      62.703 -32.528 -35.360  1.00  0.00     0.170 HD
ENDBRANCH   1   3
BRANCH   1  10
HETATM   10  S2  UNL     1      60.414 -30.072 -36.170  1.00  0.00    -0.100 SA
BRANCH  10  11
HETATM   11  C4  UNL     1      60.870 -28.386 -36.537  1.00  0.00     0.083 C
BRANCH  11  12
HETATM   12  C5  UNL     1      59.651 -27.602 -36.943  1.00  0.00     0.030 C
BRANCH  12  13
HETATM   13  C6  UNL     1      59.754 -26.246 -36.259  1.00  0.00     0.122 C
BRANCH  13  14
HETATM   14  N4  UNL     1      58.638 -26.013 -35.367  1.00  0.00    -0.369 N
ATOM     15  H4  UNL     1      57.681 -26.032 -35.716  1.00  0.00     0.161 HD
BRANCH  14  16
HETATM   16  C7  UNL     1      58.902 -25.759 -34.012  1.00  0.00     0.180 C
HETATM   17  N5  UNL     1      57.982 -25.065 -33.208  1.00  0.00    -0.070 NA
HETATM   18  S3  UNL     1      60.296 -26.278 -33.364  1.00  0.00    -0.044 SA
ENDBRANCH  14  16
ENDBRANCH  13  14
ENDBRANCH  12  13
ENDBRANCH  11  12
ENDBRANCH  10  11
ENDBRANCH   1  10
TORSDOF 7
ENDMDL