MODEL 3
REMARK VINA RESULT: -6.539316814      2.090      2.341
REMARK  4 active torsions:
REMARK  status: ('A' for Active; 'I' for Inactive)
REMARK    1  A    between atoms: O1_2  and  C2_3
REMARK    2  A    between atoms: C2_3  and  C3_4
REMARK       I    between atoms: N1_8  and  C7_10
REMARK    3  A    between atoms: C8_15  and  C9_16
REMARK    4  A    between atoms: C9_16  and  N4_17
ROOT
HETATM    1  C3  UNL     1      60.121 -26.426 -36.176  1.00  0.00     0.103 C
HETATM    2  C4  UNL     1      59.717 -27.647 -36.977  1.00  0.00     0.033 C
HETATM    3  C5  UNL     1      60.585 -28.824 -36.614  1.00  0.00     0.057 C
HETATM    4  C6  UNL     1      60.979 -28.801 -35.192  1.00  0.00     0.013 C
HETATM    5  N1  UNL     1      60.796 -29.780 -34.420  1.00  0.00    -0.336 N
ATOM      6  H1  UNL     1      61.099 -29.678 -33.452  1.00  0.00     0.168 HD
HETATM    7  C7  UNL     1      60.204 -31.011 -34.790  1.00  0.00     0.185 C
HETATM    8  N2  UNL     1      60.949 -31.900 -35.337  1.00  0.00    -0.374 N
ATOM      9  H21 UNL     1      60.522 -32.787 -35.603  1.00  0.00     0.158 HD
ATOM     10  H22 UNL     1      61.943 -31.770 -35.521  1.00  0.00     0.158 HD
HETATM   11  N3  UNL     1      58.825 -31.190 -34.534  1.00  0.00    -0.064 NA
HETATM   12  C8  UNL     1      61.611 -27.571 -34.672  1.00  0.00     0.142 C
HETATM   13  N7  UNL     1      61.410 -26.539 -35.620  1.00  0.00    -0.399 N
HETATM   14  C11 UNL     1      62.199 -25.382 -35.494  1.00  0.00     0.144 C
ENDROOT
BRANCH  12  15
HETATM   15  C9  UNL     1      61.061 -27.169 -33.323  1.00  0.00     0.152 C
BRANCH  15  16
HETATM   16  N4  UNL     1      62.052 -27.350 -32.298  1.00  0.00    -0.365 N
HETATM   17  C10 UNL     1      62.533 -26.358 -31.637  1.00  0.00     0.197 C
HETATM   18  N5  UNL     1      62.066 -25.043 -31.932  1.00  0.00    -0.067 NA
HETATM   19  N6  UNL     1      63.509 -26.567 -30.633  1.00  0.00    -0.067 NA
ATOM     20  H4  UNL     1      62.384 -28.292 -32.090  1.00  0.00     0.161 HD
ENDBRANCH  15  16
ENDBRANCH  12  15
BRANCH   1  21
HETATM   21  C2  UNL     1      59.956 -25.166 -36.964  1.00  0.00     0.191 C
BRANCH  21  22
HETATM   22  O1  UNL     1      58.971 -24.384 -36.370  1.00  0.00    -0.394 OA
HETATM   23  C1  UNL     1      59.293 -23.028 -36.394  1.00  0.00     0.201 C
ENDBRANCH  21  22
ENDBRANCH   1  21
TORSDOF 4
ENDMDL