MODEL 3
REMARK VINA RESULT: -6.811812459      3.891      4.888
REMARK  3 active torsions:
REMARK  status: ('A' for Active; 'I' for Inactive)
REMARK    1  A    between atoms: C3_4  and  C4_5
REMARK       I    between atoms: C4_5  and  N2_7
REMARK    2  A    between atoms: N2_7  and  C5_9
REMARK    3  A    between atoms: N3_10  and  N4_12
REMARK       I    between atoms: N4_12  and  C6_14
REMARK       I    between atoms: N7_21  and  C9_22
ROOT
HETATM    1  C1  UNL     1      63.388 -27.164 -36.276  1.00  0.00     0.224 C
HETATM    2  N1  UNL     1      62.690 -26.218 -36.233  1.00  0.00    -0.445 NA
HETATM    3  C2  UNL     1      61.887 -25.077 -36.193  1.00  0.00     0.277 C
HETATM    4  C3  UNL     1      60.503 -25.261 -36.775  1.00  0.00     0.135 C
HETATM    5  C7  UNL     1      59.690 -24.228 -35.936  1.00  0.00     0.039 C
HETATM    6  C8  UNL     1      60.278 -24.574 -34.576  1.00  0.00     0.130 C
HETATM    7  N7  UNL     1      61.683 -24.609 -34.850  1.00  0.00    -0.319 N
HETATM    8  C9  UNL     1      62.701 -24.240 -33.938  1.00  0.00     0.218 C
HETATM    9  C10 UNL     1      64.116 -24.313 -34.322  1.00  0.00     0.117 C
HETATM   10  O2  UNL     1      62.440 -23.834 -32.760  1.00  0.00    -0.274 OA
ENDROOT
BRANCH   4  11
HETATM   11  C4  UNL     1      59.899 -26.577 -36.509  1.00  0.00     0.231 C
HETATM   12  O1  UNL     1      58.964 -26.760 -35.707  1.00  0.00    -0.273 OA
HETATM   13  N2  UNL     1      60.408 -27.701 -37.207  1.00  0.00    -0.322 N
ATOM     14  H2  UNL     1      61.173 -27.577 -37.870  1.00  0.00     0.169 HD
BRANCH  13  15
HETATM   15  C5  UNL     1      59.862 -29.009 -36.996  1.00  0.00     0.200 C
HETATM   16  N3  UNL     1      59.873 -29.562 -35.834  1.00  0.00    -0.294 N
ATOM     17  H3  UNL     1      60.279 -29.056 -35.047  1.00  0.00     0.187 HD
BRANCH  16  18
HETATM   18  N4  UNL     1      59.348 -30.826 -35.622  1.00  0.00    -0.273 N
HETATM   19  C6  UNL     1      60.048 -31.798 -34.867  1.00  0.00     0.200 C
HETATM   20  N5  UNL     1      59.654 -32.106 -33.673  1.00  0.00    -0.372 N
HETATM   21  N6  UNL     1      61.185 -32.448 -35.397  1.00  0.00    -0.062 NA
ATOM     22  H52 UNL     1      58.832 -31.637 -33.290  1.00  0.00     0.158 HD
ATOM     23  H51 UNL     1      60.158 -32.806 -33.129  1.00  0.00     0.158 HD
ATOM     24  H4  UNL     1      58.438 -31.062 -36.019  1.00  0.00     0.189 HD
ENDBRANCH  16  18
ENDBRANCH  13  15
ENDBRANCH   4  11
TORSDOF 3
ENDMDL