MODEL 1
REMARK VINA RESULT: -6.867603161      0.000      0.000
REMARK  4 active torsions:
REMARK  status: ('A' for Active; 'I' for Inactive)
REMARK       I    between atoms: N1_2  and  C2_4
REMARK    1  A    between atoms: N3_6  and  C3_8
REMARK    2  A    between atoms: C3_8  and  C4_9
REMARK    3  A    between atoms: C4_9  and  N4_10
REMARK       I    between atoms: N4_10  and  C5_12
REMARK       I    between atoms: C5_12  and  N6_16
REMARK    4  A    between atoms: C8_19  and  N7_20
ROOT
HETATM    1  N4  UNL     1      59.913 -33.073 -34.074  1.00  0.00    -0.225 N
ATOM      2  H4  UNL     1      59.636 -33.306 -33.120  1.00  0.00     0.177 HD
HETATM    3  C5  UNL     1      59.950 -31.719 -34.502  1.00  0.00     0.669 C
HETATM    4  N5  UNL     1      58.846 -31.221 -34.952  1.00  0.00    -0.235 N
ATOM      5  H51 UNL     1      58.872 -30.248 -35.260  1.00  0.00     0.174 HD
ATOM      6  H52 UNL     1      58.018 -31.816 -34.976  1.00  0.00     0.174 HD
HETATM    7  N6  UNL     1      61.095 -30.897 -34.469  1.00  0.00    -0.218 N
HETATM    8  C6  UNL     1      60.931 -29.478 -34.293  1.00  0.00     0.143 C
HETATM    9  C7  UNL     1      61.936 -28.850 -33.393  1.00  0.00     0.045 C
HETATM   10  C8  UNL     1      63.297 -29.443 -33.417  1.00  0.00     0.081 C
HETATM   11  C11 UNL     1      63.521 -30.503 -34.435  1.00  0.00     0.045 C
HETATM   12  C12 UNL     1      62.392 -31.454 -34.604  1.00  0.00     0.143 C
ENDROOT
BRANCH   1  13
HETATM   13  C4  UNL     1      60.280 -34.131 -35.021  1.00  0.00     0.157 C
BRANCH  13  14
HETATM   14  C3  UNL     1      60.914 -35.297 -34.277  1.00  0.00     0.142 C
BRANCH  14  15
HETATM   15  N3  UNL     1      62.125 -35.676 -34.954  1.00  0.00    -0.363 N
HETATM   16  C2  UNL     1      63.282 -35.546 -34.410  1.00  0.00     0.183 C
HETATM   17  N1  UNL     1      64.464 -35.933 -35.114  1.00  0.00    -0.369 N
HETATM   18  N2  UNL     1      63.389 -35.021 -33.113  1.00  0.00    -0.064 NA
HETATM   19  C1  UNL     1      65.294 -34.947 -35.754  1.00  0.00     0.148 C
ATOM     20  H1  UNL     1      64.723 -36.919 -35.162  1.00  0.00     0.161 HD
ATOM     21  H3  UNL     1      62.063 -36.061 -35.896  1.00  0.00     0.162 HD
ENDBRANCH  14  15
ENDBRANCH  13  14
ENDBRANCH   1  13
BRANCH  10  22
HETATM   22  N7  UNL     1      64.260 -28.385 -33.541  1.00  0.00    -0.416 N
HETATM   23  C9  UNL     1      64.673 -28.106 -34.868  1.00  0.00     0.143 C
HETATM   24  C10 UNL     1      65.296 -28.404 -32.565  1.00  0.00     0.143 C
ENDBRANCH  10  22
TORSDOF 4
ENDMDL