MODEL 3
REMARK VINA RESULT: -6.671640024      2.223      6.356
REMARK  5 active torsions:
REMARK  status: ('A' for Active; 'I' for Inactive)
REMARK    1  A    between atoms: C2_4  and  N2_5
REMARK    2  A    between atoms: C2_4  and  C11_20
REMARK    3  A    between atoms: N2_5  and  C3_7
REMARK    4  A    between atoms: N3_11  and  C7_12
REMARK    5  A    between atoms: C7_12  and  C8_13
ROOT
HETATM    1  C3  UNL     1      61.746 -27.800 -33.392  1.00  0.00     0.085 C
HETATM    2  C4  UNL     1      61.684 -27.524 -34.858  1.00  0.00     0.030 C
HETATM    3  C5  UNL     1      60.485 -28.267 -35.454  1.00  0.00     0.046 C
HETATM    4  C6  UNL     1      61.029 -29.472 -36.182  1.00  0.00     0.058 C
HETATM    5  N3  UNL     1      61.668 -30.446 -35.406  1.00  0.00    -0.387 N
HETATM    6  C9  UNL     1      62.387 -30.072 -34.249  1.00  0.00     0.124 C
HETATM    7  C10 UNL     1      61.598 -29.322 -33.224  1.00  0.00     0.045 C
ENDROOT
BRANCH   1   8
HETATM    8  N2  UNL     1      62.885 -27.333 -32.697  1.00  0.00    -0.368 N
ATOM      9  H2  UNL     1      63.628 -26.922 -33.261  1.00  0.00     0.161 HD
BRANCH   8  10
HETATM   10  C2  UNL     1      63.098 -27.376 -31.301  1.00  0.00     0.163 C
HETATM   11  N1  UNL     1      64.165 -28.003 -30.839  1.00  0.00    -0.377 N
HETATM   12  C1  UNL     1      65.090 -28.630 -31.724  1.00  0.00     0.148 C
ATOM     13  H1  UNL     1      64.329 -28.039 -29.833  1.00  0.00     0.160 HD
BRANCH  10  14
HETATM   14  C11 UNL     1      62.233 -26.809 -30.282  1.00  0.00     0.298 C
HETATM   15  N6  UNL     1      61.913 -25.449 -30.179  1.00  0.00    -0.054 NA
HETATM   16  O1  UNL     1      61.724 -27.583 -29.418  1.00  0.00    -0.268 OA
ENDBRANCH  10  14
ENDBRANCH   8  10
ENDBRANCH   1   8
BRANCH   5  17
HETATM   17  C7  UNL     1      61.240 -31.792 -35.474  1.00  0.00     0.194 C
BRANCH  17  18
HETATM   18  C8  UNL     1      59.963 -32.005 -34.797  1.00  0.00     0.104 C
HETATM   19  N4  UNL     1      59.786 -33.175 -34.223  1.00  0.00    -0.390 N
ATOM     20  H42 UNL     1      60.563 -33.834 -34.293  1.00  0.00     0.157 HD
ATOM     21  H41 UNL     1      58.894 -33.324 -33.750  1.00  0.00     0.157 HD
HETATM   22  N5  UNL     1      58.895 -31.099 -34.701  1.00  0.00    -0.086 NA
ENDBRANCH  17  18
ENDBRANCH   5  17
TORSDOF 5
ENDMDL