MODEL 1
REMARK VINA RESULT: -6.991539314      0.000      0.000
REMARK  4 active torsions:
REMARK  status: ('A' for Active; 'I' for Inactive)
REMARK    1  A    between atoms: C2_2  and  N1_3
REMARK    2  A    between atoms: C4_5  and  N2_6
REMARK       I    between atoms: N2_6  and  C5_8
REMARK    3  A    between atoms: C5_8  and  C6_10
REMARK    4  A    between atoms: C6_10  and  N3_11
REMARK       I    between atoms: N3_11  and  C7_13
ROOT
HETATM    1  N2  UNL     1      61.815 -27.765 -33.690  1.00  0.00    -0.352 N
ATOM      2  H2  UNL     1      62.304 -26.873 -33.760  1.00  0.00     0.163 HD
HETATM    3  C5  UNL     1      62.221 -28.713 -32.739  1.00  0.00     0.246 C
HETATM    4  O1  UNL     1      61.601 -29.805 -32.675  1.00  0.00    -0.271 OA
ENDROOT
BRANCH   3   5
HETATM    5  C6  UNL     1      63.359 -28.426 -31.829  1.00  0.00     0.117 A
HETATM    6  C8  UNL     1      64.028 -29.556 -31.132  1.00  0.00     0.048 A
HETATM    7  C9  UNL     1      64.706 -29.033 -32.330  1.00  0.00     0.022 A
HETATM    8  C10 UNL     1      65.912 -28.155 -32.250  1.00  0.00     0.013 C
BRANCH   5   9
HETATM    9  N3  UNL     1      63.461 -27.160 -31.151  1.00  0.00    -0.346 N
HETATM   10  C7  UNL     1      62.489 -26.638 -30.266  1.00  0.00     0.182 C
HETATM   11  N4  UNL     1      61.740 -27.376 -29.526  1.00  0.00    -0.374 N
HETATM   12  N5  UNL     1      62.332 -25.232 -30.191  1.00  0.00    -0.064 NA
ATOM     13  H42 UNL     1      61.852 -28.388 -29.580  1.00  0.00     0.158 HD
ATOM     14  H41 UNL     1      61.039 -27.000 -28.888  1.00  0.00     0.158 HD
ATOM     15  H3  UNL     1      64.295 -26.599 -31.322  1.00  0.00     0.163 HD
ENDBRANCH   5   9
ENDBRANCH   3   5
BRANCH   1  16
HETATM   16  C4  UNL     1      60.704 -28.050 -34.571  1.00  0.00     0.119 C
HETATM   17  C3  UNL     1      59.878 -26.853 -34.874  1.00  0.00     0.298 C
HETATM   18  N1  UNL     1      59.573 -26.886 -36.252  1.00  0.00     0.095 N
HETATM   19  C13 UNL     1      60.253 -27.905 -36.940  1.00  0.00     0.229 A
HETATM   20  C11 UNL     1      61.163 -28.523 -35.931  1.00  0.00     0.045 A
HETATM   21  C12 UNL     1      60.144 -29.340 -36.660  1.00  0.00     0.045 A
BRANCH  18  22
HETATM   22  C2  UNL     1      59.551 -25.610 -36.908  1.00  0.00     0.268 C
HETATM   23  C1  UNL     1      60.760 -24.763 -36.602  1.00  0.00     0.037 C
ENDBRANCH  18  22
ENDBRANCH   1  16
TORSDOF 4
ENDMDL