MODEL 3
REMARK VINA RESULT: -6.783688372      1.424      1.535
REMARK  5 active torsions:
REMARK  status: ('A' for Active; 'I' for Inactive)
REMARK    1  A    between atoms: N1_1  and  N2_4
REMARK    2  A    between atoms: N2_4  and  N3_6
REMARK       I    between atoms: N3_6  and  C1_8
REMARK       I    between atoms: C1_8  and  N5_12
REMARK    3  A    between atoms: N5_12  and  C2_14
REMARK    4  A    between atoms: C2_14  and  C3_15
REMARK    5  A    between atoms: C3_15  and  C4_16
ROOT
HETATM    1  N3  UNL     1      60.437 -30.651 -33.903  1.00  0.00    -0.119 N
ATOM      2  H3  UNL     1      60.144 -30.533 -32.933  1.00  0.00     0.207 HD
HETATM    3  C1  UNL     1      60.643 -29.471 -34.722  1.00  0.00     0.688 C
HETATM    4  N4  UNL     1      61.382 -29.645 -35.758  1.00  0.00    -0.234 N
ATOM      5  H41 UNL     1      61.526 -28.815 -36.334  1.00  0.00     0.174 HD
ATOM      6  H42 UNL     1      61.807 -30.535 -36.016  1.00  0.00     0.174 HD
HETATM    7  N5  UNL     1      60.057 -28.245 -34.368  1.00  0.00    -0.214 N
ATOM      8  H5  UNL     1      59.114 -28.245 -33.977  1.00  0.00     0.178 HD
ENDROOT
BRANCH   7   9
HETATM    9  C2  UNL     1      60.757 -26.957 -34.542  1.00  0.00     0.071 C
HETATM   10  C8  UNL     1      61.188 -26.836 -35.985  1.00  0.00     0.036 C
HETATM   11  C9  UNL     1      60.490 -25.666 -36.694  1.00  0.00     0.029 C
HETATM   12  C10 UNL     1      59.018 -25.838 -36.479  1.00  0.00     0.167 C
HETATM   13  O2  UNL     1      58.666 -26.183 -35.175  1.00  0.00    -0.389 OA
HETATM   14  C11 UNL     1      59.749 -25.853 -34.306  1.00  0.00     0.199 C
BRANCH   9  15
HETATM   15  C3  UNL     1      61.847 -26.970 -33.549  1.00  0.00     0.065 C
BRANCH  15  16
HETATM   16  C4  UNL     1      61.543 -27.079 -32.111  1.00  0.00     0.123 C
HETATM   17  C5  UNL     1      62.361 -28.016 -31.294  1.00  0.00     0.034 C
HETATM   18  C6  UNL     1      62.593 -27.206 -30.001  1.00  0.00     0.029 C
HETATM   19  C7  UNL     1      62.685 -25.811 -30.619  1.00  0.00     0.168 C
HETATM   20  O1  UNL     1      61.685 -25.817 -31.540  1.00  0.00    -0.386 OA
ENDBRANCH  15  16
ENDBRANCH   9  15
ENDBRANCH   7   9
BRANCH   1  21
HETATM   21  N2  UNL     1      60.626 -31.942 -34.396  1.00  0.00    -0.235 N
ATOM     22  H2  UNL     1      61.504 -32.203 -34.844  1.00  0.00     0.208 HD
BRANCH  21  23
HETATM   23  N1  UNL     1      59.672 -32.796 -34.275  1.00  0.00    -0.330 N
ATOM     24  H12 UNL     1      59.589 -33.558 -34.948  1.00  0.00     0.178 HD
ATOM     25  H11 UNL     1      59.015 -32.691 -33.503  1.00  0.00     0.178 HD
ENDBRANCH  21  23
ENDBRANCH   1  21
TORSDOF 5
ENDMDL