MODEL 5
REMARK VINA RESULT: -6.476248869      5.524      8.602
REMARK  4 active torsions:
REMARK  status: ('A' for Active; 'I' for Inactive)
REMARK       I    between atoms: C1_2  and  N2_4
REMARK    1  A    between atoms: N2_4  and  C2_6
REMARK    2  A    between atoms: C2_6  and  C3_7
REMARK    3  A    between atoms: C3_7  and  N3_8
REMARK       I    between atoms: N3_8  and  C4_10
REMARK    4  A    between atoms: C4_10  and  C5_12
ROOT
HETATM    1  N3  UNL     1     -18.393   2.506   5.279  1.00  0.00    -0.359 N
ATOM      2  H3  UNL     1     -18.011   3.298   5.796  1.00  0.00     0.162 HD
HETATM    3  C4  UNL     1     -19.711   2.618   4.770  1.00  0.00     0.226 C
HETATM    4  O2  UNL     1     -20.206   1.661   4.128  1.00  0.00    -0.273 OA
ENDROOT
BRANCH   3   5
HETATM    5  C5  UNL     1     -20.471   3.819   4.989  1.00  0.00     0.042 C
HETATM    6  C6  UNL     1     -19.899   5.075   4.366  1.00  0.00     0.024 C
HETATM    7  C7  UNL     1     -21.091   6.021   4.466  1.00  0.00    -0.009 C
HETATM    8  C8  UNL     1     -21.207   6.545   5.905  1.00  0.00     0.010 C
HETATM    9  C11 UNL     1     -22.296   5.173   4.763  1.00  0.00    -0.005 C
HETATM   10  C9  UNL     1     -21.907   5.213   6.209  1.00  0.00    -0.009 C
HETATM   11  C10 UNL     1     -20.860   4.112   6.410  1.00  0.00     0.024 C
HETATM   12  C12 UNL     1     -21.854   3.795   4.319  1.00  0.00     0.024 C
ENDBRANCH   3   5
BRANCH   1  13
HETATM   13  C3  UNL     1     -17.556   1.339   5.112  1.00  0.00     0.142 C
BRANCH  13  14
HETATM   14  C2  UNL     1     -16.348   1.349   6.016  1.00  0.00     0.143 C
BRANCH  14  15
HETATM   15  N2  UNL     1     -16.470   0.242   6.949  1.00  0.00    -0.344 N
HETATM   16  C1  UNL     1     -15.381  -0.231   7.711  1.00  0.00     0.328 C
HETATM   17  N1  UNL     1     -15.538  -1.303   8.603  1.00  0.00    -0.040 NA
HETATM   18  O1  UNL     1     -14.266   0.315   7.587  1.00  0.00    -0.251 OA
ATOM     19  H2  UNL     1     -17.378  -0.210   7.058  1.00  0.00     0.163 HD
ENDBRANCH  14  15
ENDBRANCH  13  14
ENDBRANCH   1  13
TORSDOF 4
ENDMDL