MODEL 5
REMARK VINA RESULT: -5.028887688      2.348      3.762
REMARK  6 active torsions:
REMARK  status: ('A' for Active; 'I' for Inactive)
REMARK    1  A    between atoms: C3_3  and  N1_4
REMARK       I    between atoms: N1_4  and  C4_6
REMARK       I    between atoms: C4_6  and  N3_12
REMARK    2  A    between atoms: N2_7  and  C5_9
REMARK    3  A    between atoms: C5_9  and  C6_10
REMARK    4  A    between atoms: N3_12  and  C8_14
REMARK    5  A    between atoms: C8_14  and  N4_16
REMARK    6  A    between atoms: N4_16  and  C9_18
ROOT
HETATM    1  C1  UNL     1     -21.616   8.725   5.435  1.00  0.00     0.014 C
HETATM    2  C2  UNL     1     -21.602   7.621   5.916  1.00  0.00    -0.097 C
HETATM    3  C3  UNL     1     -21.584   6.290   6.523  1.00  0.00     0.231 C
ENDROOT
BRANCH   3   4
HETATM    4  N1  UNL     1     -20.922   5.313   5.690  1.00  0.00    -0.216 N
HETATM    5  C4  UNL     1     -20.332   4.148   6.238  1.00  0.00     0.677 C
HETATM    6  N2  UNL     1     -20.501   3.005   5.695  1.00  0.00    -0.223 N
HETATM    7  N3  UNL     1     -19.544   4.272   7.408  1.00  0.00    -0.167 N
ATOM      8  H2  UNL     1     -20.053   2.199   6.130  1.00  0.00     0.178 HD
ATOM      9  H3  UNL     1     -19.800   4.981   8.095  1.00  0.00     0.186 HD
ATOM     10  H1  UNL     1     -20.878   5.465   4.682  1.00  0.00     0.178 HD
BRANCH   6  11
HETATM   11  C5  UNL     1     -21.281   2.783   4.508  1.00  0.00     0.164 C
BRANCH  11  12
HETATM   12  C6  UNL     1     -20.436   2.654   3.277  1.00  0.00    -0.017 C
HETATM   13  C7  UNL     1     -20.185   1.491   2.712  1.00  0.00     0.008 C
ENDBRANCH  11  12
ENDBRANCH   6  11
BRANCH   7  14
HETATM   14  C8  UNL     1     -18.414   3.456   7.667  1.00  0.00     0.186 C
HETATM   15  S1  UNL     1     -18.165   2.953   9.192  1.00  0.00    -0.040 SA
BRANCH  14  16
HETATM   16  N4  UNL     1     -17.516   3.074   6.660  1.00  0.00    -0.362 N
ATOM     17  H4  UNL     1     -17.122   3.773   6.030  1.00  0.00     0.162 HD
BRANCH  16  18
HETATM   18  C9  UNL     1     -17.156   1.692   6.525  1.00  0.00     0.084 A
HETATM   19  C10 UNL     1     -17.371   1.078   5.147  1.00  0.00     0.027 A
HETATM   20  C11 UNL     1     -16.003   1.247   5.725  1.00  0.00     0.027 A
ENDBRANCH  16  18
ENDBRANCH  14  16
ENDBRANCH   7  14
ENDBRANCH   3   4
TORSDOF 6
ENDMDL