MODEL 4
REMARK VINA RESULT: -6.503816069      2.727      7.859
REMARK  5 active torsions:
REMARK  status: ('A' for Active; 'I' for Inactive)
REMARK    1  A    between atoms: C2_2  and  N1_3
REMARK       I    between atoms: N1_3  and  C3_5
REMARK       I    between atoms: C3_5  and  N2_7
REMARK    2  A    between atoms: N2_7  and  C4_9
REMARK    3  A    between atoms: C4_9  and  C5_10
REMARK    4  A    between atoms: C5_10  and  C6_11
REMARK    5  A    between atoms: C9_14  and  C10_15
ROOT
HETATM    1  C5  UNL     1     -20.103   1.418   3.174  1.00  0.00     0.024 C
ENDROOT
BRANCH   1   2
HETATM    2  C4  UNL     1     -18.650   1.318   3.338  1.00  0.00     0.125 C
BRANCH   2   3
HETATM    3  N2  UNL     1     -18.163   0.393   4.335  1.00  0.00    -0.343 N
HETATM    4  C3  UNL     1     -17.323   0.865   5.384  1.00  0.00     0.319 C
HETATM    5  N1  UNL     1     -16.808   0.023   6.394  1.00  0.00    -0.320 N
HETATM    6  O1  UNL     1     -17.027   2.082   5.411  1.00  0.00    -0.247 OA
ATOM      7  H1  UNL     1     -17.043  -0.969   6.379  1.00  0.00     0.169 HD
ATOM      8  H2  UNL     1     -18.419  -0.593   4.288  1.00  0.00     0.164 HD
BRANCH   5   9
HETATM    9  C2  UNL     1     -15.976   0.519   7.423  1.00  0.00     0.082 C
HETATM   10  C1  UNL     1     -15.325  -0.278   8.249  1.00  0.00     0.030 C
ENDBRANCH   5   9
ENDBRANCH   2   3
ENDBRANCH   1   2
BRANCH   1  11
HETATM   11  C6  UNL     1     -20.859   2.500   3.837  1.00  0.00    -0.013 C
HETATM   12  C7  UNL     1     -21.184   3.711   3.030  1.00  0.00     0.005 C
HETATM   13  C8  UNL     1     -22.153   4.535   3.893  1.00  0.00     0.014 C
HETATM   14  C9  UNL     1     -21.333   5.167   5.009  1.00  0.00     0.075 C
HETATM   15  C11 UNL     1     -20.075   4.369   5.243  1.00  0.00     0.014 C
HETATM   16  C12 UNL     1     -20.350   2.898   5.178  1.00  0.00     0.005 C
BRANCH  14  17
HETATM   17  C10 UNL     1     -21.051   6.543   4.587  1.00  0.00     0.235 C
HETATM   18  N3  UNL     1     -20.251   6.905   3.495  1.00  0.00    -0.062 NA
HETATM   19  O2  UNL     1     -21.582   7.485   5.274  1.00  0.00    -0.277 OA
ENDBRANCH  14  17
ENDBRANCH   1  11
TORSDOF 5
ENDMDL