MODEL 1
REMARK VINA RESULT: -6.451914752      0.000      0.000
REMARK  5 active torsions:
REMARK  status: ('A' for Active; 'I' for Inactive)
REMARK    1  A    between atoms: C1_2  and  N1_3
REMARK    2  A    between atoms: N1_3  and  C2_4
REMARK    3  A    between atoms: C2_4  and  C3_5
REMARK    4  A    between atoms: C3_5  and  N2_6
REMARK       I    between atoms: N2_6  and  C4_8
REMARK       I    between atoms: C4_8  and  N3_10
REMARK    5  A    between atoms: N3_10  and  C5_12
ROOT
HETATM    1  N2  UNL     1     -20.949   8.125   4.971  1.00  0.00    -0.341 N
ATOM      2  H2  UNL     1     -20.286   8.393   4.244  1.00  0.00     0.164 HD
HETATM    3  C4  UNL     1     -21.276   6.736   5.182  1.00  0.00     0.317 C
HETATM    4  O2  UNL     1     -22.028   6.442   6.125  1.00  0.00    -0.247 OA
HETATM    5  N3  UNL     1     -20.747   5.778   4.334  1.00  0.00    -0.329 N
ATOM      6  H3  UNL     1     -20.182   6.078   3.539  1.00  0.00     0.165 HD
ENDROOT
BRANCH   1   7
HETATM    7  C3  UNL     1     -21.569   9.131   5.794  1.00  0.00     0.157 C
BRANCH   7   8
HETATM    8  C2  UNL     1     -22.010  10.299   4.897  1.00  0.00     0.240 C
BRANCH   8   9
HETATM    9  N1  UNL     1     -23.340  10.273   4.697  1.00  0.00    -0.421 NA
BRANCH   9  10
HETATM   10  C1  UNL     1     -24.694  10.248   4.494  1.00  0.00     0.435 C
HETATM   11  O1  UNL     1     -25.316   9.840   3.456  1.00  0.00    -0.269 OA
ENDBRANCH   9  10
ENDBRANCH   8   9
ENDBRANCH   7   8
ENDBRANCH   1   7
BRANCH   5  12
HETATM   12  C5  UNL     1     -20.974   4.360   4.542  1.00  0.00     0.153 C
HETATM   13  C6  UNL     1     -19.877   3.542   4.764  1.00  0.00    -0.158 C
HETATM   14  C7  UNL     1     -18.756   2.678   4.876  1.00  0.00     0.082 C
HETATM   15  C8  UNL     1     -18.953   1.569   3.787  1.00  0.00     0.011 C
HETATM   16  C9  UNL     1     -20.392   1.553   3.257  1.00  0.00     0.001 C
HETATM   17  C10 UNL     1     -20.918   2.710   2.581  1.00  0.00     0.003 C
HETATM   18  C11 UNL     1     -21.700   3.808   3.247  1.00  0.00     0.037 C
ENDBRANCH   5  12
TORSDOF 5
ENDMDL