MODEL 5
REMARK VINA RESULT: -5.983585335      2.895      4.849
REMARK  5 active torsions:
REMARK  status: ('A' for Active; 'I' for Inactive)
REMARK       I    between atoms: C1_2  and  N4_13
REMARK    1  A    between atoms: N2_3  and  C2_5
REMARK    2  A    between atoms: C2_5  and  C3_6
REMARK       I    between atoms: C3_6  and  N3_8
REMARK    3  A    between atoms: N3_8  and  C4_10
REMARK    4  A    between atoms: N4_13  and  C7_15
REMARK    5  A    between atoms: C7_15  and  C8_16
ROOT
HETATM    1  N1  UNL     1     -20.609   6.725   3.768  1.00  0.00    -0.064 NA
HETATM    2  C1  UNL     1     -21.094   5.407   4.003  1.00  0.00     0.184 C
HETATM    3  N2  UNL     1     -20.672   4.396   3.320  1.00  0.00    -0.356 N
ATOM      4  H2  UNL     1     -19.972   4.533   2.590  1.00  0.00     0.162 HD
HETATM    5  N4  UNL     1     -22.069   5.151   5.007  1.00  0.00    -0.364 N
ATOM      6  H4  UNL     1     -22.789   4.442   4.870  1.00  0.00     0.162 HD
ENDROOT
BRANCH   3   7
HETATM    7  C2  UNL     1     -21.181   3.084   3.581  1.00  0.00     0.225 C
BRANCH   7   8
HETATM    8  C3  UNL     1     -20.044   2.226   4.051  1.00  0.00     0.235 C
HETATM    9  O1  UNL     1     -20.032   0.992   3.801  1.00  0.00    -0.272 OA
HETATM   10  N3  UNL     1     -18.964   2.771   4.785  1.00  0.00    -0.355 N
ATOM     11  H3  UNL     1     -18.951   3.767   5.000  1.00  0.00     0.162 HD
BRANCH  10  12
HETATM   12  C4  UNL     1     -17.895   1.941   5.224  1.00  0.00     0.084 A
HETATM   13  C5  UNL     1     -16.537   2.483   5.500  1.00  0.00     0.027 A
HETATM   14  C6  UNL     1     -17.394   2.227   6.669  1.00  0.00     0.027 A
ENDBRANCH  10  12
ENDBRANCH   7   8
ENDBRANCH   3   7
BRANCH   5  15
HETATM   15  C7  UNL     1     -22.012   5.922   6.224  1.00  0.00     0.126 C
BRANCH  15  16
HETATM   16  C8  UNL     1     -20.994   5.372   7.173  1.00  0.00     0.003 C
HETATM   17  C9  UNL     1     -21.201   5.973   8.545  1.00  0.00     0.006 C
HETATM   18  C10 UNL     1     -21.083   4.806   9.481  1.00  0.00     0.000 C
HETATM   19  C11 UNL     1     -21.711   3.667   8.712  1.00  0.00     0.000 C
HETATM   20  C12 UNL     1     -21.165   3.894   7.307  1.00  0.00     0.006 C
ENDBRANCH  15  16
ENDBRANCH   5  15
TORSDOF 5
ENDMDL