MODEL 5
REMARK VINA RESULT: -5.349266896      4.513      6.655
REMARK  5 active torsions:
REMARK  status: ('A' for Active; 'I' for Inactive)
REMARK    1  A    between atoms: C2_2  and  C3_3
REMARK    2  A    between atoms: C3_3  and  N1_4
REMARK       I    between atoms: N1_4  and  C4_6
REMARK       I    between atoms: C4_6  and  N2_8
REMARK    3  A    between atoms: N2_8  and  C5_10
REMARK       I    between atoms: N3_12  and  C7_13
REMARK       I    between atoms: C7_13  and  N4_15
REMARK    4  A    between atoms: N4_15  and  C8_17
REMARK    5  A    between atoms: C8_17  and  C9_18
ROOT
HETATM    1  C5  UNL     1     -21.298   4.520   5.850  1.00  0.00     0.122 C
HETATM    2  C6  UNL     1     -21.885   5.532   4.904  1.00  0.00     0.154 C
HETATM    3  N3  UNL     1     -21.575   6.568   5.899  1.00  0.00    -0.330 N
HETATM    4  C7  UNL     1     -21.643   7.975   5.909  1.00  0.00     0.318 C
HETATM    5  O2  UNL     1     -22.049   8.581   4.877  1.00  0.00    -0.247 OA
HETATM    6  N4  UNL     1     -21.260   8.692   7.059  1.00  0.00    -0.340 N
ATOM      7  H4  UNL     1     -20.937   8.196   7.889  1.00  0.00     0.164 HD
HETATM    8  C11 UNL     1     -21.160   5.591   6.904  1.00  0.00     0.154 C
ENDROOT
BRANCH   1   9
HETATM    9  N2  UNL     1     -20.001   4.016   5.484  1.00  0.00    -0.335 N
HETATM   10  C4  UNL     1     -19.882   2.767   4.870  1.00  0.00     0.316 C
HETATM   11  N1  UNL     1     -18.613   2.265   4.508  1.00  0.00    -0.340 N
HETATM   12  O1  UNL     1     -20.907   2.093   4.644  1.00  0.00    -0.247 OA
ATOM     13  H1  UNL     1     -17.795   2.840   4.706  1.00  0.00     0.164 HD
ATOM     14  H2  UNL     1     -19.166   4.571   5.673  1.00  0.00     0.164 HD
BRANCH  11  15
HETATM   15  C3  UNL     1     -18.407   0.987   3.873  1.00  0.00     0.150 C
BRANCH  15  16
HETATM   16  C2  UNL     1     -19.000   0.904   2.535  1.00  0.00    -0.018 C
HETATM   17  C1  UNL     1     -18.272   0.528   1.505  1.00  0.00     0.008 C
ENDBRANCH  15  16
ENDBRANCH  11  15
ENDBRANCH   1   9
BRANCH   6  18
HETATM   18  C8  UNL     1     -21.328  10.132   7.058  1.00  0.00     0.150 C
BRANCH  18  19
HETATM   19  C9  UNL     1     -20.573  10.660   8.202  1.00  0.00    -0.018 C
HETATM   20  C10 UNL     1     -20.524   9.928   9.333  1.00  0.00     0.008 C
ENDBRANCH  18  19
ENDBRANCH   6  18
TORSDOF 5
ENDMDL