MODEL 3
REMARK VINA RESULT: -6.129187475      5.159      6.820
REMARK  6 active torsions:
REMARK  status: ('A' for Active; 'I' for Inactive)
REMARK    1  A    between atoms: C2_2  and  C3_3
REMARK    2  A    between atoms: C3_3  and  C4_4
REMARK    3  A    between atoms: C4_4  and  N1_5
REMARK    4  A    between atoms: C4_4  and  C13_16
REMARK       I    between atoms: N1_5  and  C5_7
REMARK    5  A    between atoms: C5_7  and  C6_9
REMARK    6  A    between atoms: C6_9  and  C7_10
ROOT
HETATM    1  N1  UNL     1     -18.308   2.792   7.365  1.00  0.00    -0.350 N
ATOM      2  H1  UNL     1     -19.205   2.308   7.320  1.00  0.00     0.163 HD
HETATM    3  C5  UNL     1     -17.572   2.973   6.187  1.00  0.00     0.218 C
HETATM    4  O1  UNL     1     -16.457   3.581   6.271  1.00  0.00    -0.274 OA
ENDROOT
BRANCH   1   5
HETATM    5  C4  UNL     1     -17.819   3.286   8.672  1.00  0.00     0.152 C
BRANCH   5   6
HETATM    6  C3  UNL     1     -18.987   3.963   9.369  1.00  0.00     0.059 C
BRANCH   6   7
HETATM    7  C2  UNL     1     -20.184   4.089   8.516  1.00  0.00    -0.034 C
HETATM    8  C1  UNL     1     -20.835   5.179   8.208  1.00  0.00     0.007 C
ENDBRANCH   6   7
ENDBRANCH   5   6
BRANCH   5   9
HETATM    9  C13 UNL     1     -17.429   2.086   9.439  1.00  0.00     0.110 C
HETATM   10  N2  UNL     1     -16.677   1.179   8.975  1.00  0.00    -0.389 N
ATOM     11  H22 UNL     1     -16.352   1.265   8.012  1.00  0.00     0.157 HD
ATOM     12  H21 UNL     1     -16.407   0.350   9.505  1.00  0.00     0.157 HD
HETATM   13  N3  UNL     1     -17.880   1.967  10.776  1.00  0.00    -0.086 NA
ENDBRANCH   5   9
ENDBRANCH   1   5
BRANCH   3  14
HETATM   14  C6  UNL     1     -18.038   2.488   4.865  1.00  0.00     0.107 C
BRANCH  14  15
HETATM   15  C7  UNL     1     -19.524   2.616   4.699  1.00  0.00    -0.006 C
HETATM   16  C8  UNL     1     -19.872   4.092   4.632  1.00  0.00     0.005 C
HETATM   17  C9  UNL     1     -21.384   4.224   4.518  1.00  0.00     0.000 C
HETATM   18  C10 UNL     1     -21.778   3.704   3.171  1.00  0.00     0.000 C
HETATM   19  C11 UNL     1     -20.838   2.718   2.564  1.00  0.00     0.000 C
HETATM   20  C12 UNL     1     -20.072   1.868   3.517  1.00  0.00     0.005 C
ENDBRANCH  14  15
ENDBRANCH   3  14
TORSDOF 6
ENDMDL