MODEL 5
REMARK VINA RESULT: -6.100149939      4.993      8.638
REMARK  5 active torsions:
REMARK  status: ('A' for Active; 'I' for Inactive)
REMARK       I    between atoms: C1_2  and  N2_4
REMARK    1  A    between atoms: C2_6  and  C3_7
REMARK    2  A    between atoms: C3_7  and  N3_8
REMARK       I    between atoms: N3_8  and  C4_10
REMARK       I    between atoms: C4_10  and  N4_12
REMARK    3  A    between atoms: N4_12  and  C5_14
REMARK    4  A    between atoms: C5_14  and  C6_15
REMARK    5  A    between atoms: C8_17  and  C9_18
ROOT
HETATM    1  N3  UNL     1     -22.060  11.346   4.470  1.00  0.00    -0.338 N
ATOM      2  H3  UNL     1     -21.108  11.711   4.443  1.00  0.00     0.164 HD
HETATM    3  C4  UNL     1     -22.316  10.017   4.862  1.00  0.00     0.316 C
HETATM    4  O2  UNL     1     -23.482   9.586   4.891  1.00  0.00    -0.247 OA
HETATM    5  N4  UNL     1     -21.248   9.161   5.226  1.00  0.00    -0.343 N
ATOM      6  H4  UNL     1     -20.291   9.512   5.204  1.00  0.00     0.164 HD
ENDROOT
BRANCH   1   7
HETATM    7  C3  UNL     1     -23.195  12.184   4.105  1.00  0.00     0.169 C
BRANCH   7   8
HETATM    8  C2  UNL     1     -22.968  12.788   2.785  1.00  0.00     0.085 C
HETATM    9  N2  UNL     1     -23.786  12.612   1.808  1.00  0.00    -0.323 N
HETATM   10  C1  UNL     1     -24.936  11.808   2.034  1.00  0.00     0.332 C
ATOM     11  H2  UNL     1     -23.614  13.038   0.897  1.00  0.00     0.169 HD
HETATM   12  N1  UNL     1     -26.145  12.478   2.329  1.00  0.00    -0.040 NA
HETATM   13  O1  UNL     1     -24.860  10.550   1.969  1.00  0.00    -0.251 OA
ENDBRANCH   7   8
ENDBRANCH   1   7
BRANCH   5  14
HETATM   14  C5  UNL     1     -21.498   7.798   5.630  1.00  0.00     0.129 C
BRANCH  14  15
HETATM   15  C6  UNL     1     -21.390   6.834   4.451  1.00  0.00     0.008 A
HETATM   16  C7  UNL     1     -20.142   6.895   3.632  1.00  0.00     0.012 A
HETATM   17  C8  UNL     1     -20.421   5.712   4.502  1.00  0.00    -0.004 A
BRANCH  17  18
HETATM   18  C9  UNL     1     -20.700   4.407   3.831  1.00  0.00    -0.010 A
HETATM   19  C10 UNL     1     -22.119   3.928   3.675  1.00  0.00     0.005 A
HETATM   20  C11 UNL     1     -21.278   3.329   4.716  1.00  0.00     0.005 A
ENDBRANCH  17  18
ENDBRANCH  14  15
ENDBRANCH   5  14
TORSDOF 5
ENDMDL