MODEL 2
REMARK VINA RESULT: -6.678883326      1.387      1.612
REMARK  4 active torsions:
REMARK  status: ('A' for Active; 'I' for Inactive)
REMARK    1  A    between atoms: C2_2  and  C3_3
REMARK    2  A    between atoms: C5_5  and  C7_8
REMARK    3  A    between atoms: C7_8  and  C9_10
REMARK    4  A    between atoms: C9_10  and  N2_11
REMARK       I    between atoms: C10_13  and  N4_15
ROOT
HETATM    1  C3  UNL     1     -21.551   4.879   5.741  1.00  0.00     0.032 A
HETATM    2  C4  UNL     1     -22.465   4.692   4.491  1.00  0.00     0.036 A
HETATM    3  C5  UNL     1     -20.958   4.818   4.403  1.00  0.00     0.061 A
HETATM    4  C6  UNL     1     -20.517   6.132   3.869  1.00  0.00     0.070 C
HETATM    5  N1  UNL     1     -20.172   7.156   3.473  1.00  0.00    -0.196 NA
ENDROOT
BRANCH   3   6
HETATM    6  C7  UNL     1     -20.233   3.659   3.851  1.00  0.00     0.023 C
HETATM    7  C8  UNL     1     -20.993   3.054   2.707  1.00  0.00     0.013 C
BRANCH   6   8
HETATM    8  C9  UNL     1     -19.851   2.634   4.896  1.00  0.00     0.128 C
BRANCH   8   9
HETATM    9  N2  UNL     1     -18.544   2.101   4.696  1.00  0.00    -0.364 N
HETATM   10  C10 UNL     1     -17.613   2.040   5.549  1.00  0.00     0.190 C
HETATM   11  N3  UNL     1     -16.363   1.476   5.190  1.00  0.00    -0.063 NA
HETATM   12  N4  UNL     1     -17.774   2.521   6.872  1.00  0.00    -0.307 N
HETATM   13  C11 UNL     1     -17.135   1.985   7.855  1.00  0.00     0.203 C
ATOM     14  H4  UNL     1     -18.406   3.302   7.049  1.00  0.00     0.170 HD
HETATM   15  N5  UNL     1     -16.236   0.896   7.710  1.00  0.00    -0.066 NA
HETATM   16  N6  UNL     1     -17.341   2.514   9.154  1.00  0.00    -0.066 NA
ATOM     17  H2  UNL     1     -18.339   1.730   3.769  1.00  0.00     0.162 HD
ENDBRANCH   8   9
ENDBRANCH   6   8
ENDBRANCH   3   6
BRANCH   1  18
HETATM   18  C2  UNL     1     -21.670   6.194   6.428  1.00  0.00    -0.030 C
HETATM   19  C1  UNL     1     -21.390   6.279   7.704  1.00  0.00     0.007 C
ENDBRANCH   1  18
TORSDOF 4
ENDMDL