MODEL 2
REMARK VINA RESULT: -9.962685828      0.701      1.725
REMARK  7 active torsions:
REMARK  status: ('A' for Active; 'I' for Inactive)
REMARK    1  A    between atoms: C4_5  and  N2_6
REMARK    2  A    between atoms: C5_10  and  C6_11
REMARK    3  A    between atoms: N3_12  and  N4_14
REMARK       I    between atoms: N4_14  and  C7_16
REMARK    4  A    between atoms: C7_16  and  C8_18
REMARK    5  A    between atoms: C8_18  and  C18_30
REMARK    6  A    between atoms: C9_19  and  C10_20
REMARK    7  A    between atoms: C14_24  and  O5_25
ROOT
HETATM    1  C1  UNL     1      82.045  48.859  38.237  1.00  0.00     0.229 C
HETATM    2  N1  UNL     1      81.482  49.020  37.240  1.00  0.00    -0.426 NA
HETATM    3  C2  UNL     1      80.819  49.203  36.024  1.00  0.00     0.144 A
HETATM    4  C3  UNL     1      81.243  48.796  34.780  1.00  0.00     0.110 A
HETATM    5  C4  UNL     1      80.286  49.178  33.845  1.00  0.00     0.218 A
HETATM    6  O3  UNL     1      79.345  49.785  34.521  1.00  0.00    -0.284 OA
HETATM    7  C5  UNL     1      79.604  49.829  35.803  1.00  0.00     0.135 A
ENDROOT
BRANCH   7   8
HETATM    8  C6  UNL     1      78.786  50.422  36.852  1.00  0.00     0.148 C
HETATM    9  N3  UNL     1      78.599  49.794  37.956  1.00  0.00    -0.306 N
ATOM     10  H3  UNL     1      79.023  48.877  38.098  1.00  0.00     0.186 HD
BRANCH   9  11
HETATM   11  N4  UNL     1      77.792  50.378  38.991  1.00  0.00    -0.266 N
HETATM   12  C7  UNL     1      78.356  50.634  40.239  1.00  0.00     0.276 C
HETATM   13  O4  UNL     1      79.601  50.308  40.344  1.00  0.00    -0.266 OA
ATOM     14  H4  UNL     1      76.813  50.604  38.814  1.00  0.00     0.190 HD
BRANCH  12  15
HETATM   15  C8  UNL     1      77.750  51.212  41.436  1.00  0.00     0.110 C
HETATM   16  C9  UNL     1      78.334  50.958  42.582  1.00  0.00     0.035 C
BRANCH  16  17
HETATM   17  C10 UNL     1      78.046  51.344  43.922  1.00  0.00    -0.034 A
HETATM   18  C11 UNL     1      77.459  50.482  44.819  1.00  0.00     0.021 A
HETATM   19  C12 UNL     1      77.194  50.871  46.130  1.00  0.00    -0.028 A
HETATM   20  C13 UNL     1      76.560  49.894  47.051  1.00  0.00     0.051 C
HETATM   21  C14 UNL     1      77.505  52.129  46.584  1.00  0.00     0.077 A
HETATM   22  C15 UNL     1      78.093  53.013  45.707  1.00  0.00    -0.028 A
HETATM   23  C16 UNL     1      78.467  54.412  46.123  1.00  0.00     0.051 C
HETATM   24  C17 UNL     1      78.352  52.625  44.415  1.00  0.00     0.021 A
BRANCH  21  25
HETATM   25  O5  UNL     1      77.244  52.514  47.880  1.00  0.00    -0.360 OA
ATOM     26  H5  UNL     1      77.080  53.422  48.107  1.00  0.00     0.217 HD
ENDBRANCH  21  25
ENDBRANCH  16  17
BRANCH  15  27
HETATM   27  C18 UNL     1      76.528  51.944  41.353  1.00  0.00     0.215 C
HETATM   28  O6  UNL     1      76.204  52.565  40.288  1.00  0.00    -0.644 OA
HETATM   29  O7  UNL     1      75.631  52.028  42.396  1.00  0.00    -0.644 OA
ENDBRANCH  15  27
ENDBRANCH  12  15
ENDBRANCH   9  11
ENDBRANCH   7   8
BRANCH   5  30
HETATM   30  N2  UNL     1      80.352  48.941  32.435  1.00  0.00    -0.090 N
HETATM   31  O1  UNL     1      80.484  47.810  31.984  1.00  0.00    -0.530 OA
HETATM   32  O2  UNL     1      80.263  50.005  31.579  1.00  0.00    -0.530 OA
ENDBRANCH   5  30
TORSDOF 7
ENDMDL