MODEL 3
REMARK VINA RESULT: -6.734626249      0.780      1.155
REMARK  12 active torsions:
REMARK  status: ('A' for Active; 'I' for Inactive)
REMARK    1  A    between atoms: C2_2  and  C3_3
REMARK    2  A    between atoms: C3_3  and  C4_4
REMARK    3  A    between atoms: C4_4  and  O1_5
REMARK    4  A    between atoms: O1_5  and  C5_6
REMARK    5  A    between atoms: C5_6  and  C6_8
REMARK    6  A    between atoms: C6_8  and  C7_9
REMARK    7  A    between atoms: C7_9  and  S1_10
REMARK    8  A    between atoms: S1_10  and  C8_11
REMARK    9  A    between atoms: C8_11  and  N1_13
REMARK   10  A    between atoms: C13_18  and  C14_19
REMARK   11  A    between atoms: C14_19  and  O3_20
REMARK   12  A    between atoms: N2_22  and  O4_23
ROOT
HETATM    1  C6  UNL     1      81.282  51.181  37.763  1.00  0.00     0.052 C
HETATM    2  C11 UNL     1      82.018  50.122  37.472  1.00  0.00    -0.037 C
HETATM    3  C12 UNL     1      82.365  49.109  38.452  1.00  0.00     0.037 C
HETATM    4  C13 UNL     1      82.576  47.828  38.130  1.00  0.00     0.059 C
HETATM    5  N2  UNL     1      82.501  47.547  36.730  1.00  0.00    -0.253 N
HETATM    6  C15 UNL     1      82.975  48.523  35.773  1.00  0.00     0.056 C
HETATM    7  C16 UNL     1      82.615  48.058  34.382  1.00  0.00     0.041 C
HETATM    8  C17 UNL     1      84.497  48.607  35.812  1.00  0.00     0.041 C
HETATM    9  C18 UNL     1      82.456  49.912  36.075  1.00  0.00     0.072 C
ENDROOT
BRANCH   1  10
HETATM   10  C5  UNL     1      80.979  52.191  36.718  1.00  0.00     0.294 C
HETATM   11  O2  UNL     1      81.854  53.115  36.582  1.00  0.00    -0.259 OA
BRANCH  10  12
HETATM   12  O1  UNL     1      79.914  52.250  35.908  1.00  0.00    -0.317 OA
BRANCH  12  13
HETATM   13  C4  UNL     1      78.866  51.319  35.825  1.00  0.00     0.179 C
BRANCH  13  14
HETATM   14  C3  UNL     1      78.986  50.412  34.645  1.00  0.00     0.026 C
BRANCH  14  15
HETATM   15  C2  UNL     1      79.077  48.955  35.040  1.00  0.00    -0.002 C
HETATM   16  C1  UNL     1      78.968  48.098  33.813  1.00  0.00     0.005 C
ENDBRANCH  14  15
ENDBRANCH  13  14
ENDBRANCH  12  13
ENDBRANCH  10  12
ENDBRANCH   1  10
BRANCH   1  17
HETATM   17  C7  UNL     1      80.589  51.486  39.032  1.00  0.00     0.070 C
BRANCH  17  18
HETATM   18  S1  UNL     1      79.563  50.359  39.830  1.00  0.00    -0.071 SA
BRANCH  18  19
HETATM   19  C8  UNL     1      79.669  50.067  41.544  1.00  0.00     0.140 C
HETATM   20  S2  UNL     1      81.045  49.204  42.018  1.00  0.00    -0.052 SA
BRANCH  19  21
HETATM   21  N1  UNL     1      78.808  50.428  42.584  1.00  0.00    -0.375 N
HETATM   22  C9  UNL     1      77.641  51.242  42.417  1.00  0.00     0.150 C
HETATM   23  C10 UNL     1      79.082  49.965  43.931  1.00  0.00     0.150 C
ENDBRANCH  19  21
ENDBRANCH  18  19
ENDBRANCH  17  18
ENDBRANCH   1  17
BRANCH   4  24
HETATM   24  C14 UNL     1      82.919  46.779  39.087  1.00  0.00     0.223 C
BRANCH  24  25
HETATM   25  O3  UNL     1      83.802  47.315  40.042  1.00  0.00    -0.395 OA
ATOM     26  H3  UNL     1      83.618  48.241  40.138  1.00  0.00     0.209 HD
ENDBRANCH  24  25
ENDBRANCH   4  24
BRANCH   5  27
HETATM   27  O4  UNL     1      82.006  46.384  36.292  1.00  0.00    -0.287 OA
ATOM     28  H4  UNL     1      81.151  46.083  36.577  1.00  0.00     0.244 HD
ENDBRANCH   5  27
TORSDOF 12
ENDMDL