MODEL 1
REMARK VINA RESULT: -9.881789815      0.000      0.000
REMARK  9 active torsions:
REMARK  status: ('A' for Active; 'I' for Inactive)
REMARK    1  A    between atoms: C3_5  and  C4_6
REMARK    2  A    between atoms: C4_6  and  C5_7
REMARK    3  A    between atoms: C7_9  and  C8_10
REMARK    4  A    between atoms: C11_14  and  C12_15
REMARK    5  A    between atoms: C12_15  and  O2_16
REMARK    6  A    between atoms: O2_16  and  C13_17
REMARK    7  A    between atoms: C16_21  and  O4_22
REMARK    8  A    between atoms: C17_24  and  O5_25
REMARK    9  A    between atoms: C18_27  and  O6_28
ROOT
HETATM    1  C5  UNL     1      77.927  51.108  41.474  1.00  0.00    -0.016 A
HETATM    2  C6  UNL     1      76.855  51.998  41.457  1.00  0.00     0.043 A
HETATM    3  C7  UNL     1      76.069  51.641  40.385  1.00  0.00     0.057 A
HETATM    4  O1  UNL     1      76.614  50.617  39.794  1.00  0.00    -0.316 OA
HETATM    5  C11 UNL     1      77.740  50.257  40.414  1.00  0.00     0.083 A
ENDROOT
BRANCH   5   6
HETATM    6  C12 UNL     1      78.605  49.116  39.983  1.00  0.00     0.236 C
BRANCH   6   7
HETATM    7  O2  UNL     1      79.945  49.552  39.887  1.00  0.00    -0.352 OA
BRANCH   7   8
HETATM    8  C13 UNL     1      80.625  48.764  38.985  1.00  0.00     0.291 C
HETATM    9  O3  UNL     1      81.298  49.544  38.047  1.00  0.00    -0.351 OA
HETATM   10  C14 UNL     1      82.106  48.721  37.263  1.00  0.00     0.152 C
HETATM   11  C15 UNL     1      82.632  49.490  36.053  1.00  0.00     0.042 C
HETATM   12  C16 UNL     1      83.287  48.265  38.053  1.00  0.00     0.178 C
HETATM   13  C17 UNL     1      82.980  48.422  39.542  1.00  0.00     0.183 C
HETATM   14  C18 UNL     1      81.574  47.864  39.747  1.00  0.00     0.204 C
BRANCH  12  15
HETATM   15  O4  UNL     1      84.428  49.024  37.791  1.00  0.00    -0.390 OA
ATOM     16  H4  UNL     1      84.854  49.325  38.585  1.00  0.00     0.210 HD
ENDBRANCH  12  15
BRANCH  13  17
HETATM   17  O5  UNL     1      83.902  47.672  40.258  1.00  0.00    -0.390 OA
ATOM     18  H5  UNL     1      84.456  48.268  40.747  1.00  0.00     0.210 HD
ENDBRANCH  13  17
BRANCH  14  19
HETATM   19  O6  UNL     1      81.474  46.589  39.179  1.00  0.00    -0.388 OA
ATOM     20  H6  UNL     1      82.055  46.574  38.428  1.00  0.00     0.210 HD
ENDBRANCH  14  19
ENDBRANCH   7   8
ENDBRANCH   6   7
ENDBRANCH   5   6
BRANCH   1  21
HETATM   21  C4  UNL     1      79.013  51.133  42.460  1.00  0.00     0.125 C
BRANCH  21  22
HETATM   22  C3  UNL     1      78.492  51.375  43.829  1.00  0.00     0.128 A
HETATM   23  N1  UNL     1      77.799  50.541  44.624  1.00  0.00    -0.342 N
HETATM   24  C2  UNL     1      77.507  51.132  45.793  1.00  0.00     0.036 A
ATOM     25  H1  UNL     1      77.532  49.589  44.373  1.00  0.00     0.167 HD
HETATM   26  C1  UNL     1      76.769  50.598  46.958  1.00  0.00     0.071 C
HETATM   27  C19 UNL     1      78.052  52.394  45.705  1.00  0.00     0.073 A
HETATM   28  O7  UNL     1      78.621  52.499  44.538  1.00  0.00    -0.300 OA
HETATM   29  C20 UNL     1      77.995  53.458  46.772  1.00  0.00     0.079 C
ENDBRANCH  21  22
ENDBRANCH   1  21
BRANCH   3  30
HETATM   30  C8  UNL     1      74.809  52.357  40.021  1.00  0.00     0.035 C
HETATM   31  C9  UNL     1      74.568  52.223  38.531  1.00  0.00     0.016 C
HETATM   32  C10 UNL     1      74.986  53.796  40.444  1.00  0.00     0.016 C
ENDBRANCH   3  30
TORSDOF 9
ENDMDL