MODEL 3
REMARK VINA RESULT: -8.110325183      2.489      5.044
REMARK  9 active torsions:
REMARK  status: ('A' for Active; 'I' for Inactive)
REMARK    1  A    between atoms: C3_3  and  C4_4
REMARK    2  A    between atoms: C5_5  and  C6_6
REMARK    3  A    between atoms: C6_6  and  C7_7
REMARK    4  A    between atoms: C7_7  and  C8_8
REMARK    5  A    between atoms: C7_7  and  C17_31
REMARK    6  A    between atoms: N2_13  and  C11_14
REMARK    7  A    between atoms: C12_17  and  N4_18
REMARK    8  A    between atoms: C14_25  and  N7_26
REMARK    9  A    between atoms: C17_31  and  C19_33
ROOT
HETATM    1  C1  UNL     1      76.461  52.406  44.531  1.00  0.00     0.113 C
HETATM    2  C2  UNL     1      76.239  52.198  43.090  1.00  0.00    -0.097 C
HETATM    3  C3  UNL     1      76.072  52.007  41.905  1.00  0.00    -0.015 C
ENDROOT
BRANCH   3   4
HETATM    4  C4  UNL     1      75.874  51.758  40.506  1.00  0.00    -0.015 C
HETATM    5  C5  UNL     1      75.695  51.525  39.342  1.00  0.00    -0.088 C
BRANCH   5   6
HETATM    6  C6  UNL     1      75.483  51.213  37.920  1.00  0.00     0.130 C
BRANCH   6   7
HETATM    7  C7  UNL     1      76.210  49.983  37.538  1.00  0.00    -0.051 C
BRANCH   7   8
HETATM    8  C8  UNL     1      77.666  49.900  37.761  1.00  0.00     0.015 A
HETATM    9  C9  UNL     1      78.704  50.477  37.033  1.00  0.00     0.035 A
HETATM   10  C10 UNL     1      78.652  51.160  35.723  1.00  0.00     0.070 C
HETATM   11  N1  UNL     1      79.833  50.235  37.726  1.00  0.00    -0.296 N
HETATM   12  N2  UNL     1      79.640  49.579  38.801  1.00  0.00    -0.240 N
ATOM     13  H1  UNL     1      80.755  50.547  37.420  1.00  0.00     0.187 HD
HETATM   14  C15 UNL     1      78.303  49.338  38.877  1.00  0.00     0.045 A
HETATM   15  C16 UNL     1      77.646  48.615  40.006  1.00  0.00     0.071 C
BRANCH  12  16
HETATM   16  C11 UNL     1      80.573  49.169  39.809  1.00  0.00     0.179 A
HETATM   17  N3  UNL     1      80.385  49.296  41.124  1.00  0.00    -0.172 N
HETATM   18  C12 UNL     1      81.260  48.952  42.081  1.00  0.00     0.678 A
ATOM     19  H3  UNL     1      79.496  49.692  41.429  1.00  0.00     0.186 HD
HETATM   20  N5  UNL     1      82.440  48.425  41.644  1.00  0.00    -0.176 N
HETATM   21  C13 UNL     1      82.741  48.249  40.356  1.00  0.00     0.168 A
ATOM     22  H5  UNL     1      83.131  48.149  42.342  1.00  0.00     0.185 HD
HETATM   23  N6  UNL     1      83.990  47.696  39.913  1.00  0.00    -0.079 NA
HETATM   24  C14 UNL     1      81.797  48.625  39.422  1.00  0.00     0.190 A
BRANCH  18  25
HETATM   25  N4  UNL     1      80.982  49.116  43.331  1.00  0.00    -0.234 N
ATOM     26  H42 UNL     1      81.545  48.720  44.084  1.00  0.00     0.174 HD
ATOM     27  H41 UNL     1      80.168  49.657  43.624  1.00  0.00     0.174 HD
ENDBRANCH  18  25
BRANCH  24  28
HETATM   28  N7  UNL     1      82.058  48.449  38.054  1.00  0.00    -0.108 N
HETATM   29  O1  UNL     1      81.675  47.456  37.408  1.00  0.00    -0.532 OA
HETATM   30  O2  UNL     1      82.776  49.378  37.317  1.00  0.00    -0.532 OA
ENDBRANCH  24  28
ENDBRANCH  12  16
ENDBRANCH   7   8
BRANCH   7  31
HETATM   31  C17 UNL     1      75.405  48.777  37.335  1.00  0.00     0.012 C
HETATM   32  C18 UNL     1      75.229  48.620  35.788  1.00  0.00     0.015 C
BRANCH  31  33
HETATM   33  C19 UNL     1      74.022  48.707  37.920  1.00  0.00     0.004 C
HETATM   34  C20 UNL     1      73.345  47.511  37.256  1.00  0.00     0.006 C
ENDBRANCH  31  33
ENDBRANCH   7  31
ENDBRANCH   6   7
ENDBRANCH   5   6
ENDBRANCH   3   4
TORSDOF 9
ENDMDL