MODEL 1
REMARK VINA RESULT: -7.262013828      0.000      0.000
REMARK  10 active torsions:
REMARK  status: ('A' for Active; 'I' for Inactive)
REMARK    1  A    between atoms: C2_2  and  O2_4
REMARK    2  A    between atoms: O2_4  and  C3_5
REMARK    3  A    between atoms: C3_5  and  C4_6
REMARK    4  A    between atoms: C3_5  and  C17_23
REMARK    5  A    between atoms: C10_12  and  O3_13
REMARK    6  A    between atoms: C17_23  and  O6_25
REMARK    7  A    between atoms: C17_23  and  C19_27
REMARK    8  A    between atoms: C19_27  and  C20_28
REMARK    9  A    between atoms: C20_28  and  C21_29
REMARK   10  A    between atoms: C21_29  and  O7_30
ROOT
HETATM    1  C4  UNL     1      79.804  49.054  37.320  1.00  0.00     0.166 C
HETATM    2  C5  UNL     1      79.088  49.870  38.356  1.00  0.00     0.079 C
HETATM    3  C6  UNL     1      79.765  49.562  39.663  1.00  0.00     0.012 A
HETATM    4  C7  UNL     1      80.955  48.979  39.312  1.00  0.00     0.087 A
HETATM    5  C8  UNL     1      81.794  48.588  40.345  1.00  0.00     0.006 A
HETATM    6  C9  UNL     1      83.108  47.947  40.081  1.00  0.00     0.054 C
HETATM    7  C10 UNL     1      81.423  48.787  41.659  1.00  0.00     0.083 A
HETATM    8  C11 UNL     1      80.207  49.381  41.976  1.00  0.00     0.013 A
HETATM    9  C12 UNL     1      79.369  49.773  40.953  1.00  0.00     0.088 A
HETATM   10  O4  UNL     1      78.208  50.344  41.504  1.00  0.00    -0.339 OA
HETATM   11  C13 UNL     1      78.566  50.827  42.804  1.00  0.00     0.065 C
HETATM   12  C14 UNL     1      77.391  50.916  43.724  1.00  0.00     0.046 C
HETATM   13  C15 UNL     1      79.355  52.100  42.710  1.00  0.00     0.046 C
HETATM   14  C16 UNL     1      79.527  49.730  43.245  1.00  0.00     0.082 C
HETATM   15  O5  UNL     1      81.095  48.891  37.946  1.00  0.00    -0.342 OA
ENDROOT
BRANCH   1  16
HETATM   16  C3  UNL     1      80.082  49.775  36.024  1.00  0.00     0.195 C
BRANCH  16  17
HETATM   17  O2  UNL     1      81.099  50.736  36.413  1.00  0.00    -0.311 OA
BRANCH  17  18
HETATM   18  C2  UNL     1      80.872  52.091  36.342  1.00  0.00     0.255 C
HETATM   19  C1  UNL     1      81.971  52.989  36.783  1.00  0.00     0.126 C
HETATM   20  O1  UNL     1      79.768  52.490  35.918  1.00  0.00    -0.266 OA
ENDBRANCH  17  18
ENDBRANCH  16  17
BRANCH  16  21
HETATM   21  C17 UNL     1      80.810  48.896  34.994  1.00  0.00     0.083 C
HETATM   22  C18 UNL     1      80.071  48.776  33.712  1.00  0.00     0.049 C
BRANCH  21  23
HETATM   23  O6  UNL     1      80.753  47.600  35.597  1.00  0.00    -0.388 OA
ATOM     24  H6  UNL     1      81.657  47.312  35.551  1.00  0.00     0.210 HD
ENDBRANCH  21  23
BRANCH  21  25
HETATM   25  C19 UNL     1      82.260  49.192  34.876  1.00  0.00     0.042 C
BRANCH  25  26
HETATM   26  C20 UNL     1      83.216  48.189  35.394  1.00  0.00     0.029 C
BRANCH  26  27
HETATM   27  C21 UNL     1      84.177  48.739  36.402  1.00  0.00     0.164 C
BRANCH  27  28
HETATM   28  O7  UNL     1      83.694  49.864  37.053  1.00  0.00    -0.401 OA
ATOM     29  H7  UNL     1      84.172  50.066  37.849  1.00  0.00     0.209 HD
ENDBRANCH  27  28
ENDBRANCH  26  27
ENDBRANCH  25  26
ENDBRANCH  21  25
ENDBRANCH  16  21
ENDBRANCH   1  16
BRANCH   7  30
HETATM   30  O3  UNL     1      82.221  48.416  42.730  1.00  0.00    -0.359 OA
ATOM     31  H3  UNL     1      82.316  47.514  43.014  1.00  0.00     0.217 HD
ENDBRANCH   7  30
TORSDOF 10
ENDMDL