MODEL 2
REMARK VINA RESULT: -8.577855601      2.247      3.874
REMARK  7 active torsions:
REMARK  status: ('A' for Active; 'I' for Inactive)
REMARK    1  A    between atoms: O1_1  and  C1_3
REMARK    2  A    between atoms: C4_6  and  C5_7
REMARK    3  A    between atoms: C5_7  and  N1_8
REMARK    4  A    between atoms: N1_8  and  C6_10
REMARK    5  A    between atoms: C6_10  and  C7_11
REMARK    6  A    between atoms: C7_11  and  N2_12
REMARK    7  A    between atoms: C18_26  and  O4_27
ROOT
HETATM    1  C7  UNL     1      81.311  49.685  40.552  1.00  0.00     0.316 C
ENDROOT
BRANCH   1   2
HETATM    2  C6  UNL     1      80.953  49.353  41.966  1.00  0.00     0.085 C
BRANCH   2   3
HETATM    3  N1  UNL     1      79.591  49.452  42.298  1.00  0.00    -0.396 N
ATOM      4  H1  UNL     1      78.857  49.027  41.732  1.00  0.00     0.159 HD
BRANCH   3   5
HETATM    5  C5  UNL     1      79.308  50.197  43.492  1.00  0.00     0.160 C
BRANCH   5   6
HETATM    6  C4  UNL     1      78.050  50.983  43.313  1.00  0.00    -0.007 A
HETATM    7  C3  UNL     1      77.580  51.128  42.033  1.00  0.00     0.014 A
HETATM    8  C2  UNL     1      76.419  51.825  41.829  1.00  0.00     0.037 A
HETATM    9  C1  UNL     1      75.720  52.382  42.886  1.00  0.00     0.068 A
HETATM   10  C19 UNL     1      76.217  52.224  44.174  1.00  0.00     0.073 A
HETATM   11  C18 UNL     1      77.386  51.522  44.384  1.00  0.00     0.076 A
BRANCH   9  12
HETATM   12  O1  UNL     1      74.542  53.091  42.682  1.00  0.00    -0.361 OA
ATOM     13  H1  UNL     1      73.784  52.685  42.280  1.00  0.00     0.217 HD
ENDBRANCH   9  12
BRANCH  11  14
HETATM   14  O4  UNL     1      77.869  51.369  45.668  1.00  0.00    -0.360 OA
ATOM     15  H4  UNL     1      77.698  50.576  46.162  1.00  0.00     0.217 HD
ENDBRANCH  11  14
ENDBRANCH   5   6
ENDBRANCH   3   5
ENDBRANCH   2   3
ENDBRANCH   1   2
BRANCH   1  16
HETATM   16  N2  UNL     1      80.498  48.771  39.740  1.00  0.00     0.096 N
HETATM   17  C8  UNL     1      80.048  49.327  38.510  1.00  0.00     0.299 C
HETATM   18  C9  UNL     1      78.635  49.937  38.666  1.00  0.00     0.200 C
HETATM   19  O2  UNL     1      78.197  50.487  37.494  1.00  0.00    -0.365 OA
HETATM   20  C10 UNL     1      78.706  49.747  36.437  1.00  0.00     0.337 C
HETATM   21  O3  UNL     1      78.275  50.114  35.180  1.00  0.00    -0.367 OA
HETATM   22  C11 UNL     1      79.328  49.872  34.262  1.00  0.00     0.170 C
HETATM   23  C12 UNL     1      79.984  48.556  34.449  1.00  0.00     0.026 C
HETATM   24  C13 UNL     1      81.414  48.498  33.997  1.00  0.00     0.003 C
HETATM   25  C14 UNL     1      82.410  49.028  34.991  1.00  0.00     0.010 C
HETATM   26  C15 UNL     1      82.696  48.041  36.111  1.00  0.00     0.074 C
HETATM   27  S1  UNL     1      82.994  48.899  37.677  1.00  0.00    -0.167 SA
HETATM   28  C16 UNL     1      82.718  47.885  39.113  1.00  0.00     0.104 C
HETATM   29  C17 UNL     1      81.306  47.582  39.447  1.00  0.00     0.283 C
ENDBRANCH   1  16
TORSDOF 7
ENDMDL