MODEL 3
REMARK VINA RESULT: -9.253547659      1.223      1.577
REMARK  10 active torsions:
REMARK  status: ('A' for Active; 'I' for Inactive)
REMARK    1  A    between atoms: C2_2  and  O2_4
REMARK    2  A    between atoms: O2_4  and  C3_5
REMARK    3  A    between atoms: C3_5  and  C4_6
REMARK    4  A    between atoms: C8_11  and  C9_12
REMARK    5  A    between atoms: C10_13  and  C11_14
REMARK    6  A    between atoms: C11_14  and  O4_15
REMARK    7  A    between atoms: N1_17  and  O5_19
REMARK    8  A    between atoms: C15_24  and  O6_25
REMARK    9  A    between atoms: O6_25  and  C16_26
REMARK   10  A    between atoms: C16_26  and  C17_28
ROOT
HETATM    1  C17 UNL     1      80.533  51.725  36.793  1.00  0.00     0.023 C
HETATM    2  C18 UNL     1      79.279  51.163  36.194  1.00  0.00     0.055 C
HETATM    3  C19 UNL     1      81.280  52.549  36.086  1.00  0.00     0.106 C
HETATM    4  C20 UNL     1      82.486  53.156  36.521  1.00  0.00     0.088 C
HETATM    5  N2  UNL     1      83.476  53.663  36.857  1.00  0.00    -0.192 NA
ENDROOT
BRANCH   1   6
HETATM    6  C16 UNL     1      80.896  51.349  38.143  1.00  0.00     0.290 C
HETATM    7  O7  UNL     1      80.682  52.151  39.077  1.00  0.00    -0.260 OA
BRANCH   6   8
HETATM    8  O6  UNL     1      81.468  50.128  38.388  1.00  0.00    -0.309 OA
BRANCH   8   9
HETATM    9  C15 UNL     1      80.741  48.907  38.370  1.00  0.00     0.168 C
HETATM   10  C4  UNL     1      81.572  47.757  38.925  1.00  0.00     0.183 C
HETATM   11  O3  UNL     1      82.162  48.275  40.102  1.00  0.00    -0.341 OA
HETATM   12  C5  UNL     1      81.317  48.753  41.083  1.00  0.00     0.075 A
HETATM   13  C6  UNL     1      81.673  48.856  42.404  1.00  0.00     0.038 A
HETATM   14  C13 UNL     1      80.050  49.149  40.744  1.00  0.00    -0.021 A
HETATM   15  C7  UNL     1      80.816  49.340  43.401  1.00  0.00     0.014 A
HETATM   16  C8  UNL     1      79.553  49.729  43.018  1.00  0.00    -0.035 A
HETATM   17  C12 UNL     1      79.151  49.638  41.676  1.00  0.00     0.021 A
HETATM   18  C14 UNL     1      79.581  49.066  39.321  1.00  0.00     0.076 C
BRANCH  10  19
HETATM   19  C3  UNL     1      82.624  47.304  37.981  1.00  0.00     0.213 C
BRANCH  19  20
HETATM   20  O2  UNL     1      83.516  48.349  37.706  1.00  0.00    -0.319 OA
BRANCH  20  21
HETATM   21  C2  UNL     1      84.059  48.645  36.498  1.00  0.00     0.254 C
HETATM   22  C1  UNL     1      83.261  49.411  35.480  1.00  0.00     0.126 C
HETATM   23  O1  UNL     1      85.227  48.283  36.221  1.00  0.00    -0.266 OA
ENDBRANCH  20  21
ENDBRANCH  19  20
ENDBRANCH  10  19
BRANCH  16  24
HETATM   24  C9  UNL     1      78.636  50.235  44.015  1.00  0.00     0.015 C
HETATM   25  C10 UNL     1      78.185  51.455  43.991  1.00  0.00     0.058 C
BRANCH  25  26
HETATM   26  C11 UNL     1      77.252  51.915  45.035  1.00  0.00     0.159 C
HETATM   27  N1  UNL     1      77.650  51.849  46.256  1.00  0.00    -0.248 N
ATOM     28  H1  UNL     1      78.579  51.489  46.473  1.00  0.00     0.196 HD
BRANCH  26  29
HETATM   29  O4  UNL     1      75.999  52.398  44.717  1.00  0.00    -0.345 OA
ATOM     30  H4  UNL     1      75.814  52.767  43.862  1.00  0.00     0.219 HD
ENDBRANCH  26  29
BRANCH  27  31
HETATM   31  O5  UNL     1      76.811  52.268  47.272  1.00  0.00    -0.288 OA
ATOM     32  H5  UNL     1      77.149  52.832  47.957  1.00  0.00     0.244 HD
ENDBRANCH  27  31
ENDBRANCH  25  26
ENDBRANCH  16  24
ENDBRANCH   8   9
ENDBRANCH   6   8
ENDBRANCH   1   6
TORSDOF 10
ENDMDL