MODEL 3
REMARK VINA RESULT: -7.270214052      2.284      5.358
REMARK  9 active torsions:
REMARK  status: ('A' for Active; 'I' for Inactive)
REMARK    1  A    between atoms: C2_2  and  C3_3
REMARK    2  A    between atoms: C3_3  and  N1_4
REMARK    3  A    between atoms: C4_5  and  O1_6
REMARK    4  A    between atoms: C6_9  and  C7_10
REMARK    5  A    between atoms: N2_19  and  C14_20
REMARK    6  A    between atoms: C14_20  and  C15_21
REMARK    7  A    between atoms: C16_22  and  C17_23
REMARK    8  A    between atoms: C17_23  and  O4_26
REMARK    9  A    between atoms: C21_29  and  O5_30
ROOT
HETATM    1  C7  UNL     1      80.841  50.765  37.224  1.00  0.00     0.020 C
HETATM    2  C8  UNL     1      81.323  52.159  37.673  1.00  0.00     0.026 C
HETATM    3  C9  UNL     1      82.078  49.880  37.283  1.00  0.00     0.036 C
HETATM    4  C10 UNL     1      82.586  49.794  35.886  1.00  0.00     0.112 C
HETATM    5  C11 UNL     1      83.710  48.885  35.681  1.00  0.00     0.265 C
HETATM    6  O2  UNL     1      84.662  48.622  36.468  1.00  0.00    -0.265 OA
HETATM    7  O3  UNL     1      83.537  48.334  34.406  1.00  0.00    -0.319 OA
HETATM    8  C12 UNL     1      82.265  48.682  33.891  1.00  0.00     0.204 C
HETATM    9  C13 UNL     1      81.489  49.008  35.140  1.00  0.00     0.121 C
HETATM   10  N2  UNL     1      80.407  49.904  34.928  1.00  0.00    -0.381 N
HETATM   11  C20 UNL     1      80.200  50.894  35.905  1.00  0.00     0.073 C
ENDROOT
BRANCH   1  12
HETATM   12  C6  UNL     1      79.885  50.334  38.280  1.00  0.00     0.010 A
HETATM   13  C5  UNL     1      78.630  49.825  38.120  1.00  0.00     0.068 A
HETATM   14  C4  UNL     1      78.080  49.552  39.380  1.00  0.00     0.144 A
HETATM   15  N1  UNL     1      79.020  49.904  40.273  1.00  0.00    -0.308 N
HETATM   16  C21 UNL     1      80.107  50.375  39.645  1.00  0.00     0.151 A
BRANCH  14  17
HETATM   17  O1  UNL     1      76.817  49.026  39.574  1.00  0.00    -0.346 OA
ATOM     18  H1  UNL     1      76.281  48.488  39.002  1.00  0.00     0.219 HD
ENDBRANCH  14  17
BRANCH  15  19
HETATM   19  C3  UNL     1      78.908  49.807  41.710  1.00  0.00     0.133 C
BRANCH  19  20
HETATM   20  C2  UNL     1      78.567  51.092  42.376  1.00  0.00     0.016 C
HETATM   21  C1  UNL     1      77.130  51.487  42.293  1.00  0.00     0.006 C
ENDBRANCH  19  20
ENDBRANCH  15  19
BRANCH  16  22
HETATM   22  O5  UNL     1      81.259  50.826  40.242  1.00  0.00    -0.345 OA
ATOM     23  H5  UNL     1      82.146  50.678  39.936  1.00  0.00     0.219 HD
ENDBRANCH  16  22
ENDBRANCH   1  12
BRANCH  10  24
HETATM   24  C14 UNL     1      79.273  49.187  34.458  1.00  0.00     0.149 C
BRANCH  24  25
HETATM   25  C15 UNL     1      77.958  49.767  34.728  1.00  0.00    -0.008 C
HETATM   26  C16 UNL     1      77.087  50.187  33.827  1.00  0.00     0.007 C
BRANCH  26  27
HETATM   27  C17 UNL     1      77.281  50.150  32.364  1.00  0.00     0.068 C
HETATM   28  C18 UNL     1      76.275  50.962  31.589  1.00  0.00     0.050 C
HETATM   29  C19 UNL     1      77.342  48.734  31.846  1.00  0.00     0.050 C
BRANCH  27  30
HETATM   30  O4  UNL     1      78.538  50.714  32.049  1.00  0.00    -0.387 OA
ATOM     31  H4  UNL     1      79.224  50.133  32.354  1.00  0.00     0.211 HD
ENDBRANCH  27  30
ENDBRANCH  26  27
ENDBRANCH  24  25
ENDBRANCH  10  24
TORSDOF 9
ENDMDL