MODEL 1
REMARK VINA RESULT: -8.891803117      0.000      0.000
REMARK  8 active torsions:
REMARK  status: ('A' for Active; 'I' for Inactive)
REMARK    1  A    between atoms: C2_2  and  C3_3
REMARK    2  A    between atoms: C3_3  and  C4_4
REMARK    3  A    between atoms: N3_10  and  S1_12
REMARK    4  A    between atoms: S1_12  and  C6_15
REMARK    5  A    between atoms: C7_16  and  C8_17
REMARK    6  A    between atoms: C9_18  and  C10_19
REMARK    7  A    between atoms: C10_19  and  O3_20
REMARK    8  A    between atoms: N4_22  and  O4_24
ROOT
HETATM    1  C6  UNL     1      81.427  50.229  35.613  1.00  0.00     0.103 A
HETATM    2  C7  UNL     1      81.605  51.472  36.204  1.00  0.00     0.029 A
HETATM    3  S2  UNL     1      80.012  52.087  36.268  1.00  0.00    -0.093 SA
HETATM    4  C11 UNL     1      79.166  50.809  35.569  1.00  0.00    -0.013 A
HETATM    5  C12 UNL     1      77.679  50.652  35.294  1.00  0.00     0.057 C
HETATM    6  C13 UNL     1      80.151  49.909  35.291  1.00  0.00    -0.025 A
HETATM    7  C14 UNL     1      79.821  48.572  34.618  1.00  0.00     0.051 C
ENDROOT
BRANCH   1   8
HETATM    8  S1  UNL     1      82.835  49.138  35.362  1.00  0.00     0.266 S
HETATM    9  O1  UNL     1      84.053  49.727  36.074  1.00  0.00    -0.200 OA
HETATM   10  O2  UNL     1      83.189  49.080  33.934  1.00  0.00    -0.200 OA
BRANCH   8  11
HETATM   11  N3  UNL     1      82.568  47.617  36.103  1.00  0.00    -0.259 N
HETATM   12  C5  UNL     1      82.286  47.635  37.387  1.00  0.00     0.174 A
HETATM   13  N2  UNL     1      82.043  46.576  38.166  1.00  0.00    -0.278 N
HETATM   14  S3  UNL     1      82.130  48.924  38.497  1.00  0.00    -0.037 SA
HETATM   15  N1  UNL     1      81.785  46.769  39.394  1.00  0.00    -0.296 N
ATOM     16  H2  UNL     1      82.063  45.632  37.781  1.00  0.00     0.189 HD
HETATM   17  C4  UNL     1      81.761  48.000  39.884  1.00  0.00     0.069 A
ATOM     18  H1  UNL     1      81.596  45.975  40.006  1.00  0.00     0.187 HD
ATOM     19  H3  UNL     1      82.625  46.745  35.576  1.00  0.00     0.181 HD
BRANCH  17  20
HETATM   20  C3  UNL     1      81.473  48.397  41.311  1.00  0.00     0.066 C
BRANCH  20  21
HETATM   21  C2  UNL     1      81.171  49.886  41.263  1.00  0.00     0.002 C
HETATM   22  C1  UNL     1      80.006  50.137  42.214  1.00  0.00     0.005 C
ENDBRANCH  20  21
ENDBRANCH  17  20
ENDBRANCH   8  11
ENDBRANCH   1   8
BRANCH   2  23
HETATM   23  C8  UNL     1      82.869  52.086  36.604  1.00  0.00     0.025 C
HETATM   24  C9  UNL     1      83.295  53.277  36.512  1.00  0.00     0.059 C
BRANCH  24  25
HETATM   25  C10 UNL     1      82.786  54.518  36.008  1.00  0.00     0.159 C
HETATM   26  N4  UNL     1      83.365  55.651  36.361  1.00  0.00    -0.248 N
ATOM     27  H4  UNL     1      84.170  55.649  36.987  1.00  0.00     0.196 HD
BRANCH  25  28
HETATM   28  O3  UNL     1      81.719  54.613  35.169  1.00  0.00    -0.345 OA
ATOM     29  H3  UNL     1      81.172  55.386  35.097  1.00  0.00     0.219 HD
ENDBRANCH  25  28
BRANCH  26  30
HETATM   30  O4  UNL     1      82.870  56.819  35.873  1.00  0.00    -0.288 OA
ATOM     31  H4  UNL     1      82.798  56.929  34.932  1.00  0.00     0.244 HD
ENDBRANCH  26  30
ENDBRANCH  24  25
ENDBRANCH   2  23
TORSDOF 8
ENDMDL