MODEL 2
REMARK VINA RESULT: -9.468418067      1.541      2.089
REMARK  7 active torsions:
REMARK  status: ('A' for Active; 'I' for Inactive)
REMARK    1  A    between atoms: C2_2  and  C3_3
REMARK    2  A    between atoms: C4_5  and  S2_6
REMARK    3  A    between atoms: S2_6  and  C5_7
REMARK    4  A    between atoms: C5_7  and  C6_8
REMARK       I    between atoms: C6_8  and  N1_10
REMARK       I    between atoms: N1_10  and  C7_12
REMARK    5  A    between atoms: C7_12  and  C8_14
REMARK    6  A    between atoms: C13_20  and  C14_21
REMARK    7  A    between atoms: C14_21  and  O3_22
ROOT
HETATM    1  C3  UNL     1      79.772  49.322  34.566  1.00  0.00    -0.009 A
HETATM    2  S1  UNL     1      80.912  48.179  35.081  1.00  0.00    -0.085 SA
HETATM    3  C4  UNL     1      81.410  48.927  36.566  1.00  0.00     0.067 A
HETATM    4  C16 UNL     1      80.651  50.050  36.591  1.00  0.00     0.075 A
HETATM    5  C17 UNL     1      80.710  50.971  37.746  1.00  0.00     0.102 C
HETATM    6  N3  UNL     1      80.775  51.687  38.676  1.00  0.00    -0.191 NA
HETATM    7  C18 UNL     1      79.797  50.268  35.558  1.00  0.00    -0.026 A
HETATM    8  C19 UNL     1      78.887  51.494  35.461  1.00  0.00     0.051 C
ENDROOT
BRANCH   3   9
HETATM    9  S2  UNL     1      82.558  48.232  37.729  1.00  0.00    -0.088 SA
BRANCH   9  10
HETATM   10  C5  UNL     1      81.874  47.656  39.244  1.00  0.00     0.125 C
BRANCH  10  11
HETATM   11  C6  UNL     1      82.290  48.357  40.439  1.00  0.00     0.254 C
HETATM   12  O1  UNL     1      83.516  48.370  40.803  1.00  0.00    -0.268 OA
HETATM   13  N1  UNL     1      81.419  49.074  41.300  1.00  0.00    -0.289 N
HETATM   14  C7  UNL     1      80.060  49.212  41.049  1.00  0.00     0.258 C
ATOM     15  H1  UNL     1      81.807  49.505  42.139  1.00  0.00     0.172 HD
HETATM   16  O2  UNL     1      79.511  48.721  40.037  1.00  0.00    -0.267 OA
BRANCH  14  17
HETATM   17  C8  UNL     1      79.166  49.960  41.976  1.00  0.00     0.034 A
HETATM   18  C9  UNL     1      79.446  49.983  43.322  1.00  0.00     0.044 A
HETATM   19  C10 UNL     1      78.618  50.690  44.198  1.00  0.00     0.053 A
HETATM   20  N2  UNL     1      78.899  50.715  45.593  1.00  0.00    -0.102 NA
HETATM   21  C11 UNL     1      77.515  51.374  43.730  1.00  0.00    -0.029 A
HETATM   22  C12 UNL     1      76.642  52.126  44.670  1.00  0.00     0.050 C
HETATM   23  C13 UNL     1      77.236  51.353  42.384  1.00  0.00    -0.026 A
HETATM   24  C15 UNL     1      78.063  50.648  41.533  1.00  0.00     0.027 A
BRANCH  23  25
HETATM   25  C14 UNL     1      76.054  52.086  41.859  1.00  0.00     0.203 C
BRANCH  25  26
HETATM   26  O3  UNL     1      76.221  52.444  40.535  1.00  0.00    -0.396 OA
ATOM     27  H3  UNL     1      76.644  53.290  40.450  1.00  0.00     0.209 HD
ENDBRANCH  25  26
ENDBRANCH  23  25
ENDBRANCH  14  17
ENDBRANCH  10  11
ENDBRANCH   9  10
ENDBRANCH   3   9
BRANCH   1  28
HETATM   28  C2  UNL     1      78.910  49.330  33.319  1.00  0.00     0.042 C
HETATM   29  C1  UNL     1      79.854  49.356  32.150  1.00  0.00     0.010 C
ENDBRANCH   1  28
TORSDOF 7
ENDMDL