MODEL 1
REMARK VINA RESULT: -7.134692973      0.000      0.000
REMARK  16 active torsions:
REMARK  status: ('A' for Active; 'I' for Inactive)
REMARK    1  A    between atoms: C2_2  and  C4_4
REMARK    2  A    between atoms: C4_4  and  C5_5
REMARK    3  A    between atoms: C5_5  and  C6_6
REMARK    4  A    between atoms: C6_6  and  C7_7
REMARK    5  A    between atoms: C8_10  and  O1_11
REMARK    6  A    between atoms: C9_13  and  C10_14
REMARK    7  A    between atoms: C10_14  and  C11_15
REMARK    8  A    between atoms: C16_23  and  C17_24
REMARK    9  A    between atoms: C17_24  and  C18_25
REMARK   10  A    between atoms: C22_32  and  C23_33
REMARK   11  A    between atoms: C23_33  and  C24_34
REMARK   12  A    between atoms: C28_41  and  C29_42
REMARK   13  A    between atoms: N6_50  and  C34_51
REMARK   14  A    between atoms: C34_51  and  C35_52
REMARK   15  A    between atoms: C35_52  and  N7_53
REMARK   16  A    between atoms: C36_57  and  O6_58
ROOT
HETATM    1  C7  UNL     1      16.536  -7.651 -11.685  1.00  0.00     0.180 C
HETATM    2  N1  UNL     1      17.940  -7.148 -11.765  1.00  0.00    -0.357 N
ATOM      3  H1  UNL     1      18.218  -6.791 -12.679  1.00  0.00     0.162 HD
HETATM    4  C8  UNL     1      18.918  -7.093 -10.798  1.00  0.00     0.135 C
HETATM    5  C9  UNL     1      19.621  -8.080  -9.980  1.00  0.00     0.159 C
HETATM    6  N2  UNL     1      20.600  -8.792 -10.796  1.00  0.00    -0.349 N
ATOM      7  H2  UNL     1      20.982  -8.277 -11.588  1.00  0.00     0.163 HD
HETATM    8  C14 UNL     1      21.076 -10.093 -10.623  1.00  0.00     0.220 C
HETATM    9  O2  UNL     1      22.350 -10.189 -10.475  1.00  0.00    -0.274 OA
HETATM   10  C15 UNL     1      20.318 -11.353 -10.590  1.00  0.00     0.128 C
HETATM   11  C16 UNL     1      21.064 -12.581 -11.000  1.00  0.00     0.093 C
HETATM   12  N3  UNL     1      22.385 -12.433 -11.498  1.00  0.00    -0.354 N
ATOM     13  H3  UNL     1      23.109 -12.359 -10.784  1.00  0.00     0.162 HD
HETATM   14  C21 UNL     1      22.853 -12.373 -12.826  1.00  0.00     0.240 C
HETATM   15  O3  UNL     1      23.784 -13.178 -13.227  1.00  0.00    -0.271 OA
HETATM   16  C22 UNL     1      22.397 -11.456 -13.903  1.00  0.00     0.177 C
HETATM   17  N4  UNL     1      21.983 -12.212 -15.073  1.00  0.00    -0.346 N
ATOM     18  H4  UNL     1      22.606 -12.951 -15.401  1.00  0.00     0.163 HD
HETATM   19  C27 UNL     1      20.782 -12.000 -15.790  1.00  0.00     0.241 C
HETATM   20  O4  UNL     1      20.190 -12.932 -16.388  1.00  0.00    -0.271 OA
HETATM   21  C28 UNL     1      20.127 -10.649 -15.889  1.00  0.00     0.180 C
HETATM   22  N5  UNL     1      18.726 -10.802 -15.576  1.00  0.00    -0.346 N
ATOM     23  H5  UNL     1      18.430 -11.743 -15.314  1.00  0.00     0.163 HD
HETATM   24  C32 UNL     1      17.724  -9.830 -15.586  1.00  0.00     0.236 C
HETATM   25  O5  UNL     1      16.666 -10.067 -16.245  1.00  0.00    -0.272 OA
HETATM   26  C33 UNL     1      17.763  -8.504 -14.882  1.00  0.00     0.227 C
HETATM   27  N6  UNL     1      16.476  -8.180 -14.249  1.00  0.00    -0.353 N
HETATM   28  C36 UNL     1      16.165  -8.383 -12.887  1.00  0.00     0.141 C
ENDROOT
BRANCH   1  29
HETATM   29  C6  UNL     1      15.663  -6.629 -11.134  1.00  0.00     0.002 C
BRANCH  29  30
HETATM   30  C5  UNL     1      14.359  -6.913 -10.536  1.00  0.00    -0.028 C
BRANCH  30  31
HETATM   31  C4  UNL     1      13.125  -6.986 -11.331  1.00  0.00     0.030 C
BRANCH  31  32
HETATM   32  C2  UNL     1      12.545  -8.397 -11.115  1.00  0.00    -0.019 C
HETATM   33  C1  UNL     1      11.035  -8.323 -11.005  1.00  0.00     0.010 C
HETATM   34  C3  UNL     1      13.148  -8.967  -9.852  1.00  0.00     0.010 C
ENDBRANCH  31  32
ENDBRANCH  30  31
ENDBRANCH  29  30
ENDBRANCH   1  29
BRANCH  28  35
HETATM   35  O6  UNL     1      15.404  -9.426 -12.660  1.00  0.00    -0.348 OA
ATOM     36  H6  UNL     1      14.534  -9.357 -13.035  1.00  0.00     0.219 HD
ENDBRANCH  28  35
BRANCH   4  37
HETATM   37  O1  UNL     1      19.321  -5.871 -10.544  1.00  0.00    -0.348 OA
ATOM     38  H1  UNL     1      20.008  -5.835  -9.888  1.00  0.00     0.219 HD
ENDBRANCH   4  37
BRANCH  27  39
HETATM   39  C34 UNL     1      15.467  -7.646 -15.148  1.00  0.00     0.152 C
BRANCH  39  40
HETATM   40  C35 UNL     1      14.101  -8.273 -14.977  1.00  0.00     0.249 C
BRANCH  40  41
HETATM   41  N7  UNL     1      14.038  -9.671 -15.224  1.00  0.00    -0.078 N
ATOM     42  H73 UNL     1      14.041  -9.849 -16.228  1.00  0.00     0.274 HD
ATOM     43  H72 UNL     1      14.918 -10.112 -14.960  1.00  0.00     0.274 HD
ATOM     44  H71 UNL     1      13.257 -10.157 -14.784  1.00  0.00     0.274 HD
ENDBRANCH  40  41
ENDBRANCH  39  40
ENDBRANCH  27  39
BRANCH   5  45
HETATM   45  C10 UNL     1      18.824  -9.000  -9.128  1.00  0.00     0.037 C
BRANCH  45  46
HETATM   46  C11 UNL     1      18.197  -8.302  -7.923  1.00  0.00    -0.020 C
HETATM   47  C12 UNL     1      16.685  -8.451  -8.114  1.00  0.00     0.009 C
HETATM   48  C13 UNL     1      18.652  -9.004  -6.664  1.00  0.00     0.009 C
ENDBRANCH  45  46
ENDBRANCH   5  45
BRANCH  21  49
HETATM   49  C29 UNL     1      20.375 -10.234 -17.329  1.00  0.00     0.009 C
HETATM   50  C30 UNL     1      20.576  -8.754 -17.478  1.00  0.00     0.012 C
HETATM   51  C31 UNL     1      21.404 -11.009 -18.050  1.00  0.00     0.012 C
ENDBRANCH  21  49
BRANCH  11  52
HETATM   52  C17 UNL     1      21.058 -13.567  -9.822  1.00  0.00     0.029 C
BRANCH  52  53
HETATM   53  C18 UNL     1      22.299 -14.348  -9.651  1.00  0.00    -0.021 C
HETATM   54  C19 UNL     1      21.976 -15.769 -10.162  1.00  0.00     0.009 C
HETATM   55  C20 UNL     1      22.696 -14.536  -8.199  1.00  0.00     0.009 C
ENDBRANCH  52  53
ENDBRANCH  11  52
BRANCH  16  56
HETATM   56  C23 UNL     1      23.400 -10.379 -14.196  1.00  0.00     0.038 C
BRANCH  56  57
HETATM   57  C24 UNL     1      24.138 -10.466 -15.475  1.00  0.00    -0.020 C
HETATM   58  C25 UNL     1      25.608 -10.728 -15.088  1.00  0.00     0.009 C
HETATM   59  C26 UNL     1      24.142  -9.229 -16.307  1.00  0.00     0.009 C
ENDBRANCH  56  57
ENDBRANCH  16  56
TORSDOF 16
ENDMDL