MODEL 4
REMARK VINA RESULT: -6.754360714     11.959     17.998
REMARK  15 active torsions:
REMARK  status: ('A' for Active; 'I' for Inactive)
REMARK    1  A    between atoms: C2_2  and  C3_3
REMARK    2  A    between atoms: C3_3  and  C4_4
REMARK    3  A    between atoms: C6_9  and  C7_10
REMARK    4  A    between atoms: C7_10  and  C8_11
REMARK    5  A    between atoms: C8_11  and  C9_12
REMARK    6  A    between atoms: C9_12  and  C10_13
REMARK    7  A    between atoms: C10_13  and  N2_14
REMARK    8  A    between atoms: C12_22  and  C13_23
REMARK    9  A    between atoms: C13_23  and  C14_24
REMARK   10  A    between atoms: C18_31  and  C19_32
REMARK   11  A    between atoms: C24_40  and  C25_41
REMARK   12  A    between atoms: C25_41  and  C26_42
REMARK   13  A    between atoms: C29_47  and  O5_48
REMARK   14  A    between atoms: C30_50  and  C31_51
REMARK   15  A    between atoms: C31_51  and  C32_52
ROOT
HETATM    1  C4  UNL     1      20.949 -10.091 -11.350  1.00  0.00     0.176 C
HETATM    2  N1  UNL     1      21.202  -9.042 -12.312  1.00  0.00    -0.346 N
ATOM      3  H1  UNL     1      22.157  -9.028 -12.669  1.00  0.00     0.163 HD
HETATM    4  C5  UNL     1      20.400  -8.067 -12.832  1.00  0.00     0.241 C
HETATM    5  O1  UNL     1      20.684  -6.839 -12.560  1.00  0.00    -0.271 OA
HETATM    6  C6  UNL     1      19.184  -8.150 -13.710  1.00  0.00     0.176 C
HETATM    7  N3  UNL     1      18.839  -9.490 -14.029  1.00  0.00    -0.346 N
ATOM      8  H3  UNL     1      18.205  -9.939 -13.369  1.00  0.00     0.163 HD
HETATM    9  C11 UNL     1      19.233 -10.296 -15.109  1.00  0.00     0.241 C
HETATM   10  O2  UNL     1      18.329 -10.817 -15.863  1.00  0.00    -0.271 OA
HETATM   11  C12 UNL     1      20.638 -10.647 -15.521  1.00  0.00     0.177 C
HETATM   12  N4  UNL     1      20.590 -11.753 -16.460  1.00  0.00    -0.346 N
ATOM     13  H4  UNL     1      20.258 -11.491 -17.389  1.00  0.00     0.163 HD
HETATM   14  C17 UNL     1      20.906 -13.089 -16.341  1.00  0.00     0.241 C
HETATM   15  O3  UNL     1      19.945 -13.951 -16.218  1.00  0.00    -0.271 OA
HETATM   16  C18 UNL     1      22.246 -13.761 -16.330  1.00  0.00     0.184 C
HETATM   17  N5  UNL     1      22.226 -14.723 -15.270  1.00  0.00    -0.345 N
ATOM     18  H5  UNL     1      21.626 -15.530 -15.437  1.00  0.00     0.163 HD
HETATM   19  C23 UNL     1      22.896 -14.737 -14.041  1.00  0.00     0.241 C
HETATM   20  O4  UNL     1      22.266 -15.275 -13.053  1.00  0.00    -0.271 OA
HETATM   21  C24 UNL     1      24.237 -14.204 -13.772  1.00  0.00     0.175 C
HETATM   22  N6  UNL     1      24.574 -13.746 -12.489  1.00  0.00    -0.359 N
ATOM     23  H6  UNL     1      25.442 -14.162 -12.150  1.00  0.00     0.162 HD
HETATM   24  C29 UNL     1      24.022 -12.863 -11.560  1.00  0.00     0.135 C
HETATM   25  C30 UNL     1      22.738 -12.892 -10.811  1.00  0.00     0.159 C
HETATM   26  N7  UNL     1      22.657 -11.598 -10.115  1.00  0.00    -0.347 N
ATOM     27  H7  UNL     1      22.953 -11.591  -9.138  1.00  0.00     0.163 HD
HETATM   28  C35 UNL     1      22.226 -10.392 -10.634  1.00  0.00     0.241 C
HETATM   29  O6  UNL     1      23.025  -9.386 -10.484  1.00  0.00    -0.271 OA
ENDROOT
BRANCH   6  30
HETATM   30  C7  UNL     1      18.097  -7.430 -12.979  1.00  0.00     0.035 C
BRANCH  30  31
HETATM   31  C8  UNL     1      16.685  -7.780 -13.222  1.00  0.00     0.004 C
BRANCH  31  32
HETATM   32  C9  UNL     1      15.865  -8.349 -12.134  1.00  0.00     0.027 C
BRANCH  32  33
HETATM   33  C10 UNL     1      14.656  -7.412 -11.834  1.00  0.00     0.229 C
BRANCH  33  34
HETATM   34  N2  UNL     1      15.110  -6.513 -10.784  1.00  0.00    -0.079 N
ATOM     35  H23 UNL     1      15.486  -6.994  -9.967  1.00  0.00     0.274 HD
ATOM     36  H22 UNL     1      15.959  -6.001 -11.022  1.00  0.00     0.274 HD
ATOM     37  H21 UNL     1      14.314  -5.911 -10.576  1.00  0.00     0.274 HD
ENDBRANCH  33  34
ENDBRANCH  32  33
ENDBRANCH  31  32
ENDBRANCH  30  31
ENDBRANCH   6  30
BRANCH   1  38
HETATM   38  C3  UNL     1      19.797  -9.925 -10.464  1.00  0.00     0.034 C
BRANCH  38  39
HETATM   39  C2  UNL     1      19.742  -8.815  -9.496  1.00  0.00    -0.002 C
HETATM   40  C1  UNL     1      18.455  -8.088  -9.344  1.00  0.00     0.005 C
ENDBRANCH  38  39
ENDBRANCH   1  38
BRANCH  11  41
HETATM   41  C13 UNL     1      21.272  -9.493 -16.271  1.00  0.00     0.038 C
BRANCH  41  42
HETATM   42  C14 UNL     1      21.490  -9.829 -17.727  1.00  0.00    -0.020 C
HETATM   43  C15 UNL     1      20.959  -8.684 -18.586  1.00  0.00     0.009 C
HETATM   44  C16 UNL     1      22.989  -9.902 -18.004  1.00  0.00     0.009 C
ENDBRANCH  41  42
ENDBRANCH  11  41
BRANCH  25  45
HETATM   45  C31 UNL     1      22.822 -13.969  -9.794  1.00  0.00     0.037 C
BRANCH  45  46
HETATM   46  C32 UNL     1      21.680 -14.815  -9.469  1.00  0.00    -0.020 C
HETATM   47  C33 UNL     1      21.866 -16.303  -9.437  1.00  0.00     0.009 C
HETATM   48  C34 UNL     1      20.908 -14.385  -8.230  1.00  0.00     0.009 C
ENDBRANCH  45  46
ENDBRANCH  25  45
BRANCH  16  49
HETATM   49  C19 UNL     1      22.330 -14.412 -17.711  1.00  0.00    -0.022 C
HETATM   50  C20 UNL     1      21.610 -13.677 -18.783  1.00  0.00     0.017 C
HETATM   51  C21 UNL     1      21.856 -15.842 -17.726  1.00  0.00     0.017 C
HETATM   52  C22 UNL     1      23.797 -14.492 -18.171  1.00  0.00     0.017 C
ENDBRANCH  16  49
BRANCH  24  53
HETATM   53  O5  UNL     1      24.732 -11.810 -11.266  1.00  0.00    -0.348 OA
ATOM     54  H5  UNL     1      24.289 -11.123 -10.781  1.00  0.00     0.219 HD
ENDBRANCH  24  53
BRANCH  21  55
HETATM   55  C25 UNL     1      25.225 -15.247 -14.317  1.00  0.00     0.038 C
BRANCH  55  56
HETATM   56  C26 UNL     1      26.387 -14.698 -15.050  1.00  0.00    -0.020 C
HETATM   57  C27 UNL     1      26.226 -13.345 -15.677  1.00  0.00     0.009 C
HETATM   58  C28 UNL     1      26.776 -15.631 -16.212  1.00  0.00     0.009 C
ENDBRANCH  55  56
ENDBRANCH  21  55
TORSDOF 15
ENDMDL