MODEL 3
REMARK VINA RESULT: -6.083997456      3.070      6.893
REMARK  15 active torsions:
REMARK  status: ('A' for Active; 'I' for Inactive)
REMARK    1  A    between atoms: C2_2  and  C3_3
REMARK    2  A    between atoms: C3_3  and  C5_5
REMARK    3  A    between atoms: C6_8  and  O1_9
REMARK    4  A    between atoms: C7_11  and  C8_12
REMARK    5  A    between atoms: C8_12  and  C9_13
REMARK    6  A    between atoms: C13_18  and  C14_19
REMARK    7  A    between atoms: C14_19  and  C15_20
REMARK    8  A    between atoms: C15_20  and  C16_21
REMARK    9  A    between atoms: C16_21  and  N2_22
REMARK       I    between atoms: N2_22  and  C17_24
REMARK   10  A    between atoms: C18_31  and  O3_32
REMARK   11  A    between atoms: C20_35  and  C21_36
REMARK   12  A    between atoms: C25_41  and  O4_42
REMARK   13  A    between atoms: C26_44  and  C27_45
REMARK   14  A    between atoms: C27_45  and  C28_46
REMARK   15  A    between atoms: C31_51  and  O5_52
ROOT
HETATM    1  C5  UNL     1      22.175 -11.124 -18.794  1.00  0.00     0.179 C
HETATM    2  N1  UNL     1      23.239 -12.036 -18.534  1.00  0.00    -0.357 N
ATOM      3  H1  UNL     1      22.969 -12.980 -18.812  1.00  0.00     0.162 HD
HETATM    4  C6  UNL     1      24.509 -12.040 -18.029  1.00  0.00     0.150 C
HETATM    5  C7  UNL     1      25.160 -11.778 -16.722  1.00  0.00     0.059 C
HETATM    6  C12 UNL     1      24.298 -12.204 -15.618  1.00  0.00     0.186 C
HETATM    7  O2  UNL     1      23.333 -12.924 -15.966  1.00  0.00    -0.290 OA
HETATM    8  C13 UNL     1      24.257 -12.008 -14.179  1.00  0.00     0.159 C
HETATM    9  N5  UNL     1      23.150 -11.077 -13.923  1.00  0.00    -0.357 N
ATOM     10  H5  UNL     1      22.329 -11.304 -14.484  1.00  0.00     0.162 HD
HETATM   11  C18 UNL     1      22.932  -9.994 -13.134  1.00  0.00     0.164 C
HETATM   12  C19 UNL     1      22.573  -9.733 -11.725  1.00  0.00     0.083 C
HETATM   13  C20 UNL     1      22.551 -10.806 -10.760  1.00  0.00     0.011 C
HETATM   14  N6  UNL     1      21.508  -8.712 -11.613  1.00  0.00    -0.331 N
HETATM   15  C24 UNL     1      21.533  -8.037 -10.284  1.00  0.00     0.158 C
HETATM   16  C25 UNL     1      20.556  -8.305 -12.556  1.00  0.00     0.141 C
HETATM   17  C26 UNL     1      19.433  -8.925 -13.249  1.00  0.00     0.158 C
HETATM   18  N7  UNL     1      19.618 -10.006 -14.150  1.00  0.00    -0.361 N
ATOM     19  H7  UNL     1      20.107 -10.792 -13.721  1.00  0.00     0.162 HD
HETATM   20  C31 UNL     1      19.291 -10.246 -15.477  1.00  0.00     0.135 C
HETATM   21  C32 UNL     1      19.724  -9.635 -16.752  1.00  0.00     0.155 C
HETATM   22  C33 UNL     1      21.037  -8.895 -16.652  1.00  0.00     0.041 C
HETATM   23  N8  UNL     1      19.820 -10.648 -17.808  1.00  0.00    -0.348 N
ATOM     24  H8  UNL     1      18.964 -10.777 -18.346  1.00  0.00     0.163 HD
HETATM   25  C34 UNL     1      20.856 -11.450 -18.197  1.00  0.00     0.241 C
HETATM   26  O6  UNL     1      20.699 -12.727 -18.035  1.00  0.00    -0.271 OA
ENDROOT
BRANCH   8  27
HETATM   27  C14 UNL     1      25.465 -11.745 -13.427  1.00  0.00     0.035 C
BRANCH  27  28
HETATM   28  C15 UNL     1      25.646 -12.122 -12.023  1.00  0.00     0.022 C
BRANCH  28  29
HETATM   29  C16 UNL     1      26.039 -11.099 -11.046  1.00  0.00     0.122 C
BRANCH  29  30
HETATM   30  N2  UNL     1      26.810  -9.995 -11.496  1.00  0.00    -0.365 N
HETATM   31  C17 UNL     1      26.233  -8.680 -11.489  1.00  0.00     0.181 C
HETATM   32  N3  UNL     1      26.163  -8.019 -10.395  1.00  0.00    -0.374 N
HETATM   33  N4  UNL     1      25.721  -8.065 -12.660  1.00  0.00    -0.064 NA
ATOM     34  H32 UNL     1      26.531  -8.461  -9.553  1.00  0.00     0.158 HD
ATOM     35  H31 UNL     1      25.753  -7.085 -10.390  1.00  0.00     0.158 HD
ATOM     36  H2  UNL     1      27.767 -10.134 -11.822  1.00  0.00     0.162 HD
ENDBRANCH  29  30
ENDBRANCH  28  29
ENDBRANCH  27  28
ENDBRANCH   8  27
BRANCH   5  37
HETATM   37  C8  UNL     1      26.000 -10.608 -16.574  1.00  0.00    -0.003 C
BRANCH  37  38
HETATM   38  C9  UNL     1      25.597  -9.260 -16.220  1.00  0.00     0.001 C
HETATM   39  C10 UNL     1      26.835  -8.320 -16.078  1.00  0.00     0.013 C
HETATM   40  C11 UNL     1      24.780  -8.517 -17.244  1.00  0.00     0.013 C
ENDBRANCH  37  38
ENDBRANCH   5  37
BRANCH  11  41
HETATM   41  O3  UNL     1      23.053  -8.814 -13.705  1.00  0.00    -0.345 OA
ATOM     42  H3  UNL     1      23.461  -8.131 -13.188  1.00  0.00     0.219 HD
ENDBRANCH  11  41
BRANCH   4  43
HETATM   43  O1  UNL     1      25.414 -12.367 -18.943  1.00  0.00    -0.346 OA
ATOM     44  H1  UNL     1      26.289 -12.432 -18.577  1.00  0.00     0.219 HD
ENDBRANCH   4  43
BRANCH  13  45
HETATM   45  C21 UNL     1      21.702 -11.991 -10.823  1.00  0.00     0.002 C
HETATM   46  C22 UNL     1      20.312 -11.887 -10.281  1.00  0.00     0.013 C
HETATM   47  C23 UNL     1      22.406 -13.074  -9.975  1.00  0.00     0.013 C
ENDBRANCH  13  45
BRANCH   1  48
HETATM   48  C3  UNL     1      21.868 -11.043 -20.304  1.00  0.00     0.013 C
HETATM   49  C4  UNL     1      22.226  -9.663 -20.787  1.00  0.00     0.012 C
BRANCH  48  50
HETATM   50  C2  UNL     1      22.597 -12.063 -21.106  1.00  0.00     0.002 C
HETATM   51  C1  UNL     1      22.644 -11.597 -22.573  1.00  0.00     0.005 C
ENDBRANCH  48  50
ENDBRANCH   1  48
BRANCH  16  52
HETATM   52  O4  UNL     1      20.711  -7.043 -12.905  1.00  0.00    -0.348 OA
ATOM     53  H4  UNL     1      20.211  -6.823 -13.683  1.00  0.00     0.219 HD
ENDBRANCH  16  52
BRANCH  17  54
HETATM   54  C27 UNL     1      18.496  -7.910 -13.918  1.00  0.00     0.037 C
BRANCH  54  55
HETATM   55  C28 UNL     1      17.040  -8.227 -13.745  1.00  0.00    -0.020 C
HETATM   56  C29 UNL     1      16.431  -7.427 -12.606  1.00  0.00     0.009 C
HETATM   57  C30 UNL     1      16.325  -7.843 -15.051  1.00  0.00     0.009 C
ENDBRANCH  54  55
ENDBRANCH  17  54
BRANCH  20  58
HETATM   58  O5  UNL     1      18.434 -11.189 -15.754  1.00  0.00    -0.348 OA
ATOM     59  H5  UNL     1      17.834 -11.066 -16.481  1.00  0.00     0.219 HD
ENDBRANCH  20  58
TORSDOF 15
ENDMDL