MODEL 1
REMARK VINA RESULT: -6.288845953      0.000      0.000
REMARK  15 active torsions:
REMARK  status: ('A' for Active; 'I' for Inactive)
REMARK    1  A    between atoms: C2_2  and  C3_3
REMARK    2  A    between atoms: C3_3  and  C4_4
REMARK    3  A    between atoms: C4_4  and  C5_5
REMARK    4  A    between atoms: C7_10  and  C8_11
REMARK    5  A    between atoms: C8_11  and  C9_12
REMARK    6  A    between atoms: C9_12  and  C10_13
REMARK    7  A    between atoms: C13_19  and  C14_20
REMARK    8  A    between atoms: C14_20  and  C15_21
REMARK    9  A    between atoms: C18_26  and  O3_27
REMARK   10  A    between atoms: C19_29  and  C20_30
REMARK   11  A    between atoms: C20_30  and  C21_31
REMARK   12  A    between atoms: C24_36  and  O4_37
REMARK   13  A    between atoms: C25_39  and  C26_40
REMARK   14  A    between atoms: C30_47  and  C31_48
REMARK   15  A    between atoms: C34_53  and  O6_54
ROOT
HETATM    1  C5  UNL     1      19.247  -7.316 -12.822  1.00  0.00     0.177 C
HETATM    2  N1  UNL     1      19.357  -8.737 -13.022  1.00  0.00    -0.346 N
ATOM      3  H1  UNL     1      19.058  -9.285 -12.215  1.00  0.00     0.163 HD
HETATM    4  C6  UNL     1      19.786  -9.511 -14.089  1.00  0.00     0.241 C
HETATM    5  O1  UNL     1      20.921 -10.114 -13.966  1.00  0.00    -0.271 OA
HETATM    6  C7  UNL     1      19.129  -9.770 -15.397  1.00  0.00     0.176 C
HETATM    7  N2  UNL     1      20.043  -9.771 -16.506  1.00  0.00    -0.346 N
ATOM      8  H2  UNL     1      20.406  -8.849 -16.753  1.00  0.00     0.163 HD
HETATM    9  C12 UNL     1      20.526 -10.820 -17.310  1.00  0.00     0.241 C
HETATM   10  O2  UNL     1      20.309 -10.719 -18.566  1.00  0.00    -0.271 OA
HETATM   11  C13 UNL     1      21.263 -12.032 -16.924  1.00  0.00     0.175 C
HETATM   12  N3  UNL     1      22.705 -11.828 -17.218  1.00  0.00    -0.359 N
ATOM     13  H3  UNL     1      22.950 -11.871 -18.207  1.00  0.00     0.162 HD
HETATM   14  C18 UNL     1      23.771 -11.588 -16.367  1.00  0.00     0.135 C
HETATM   15  C19 UNL     1      24.392 -12.409 -15.300  1.00  0.00     0.158 C
HETATM   16  N4  UNL     1      23.692 -12.420 -14.041  1.00  0.00    -0.357 N
ATOM     17  H4  UNL     1      22.755 -12.813 -14.126  1.00  0.00     0.162 HD
HETATM   18  C24 UNL     1      23.971 -12.036 -12.766  1.00  0.00     0.160 C
HETATM   19  C25 UNL     1      25.146 -11.569 -12.016  1.00  0.00     0.066 C
HETATM   20  N5  UNL     1      24.823 -11.034 -10.709  1.00  0.00    -0.325 N
ATOM     21  H5  UNL     1      24.471 -11.753 -10.077  1.00  0.00     0.169 HD
HETATM   22  C29 UNL     1      24.874  -9.794 -10.109  1.00  0.00     0.245 C
HETATM   23  O5  UNL     1      25.580  -9.609  -9.074  1.00  0.00    -0.271 OA
HETATM   24  C30 UNL     1      24.201  -8.480 -10.450  1.00  0.00     0.181 C
HETATM   25  N6  UNL     1      22.947  -8.717 -11.118  1.00  0.00    -0.343 N
ATOM     26  H6  UNL     1      23.055  -8.979 -12.098  1.00  0.00     0.164 HD
HETATM   27  C34 UNL     1      21.612  -8.663 -10.706  1.00  0.00     0.220 C
HETATM   28  N7  UNL     1      20.655  -7.629 -10.662  1.00  0.00    -0.291 N
ATOM     29  H7  UNL     1      20.305  -7.423  -9.727  1.00  0.00     0.172 HD
HETATM   30  C35 UNL     1      20.101  -6.838 -11.668  1.00  0.00     0.247 C
HETATM   31  O7  UNL     1      20.300  -5.573 -11.665  1.00  0.00    -0.271 OA
ENDROOT
BRANCH   1  32
HETATM   32  C4  UNL     1      17.847  -6.864 -12.442  1.00  0.00     0.035 C
BRANCH  32  33
HETATM   33  C3  UNL     1      16.916  -8.002 -12.156  1.00  0.00     0.002 C
BRANCH  33  34
HETATM   34  C2  UNL     1      15.483  -7.541 -12.000  1.00  0.00    -0.004 C
HETATM   35  C1  UNL     1      14.568  -8.680 -11.616  1.00  0.00     0.005 C
ENDBRANCH  33  34
ENDBRANCH  32  33
ENDBRANCH   1  32
BRANCH   6  36
HETATM   36  C8  UNL     1      18.022  -8.718 -15.624  1.00  0.00     0.035 C
BRANCH  36  37
HETATM   37  C9  UNL     1      16.677  -9.407 -15.657  1.00  0.00     0.002 C
BRANCH  37  38
HETATM   38  C10 UNL     1      15.540  -8.434 -15.713  1.00  0.00    -0.004 C
HETATM   39  C11 UNL     1      14.246  -9.006 -15.210  1.00  0.00     0.005 C
ENDBRANCH  37  38
ENDBRANCH  36  37
ENDBRANCH   6  36
BRANCH  27  40
HETATM   40  O6  UNL     1      21.129  -9.801 -10.267  1.00  0.00    -0.332 OA
ATOM     41  H6  UNL     1      21.735 -10.311  -9.742  1.00  0.00     0.220 HD
ENDBRANCH  27  40
BRANCH  24  42
HETATM   42  C31 UNL     1      24.086  -7.535  -9.305  1.00  0.00     0.009 C
HETATM   43  C32 UNL     1      25.381  -7.225  -8.599  1.00  0.00     0.012 C
HETATM   44  C33 UNL     1      23.579  -6.166  -9.792  1.00  0.00     0.012 C
ENDBRANCH  24  42
BRANCH  11  45
HETATM   45  C14 UNL     1      20.795 -13.258 -17.639  1.00  0.00     0.038 C
BRANCH  45  46
HETATM   46  C15 UNL     1      21.754 -14.067 -18.410  1.00  0.00    -0.020 C
HETATM   47  C16 UNL     1      22.010 -15.475 -18.051  1.00  0.00     0.009 C
HETATM   48  C17 UNL     1      21.497 -13.897 -19.910  1.00  0.00     0.009 C
ENDBRANCH  45  46
ENDBRANCH  11  45
BRANCH  14  49
HETATM   49  O3  UNL     1      24.363 -10.432 -16.509  1.00  0.00    -0.348 OA
ATOM     50  H3  UNL     1      24.477  -9.926 -15.713  1.00  0.00     0.219 HD
ENDBRANCH  14  49
BRANCH  19  51
HETATM   51  C26 UNL     1      26.248 -10.905 -12.728  1.00  0.00     0.032 C
HETATM   52  C27 UNL     1      27.041 -11.669 -13.721  1.00  0.00     0.016 C
HETATM   53  C28 UNL     1      25.619  -9.745 -13.529  1.00  0.00     0.016 C
ENDBRANCH  19  51
BRANCH  15  54
HETATM   54  C20 UNL     1      24.513 -13.892 -15.757  1.00  0.00     0.037 C
BRANCH  54  55
HETATM   55  C21 UNL     1      24.618 -14.804 -14.574  1.00  0.00    -0.020 C
HETATM   56  C22 UNL     1      26.033 -15.233 -14.371  1.00  0.00     0.009 C
HETATM   57  C23 UNL     1      23.690 -15.982 -14.804  1.00  0.00     0.009 C
ENDBRANCH  54  55
ENDBRANCH  15  54
BRANCH  18  58
HETATM   58  O4  UNL     1      22.927 -12.091 -11.973  1.00  0.00    -0.345 OA
ATOM     59  H4  UNL     1      22.981 -11.482 -11.245  1.00  0.00     0.219 HD
ENDBRANCH  18  58
TORSDOF 15
ENDMDL