MODEL 2
REMARK VINA RESULT: -6.663683959      1.043      1.234
REMARK  15 active torsions:
REMARK  status: ('A' for Active; 'I' for Inactive)
REMARK    1  A    between atoms: C2_2  and  C3_3
REMARK    2  A    between atoms: C3_3  and  C5_5
REMARK    3  A    between atoms: C6_8  and  O1_9
REMARK    4  A    between atoms: C7_11  and  C8_12
REMARK    5  A    between atoms: C8_12  and  C9_13
REMARK    6  A    between atoms: C13_20  and  C14_21
REMARK    7  A    between atoms: C14_21  and  C15_22
REMARK    8  A    between atoms: C19_29  and  C20_30
REMARK    9  A    between atoms: C20_30  and  C21_31
REMARK   10  A    between atoms: C25_38  and  C26_39
REMARK   11  A    between atoms: C26_39  and  C27_40
REMARK   12  A    between atoms: C27_40  and  C28_41
REMARK   13  A    between atoms: C28_41  and  C29_42
REMARK   14  A    between atoms: C29_42  and  N5_43
REMARK   15  A    between atoms: C31_51  and  C32_52
ROOT
HETATM    1  C5  UNL     1      23.764  -7.990 -10.718  1.00  0.00     0.179 C
HETATM    2  N1  UNL     1      22.781  -7.587 -11.641  1.00  0.00    -0.356 N
ATOM      3  H1  UNL     1      23.203  -7.316 -12.528  1.00  0.00     0.162 HD
HETATM    4  C6  UNL     1      21.408  -7.454 -11.686  1.00  0.00     0.159 C
HETATM    5  C7  UNL     1      20.276  -8.133 -11.040  1.00  0.00     0.063 C
HETATM    6  N2  UNL     1      19.508  -9.042 -11.815  1.00  0.00    -0.325 N
ATOM      7  H2  UNL     1      18.621  -9.259 -11.361  1.00  0.00     0.169 HD
HETATM    8  C12 UNL     1      19.633  -9.711 -13.014  1.00  0.00     0.244 C
HETATM    9  O2  UNL     1      19.936 -10.963 -12.932  1.00  0.00    -0.271 OA
HETATM   10  C13 UNL     1      19.482  -9.283 -14.449  1.00  0.00     0.177 C
HETATM   11  N3  UNL     1      20.704  -9.009 -15.128  1.00  0.00    -0.346 N
ATOM     12  H3  UNL     1      21.155  -8.131 -14.870  1.00  0.00     0.163 HD
HETATM   13  C18 UNL     1      21.387  -9.772 -16.107  1.00  0.00     0.241 C
HETATM   14  O3  UNL     1      21.722  -9.193 -17.203  1.00  0.00    -0.271 OA
HETATM   15  C19 UNL     1      21.796 -11.184 -16.061  1.00  0.00     0.177 C
HETATM   16  N4  UNL     1      23.286 -11.092 -16.139  1.00  0.00    -0.346 N
ATOM     17  H4  UNL     1      23.683 -10.930 -17.065  1.00  0.00     0.163 HD
HETATM   18  C24 UNL     1      24.188 -11.202 -15.094  1.00  0.00     0.241 C
HETATM   19  O4  UNL     1      25.027 -10.227 -14.931  1.00  0.00    -0.271 OA
HETATM   20  C25 UNL     1      24.347 -12.295 -14.108  1.00  0.00     0.177 C
HETATM   21  N6  UNL     1      23.473 -12.216 -12.978  1.00  0.00    -0.343 N
ATOM     22  H6  UNL     1      22.562 -12.664 -13.069  1.00  0.00     0.163 HD
HETATM   23  C30 UNL     1      23.755 -11.569 -11.735  1.00  0.00     0.265 C
HETATM   24  O5  UNL     1      22.711 -11.274 -11.094  1.00  0.00    -0.266 OA
HETATM   25  C31 UNL     1      25.060 -11.248 -11.188  1.00  0.00     0.083 C
HETATM   26  N7  UNL     1      25.506  -9.878 -11.289  1.00  0.00    -0.324 N
ATOM     27  H7  UNL     1      26.516  -9.780 -11.185  1.00  0.00     0.169 HD
HETATM   28  C35 UNL     1      24.877  -8.689 -11.493  1.00  0.00     0.245 C
HETATM   29  O6  UNL     1      25.221  -7.957 -12.493  1.00  0.00    -0.271 OA
ENDROOT
BRANCH  20  30
HETATM   30  C26 UNL     1      24.183 -13.677 -14.766  1.00  0.00     0.035 C
BRANCH  30  31
HETATM   31  C27 UNL     1      23.275 -14.550 -13.930  1.00  0.00     0.004 C
BRANCH  31  32
HETATM   32  C28 UNL     1      23.561 -15.986 -14.347  1.00  0.00     0.027 C
BRANCH  32  33
HETATM   33  C29 UNL     1      24.064 -16.046 -15.775  1.00  0.00     0.229 C
BRANCH  33  34
HETATM   34  N5  UNL     1      23.253 -16.939 -16.572  1.00  0.00    -0.079 N
ATOM     35  H53 UNL     1      23.372 -16.765 -17.570  1.00  0.00     0.274 HD
ATOM     36  H52 UNL     1      23.604 -17.896 -16.539  1.00  0.00     0.274 HD
ATOM     37  H51 UNL     1      22.273 -16.887 -16.296  1.00  0.00     0.274 HD
ENDBRANCH  33  34
ENDBRANCH  32  33
ENDBRANCH  31  32
ENDBRANCH  30  31
ENDBRANCH  20  30
BRANCH  15  38
HETATM   38  C20 UNL     1      21.435 -12.052 -17.204  1.00  0.00     0.038 C
BRANCH  38  39
HETATM   39  C21 UNL     1      21.718 -13.482 -17.225  1.00  0.00    -0.020 C
HETATM   40  C22 UNL     1      22.078 -14.031 -18.556  1.00  0.00     0.009 C
HETATM   41  C23 UNL     1      20.656 -14.324 -16.524  1.00  0.00     0.009 C
ENDBRANCH  38  39
ENDBRANCH  15  38
BRANCH  25  42
HETATM   42  C32 UNL     1      25.372 -11.860  -9.836  1.00  0.00     0.033 C
HETATM   43  C33 UNL     1      25.707 -13.288  -9.795  1.00  0.00     0.016 C
HETATM   44  C34 UNL     1      26.514 -11.078  -9.163  1.00  0.00     0.016 C
ENDBRANCH  25  42
BRANCH  10  45
HETATM   45  C14 UNL     1      18.429  -8.243 -14.613  1.00  0.00     0.038 C
BRANCH  45  46
HETATM   46  C15 UNL     1      17.019  -8.577 -14.394  1.00  0.00    -0.020 C
HETATM   47  C16 UNL     1      16.552  -7.616 -13.244  1.00  0.00     0.009 C
HETATM   48  C17 UNL     1      16.078  -8.123 -15.528  1.00  0.00     0.009 C
ENDBRANCH  45  46
ENDBRANCH  10  45
BRANCH   1  49
HETATM   49  C3  UNL     1      24.504  -6.941  -9.923  1.00  0.00     0.013 C
HETATM   50  C4  UNL     1      24.911  -7.624  -8.567  1.00  0.00     0.012 C
BRANCH  49  51
HETATM   51  C2  UNL     1      23.829  -5.714  -9.501  1.00  0.00     0.002 C
HETATM   52  C1  UNL     1      24.723  -4.574  -9.189  1.00  0.00     0.005 C
ENDBRANCH  49  51
ENDBRANCH   1  49
BRANCH   4  53
HETATM   53  O1  UNL     1      21.015  -6.500 -12.489  1.00  0.00    -0.345 OA
ATOM     54  H1  UNL     1      21.302  -6.628 -13.385  1.00  0.00     0.219 HD
ENDBRANCH   4  53
BRANCH   5  55
HETATM   55  C8  UNL     1      20.517  -8.487  -9.622  1.00  0.00     0.065 C
BRANCH  55  56
HETATM   56  C9  UNL     1      19.552  -8.050  -8.590  1.00  0.00    -0.017 C
HETATM   57  C10 UNL     1      18.741  -6.821  -8.819  1.00  0.00     0.010 C
HETATM   58  C11 UNL     1      18.560  -9.171  -8.259  1.00  0.00     0.010 C
ENDBRANCH  55  56
ENDBRANCH   5  55
TORSDOF 15
ENDMDL