MODEL 4
REMARK VINA RESULT: -7.360770944     10.018     15.900
REMARK  15 active torsions:
REMARK  status: ('A' for Active; 'I' for Inactive)
REMARK    1  A    between atoms: C2_2  and  C3_3
REMARK    2  A    between atoms: C3_3  and  C4_4
REMARK    3  A    between atoms: C6_9  and  C7_10
REMARK    4  A    between atoms: C7_10  and  C8_11
REMARK    5  A    between atoms: C11_16  and  O2_17
REMARK    6  A    between atoms: C12_19  and  C13_20
REMARK    7  A    between atoms: C17_27  and  C18_28
REMARK    8  A    between atoms: C18_28  and  C19_29
REMARK    9  A    between atoms: C22_34  and  O4_35
REMARK   10  A    between atoms: C23_37  and  C24_38
REMARK   11  A    between atoms: C29_45  and  C30_46
REMARK   12  A    between atoms: C30_46  and  C31_47
REMARK   13  A    between atoms: C31_47  and  C32_48
REMARK   14  A    between atoms: C32_48  and  N6_49
REMARK   15  A    between atoms: C34_56  and  O6_57
ROOT
HETATM    1  C4  UNL     1      20.572  -8.834 -10.783  1.00  0.00     0.159 C
HETATM    2  N1  UNL     1      21.441  -7.786 -11.205  1.00  0.00    -0.347 N
ATOM      3  H1  UNL     1      21.096  -7.226 -11.984  1.00  0.00     0.163 HD
HETATM    4  C5  UNL     1      22.711  -7.406 -10.706  1.00  0.00     0.241 C
HETATM    5  O1  UNL     1      22.898  -6.180 -10.440  1.00  0.00    -0.271 OA
HETATM    6  C6  UNL     1      23.870  -8.291 -10.457  1.00  0.00     0.175 C
HETATM    7  N2  UNL     1      24.933  -7.761 -11.341  1.00  0.00    -0.359 N
ATOM      8  H2  UNL     1      25.080  -6.753 -11.287  1.00  0.00     0.162 HD
HETATM    9  C11 UNL     1      25.753  -8.424 -12.224  1.00  0.00     0.135 C
HETATM   10  C12 UNL     1      25.771  -9.827 -12.668  1.00  0.00     0.162 C
HETATM   11  N3  UNL     1      24.619 -10.151 -13.488  1.00  0.00    -0.347 N
ATOM     12  H3  UNL     1      23.731  -9.748 -13.189  1.00  0.00     0.163 HD
HETATM   13  C16 UNL     1      24.576 -10.947 -14.634  1.00  0.00     0.241 C
HETATM   14  O3  UNL     1      23.736 -11.924 -14.594  1.00  0.00    -0.271 OA
HETATM   15  C17 UNL     1      25.328 -10.865 -15.892  1.00  0.00     0.175 C
HETATM   16  N4  UNL     1      24.459 -11.291 -16.998  1.00  0.00    -0.359 N
ATOM     17  H4  UNL     1      24.933 -11.690 -17.809  1.00  0.00     0.162 HD
HETATM   18  C22 UNL     1      23.071 -11.218 -17.080  1.00  0.00     0.136 C
HETATM   19  C23 UNL     1      22.130 -10.129 -16.803  1.00  0.00     0.164 C
HETATM   20  N5  UNL     1      20.790 -10.628 -16.551  1.00  0.00    -0.342 N
HETATM   21  C27 UNL     1      19.946 -11.152 -17.643  1.00  0.00     0.153 C
HETATM   22  C28 UNL     1      20.149 -10.684 -15.291  1.00  0.00     0.243 C
HETATM   23  O5  UNL     1      19.455 -11.719 -14.953  1.00  0.00    -0.271 OA
HETATM   24  C29 UNL     1      20.166  -9.635 -14.224  1.00  0.00     0.175 C
HETATM   25  N9  UNL     1      20.712 -10.207 -12.998  1.00  0.00    -0.359 N
ATOM     26  H9  UNL     1      21.438 -10.904 -13.169  1.00  0.00     0.162 HD
HETATM   27  C34 UNL     1      20.456 -10.006 -11.657  1.00  0.00     0.135 C
ENDROOT
BRANCH  24  28
HETATM   28  C30 UNL     1      18.729  -9.215 -14.069  1.00  0.00     0.036 C
BRANCH  28  29
HETATM   29  C31 UNL     1      18.480  -7.762 -13.954  1.00  0.00     0.022 C
BRANCH  29  30
HETATM   30  C32 UNL     1      17.095  -7.621 -13.293  1.00  0.00     0.122 C
BRANCH  30  31
HETATM   31  N6  UNL     1      16.186  -8.624 -13.766  1.00  0.00    -0.367 N
HETATM   32  C33 UNL     1      15.440  -8.425 -14.785  1.00  0.00     0.196 C
HETATM   33  N7  UNL     1      15.459  -7.205 -15.513  1.00  0.00    -0.067 NA
HETATM   34  N8  UNL     1      14.554  -9.448 -15.220  1.00  0.00    -0.067 NA
ATOM     35  H6  UNL     1      16.134  -9.518 -13.278  1.00  0.00     0.161 HD
ENDBRANCH  30  31
ENDBRANCH  29  30
ENDBRANCH  28  29
ENDBRANCH  24  28
BRANCH  27  36
HETATM   36  O6  UNL     1      20.028 -11.069 -11.032  1.00  0.00    -0.348 OA
ATOM     37  H6  UNL     1      20.662 -11.776 -11.025  1.00  0.00     0.219 HD
ENDBRANCH  27  36
BRANCH  19  38
HETATM   38  C24 UNL     1      22.161  -9.017 -17.799  1.00  0.00     0.008 C
HETATM   39  C25 UNL     1      23.160  -7.924 -17.520  1.00  0.00     0.012 C
HETATM   40  C26 UNL     1      22.393  -9.541 -19.226  1.00  0.00     0.012 C
ENDBRANCH  19  38
BRANCH   1  41
HETATM   41  C3  UNL     1      19.272  -8.197 -10.340  1.00  0.00     0.033 C
BRANCH  41  42
HETATM   42  C2  UNL     1      19.195  -7.924  -8.867  1.00  0.00    -0.002 C
HETATM   43  C1  UNL     1      18.459  -9.124  -8.254  1.00  0.00     0.005 C
ENDBRANCH  41  42
ENDBRANCH   1  41
BRANCH  18  44
HETATM   44  O4  UNL     1      22.508 -12.320 -17.479  1.00  0.00    -0.348 OA
ATOM     45  H4  UNL     1      21.989 -12.223 -18.269  1.00  0.00     0.219 HD
ENDBRANCH  18  44
BRANCH  15  46
HETATM   46  C18 UNL     1      25.903  -9.534 -16.238  1.00  0.00     0.038 C
BRANCH  46  47
HETATM   47  C19 UNL     1      27.396  -9.422 -16.263  1.00  0.00    -0.020 C
HETATM   48  C20 UNL     1      27.850  -7.971 -16.122  1.00  0.00     0.009 C
HETATM   49  C21 UNL     1      28.197 -10.239 -15.346  1.00  0.00     0.009 C
ENDBRANCH  46  47
ENDBRANCH  15  46
BRANCH   6  50
HETATM   50  C7  UNL     1      24.432  -8.183  -9.105  1.00  0.00     0.038 C
BRANCH  50  51
HETATM   51  C8  UNL     1      25.843  -7.921  -8.829  1.00  0.00    -0.020 C
HETATM   52  C9  UNL     1      26.663  -9.070  -8.382  1.00  0.00     0.009 C
HETATM   53  C10 UNL     1      26.060  -6.730  -7.943  1.00  0.00     0.009 C
ENDBRANCH  50  51
ENDBRANCH   6  50
BRANCH   9  54
HETATM   54  O2  UNL     1      26.681  -7.698 -12.775  1.00  0.00    -0.348 OA
ATOM     55  H2  UNL     1      27.573  -7.967 -12.584  1.00  0.00     0.219 HD
ENDBRANCH   9  54
BRANCH  10  56
HETATM   56  C13 UNL     1      25.989 -10.846 -11.587  1.00  0.00     0.008 C
HETATM   57  C14 UNL     1      26.901 -11.975 -12.099  1.00  0.00     0.012 C
HETATM   58  C15 UNL     1      24.672 -11.519 -11.254  1.00  0.00     0.012 C
ENDBRANCH  10  56
TORSDOF 15
ENDMDL