MODEL 3
REMARK VINA RESULT: -9.992256717      2.290     10.726
REMARK  16 active torsions:
REMARK  status: ('A' for Active; 'I' for Inactive)
REMARK    1  A    between atoms: N1_1  and  N2_4
REMARK    2  A    between atoms: N2_4  and  C1_5
REMARK    3  A    between atoms: N2_4  and  C28_45
REMARK    4  A    between atoms: N2_4  and  C30_49
REMARK    5  A    between atoms: C1_5  and  C2_6
REMARK    6  A    between atoms: C3_7  and  C4_8
REMARK    7  A    between atoms: C4_8  and  C5_9
REMARK    8  A    between atoms: C5_9  and  C6_10
REMARK    9  A    between atoms: C6_10  and  C7_11
REMARK   10  A    between atoms: C7_11  and  N3_12
REMARK   11  A    between atoms: C10_15  and  C11_16
REMARK   12  A    between atoms: C14_19  and  N4_20
REMARK   13  A    between atoms: C20_29  and  C21_30
REMARK   14  A    between atoms: C28_45  and  C29_46
REMARK   15  A    between atoms: C30_49  and  C31_50
REMARK   16  A    between atoms: C35_54  and  O6_55
ROOT
HETATM    1  N3  UNL     1      13.823  -7.039  -5.640  1.00  0.00    -0.365 N
HETATM    2  C8  UNL     1      12.759  -7.128  -6.449  1.00  0.00     0.091 A
HETATM    3  C9  UNL     1      12.924  -7.279  -7.810  1.00  0.00     0.030 A
HETATM    4  C10 UNL     1      14.179  -7.346  -8.393  1.00  0.00    -0.011 A
HETATM    5  C20 UNL     1      15.264  -7.255  -7.551  1.00  0.00     0.017 A
HETATM    6  C27 UNL     1      15.047  -7.102  -6.175  1.00  0.00     0.105 A
ENDROOT
BRANCH   1   7
HETATM    7  C7  UNL     1      13.705  -6.870  -4.203  1.00  0.00     0.128 C
BRANCH   7   8
HETATM    8  C6  UNL     1      13.168  -8.069  -3.525  1.00  0.00     0.021 C
BRANCH   8   9
HETATM    9  C5  UNL     1      11.990  -7.939  -2.664  1.00  0.00     0.014 C
BRANCH   9  10
HETATM   10  C4  UNL     1      10.974  -6.911  -2.898  1.00  0.00     0.094 C
BRANCH  10  11
HETATM   11  C3  UNL     1       9.852  -7.283  -3.742  1.00  0.00    -0.105 C
HETATM   12  C2  UNL     1       8.929  -7.616  -4.476  1.00  0.00    -0.076 C
BRANCH  12  13
HETATM   13  C1  UNL     1       7.815  -8.024  -5.334  1.00  0.00     0.358 C
BRANCH  13  14
HETATM   14  N2  UNL     1       8.131  -7.864  -6.750  1.00  0.00     0.030 N
BRANCH  14  15
HETATM   15  N1  UNL     1       9.008  -6.785  -6.837  1.00  0.00    -0.260 N
ATOM     16  H12 UNL     1       9.017  -5.968  -6.226  1.00  0.00     0.183 HD
ATOM     17  H11 UNL     1       9.627  -6.982  -7.624  1.00  0.00     0.183 HD
ENDBRANCH  14  15
BRANCH  14  18
HETATM   18  C28 UNL     1       6.924  -7.558  -7.468  1.00  0.00     0.378 C
BRANCH  18  19
HETATM   19  C29 UNL     1       6.062  -6.528  -6.930  1.00  0.00     0.202 C
HETATM   20  O4  UNL     1       4.866  -6.854  -6.623  1.00  0.00    -0.647 OA
HETATM   21  O5  UNL     1       6.425  -5.231  -6.723  1.00  0.00    -0.647 OA
ENDBRANCH  18  19
ENDBRANCH  14  18
BRANCH  14  22
HETATM   22  C30 UNL     1       8.751  -9.091  -7.239  1.00  0.00     0.304 C
BRANCH  22  23
HETATM   23  C31 UNL     1       9.068  -9.009  -8.699  1.00  0.00    -0.028 A
HETATM   24  C32 UNL     1      10.347  -8.698  -9.067  1.00  0.00     0.009 A
HETATM   25  C33 UNL     1      10.668  -8.622 -10.398  1.00  0.00     0.003 A
HETATM   26  C34 UNL     1       9.733  -8.852 -11.385  1.00  0.00     0.036 A
HETATM   27  C35 UNL     1       8.441  -9.166 -10.985  1.00  0.00     0.066 A
HETATM   28  C36 UNL     1       8.120  -9.242  -9.659  1.00  0.00     0.045 A
BRANCH  27  29
HETATM   29  O6  UNL     1       7.504  -9.396 -12.006  1.00  0.00    -0.361 OA
ATOM     30  H6  UNL     1       6.588  -9.321 -11.768  1.00  0.00     0.217 HD
ENDBRANCH  27  29
ENDBRANCH  22  23
ENDBRANCH  14  22
ENDBRANCH  13  14
ENDBRANCH  12  13
ENDBRANCH  10  11
ENDBRANCH   9  10
ENDBRANCH   8   9
ENDBRANCH   7   8
ENDBRANCH   1   7
BRANCH   5  31
HETATM   31  C21 UNL     1      16.589  -7.323  -8.134  1.00  0.00     0.047 A
HETATM   32  C22 UNL     1      17.392  -8.401  -8.395  1.00  0.00     0.051 A
HETATM   33  C23 UNL     1      18.581  -8.002  -8.957  1.00  0.00     0.078 A
HETATM   34  C24 UNL     1      19.726  -8.622  -9.409  1.00  0.00     0.263 A
HETATM   35  C26 UNL     1      18.497  -6.629  -9.042  1.00  0.00     0.125 A
HETATM   36  O2  UNL     1      19.845  -9.877  -9.349  1.00  0.00    -0.267 OA
HETATM   37  N6  UNL     1      20.763  -7.933  -9.930  1.00  0.00    -0.275 N
HETATM   38  C25 UNL     1      20.658  -6.588 -10.004  1.00  0.00     0.328 A
ATOM     39  H6  UNL     1      21.601  -8.414 -10.258  1.00  0.00     0.173 HD
HETATM   40  O3  UNL     1      21.638  -5.966 -10.495  1.00  0.00    -0.247 OA
HETATM   41  N7  UNL     1      19.552  -5.975  -9.569  1.00  0.00    -0.293 N
ATOM     42  H7  UNL     1      19.504  -4.959  -9.639  1.00  0.00     0.172 HD
HETATM   43  N8  UNL     1      17.299  -6.228  -8.547  1.00  0.00    -0.341 N
ATOM     44  H8  UNL     1      16.977  -5.261  -8.492  1.00  0.00     0.167 HD
ENDBRANCH   5  31
BRANCH   4  45
HETATM   45  C11 UNL     1      14.312  -7.501  -9.827  1.00  0.00    -0.025 A
HETATM   46  C12 UNL     1      14.281  -6.480 -10.723  1.00  0.00     0.014 A
HETATM   47  C13 UNL     1      14.423  -6.721 -12.072  1.00  0.00     0.030 A
HETATM   48  C14 UNL     1      14.600  -7.987 -12.602  1.00  0.00     0.038 A
HETATM   49  C18 UNL     1      14.631  -9.024 -11.681  1.00  0.00     0.030 A
HETATM   50  C19 UNL     1      14.491  -8.792 -10.332  1.00  0.00     0.014 A
BRANCH  48  51
HETATM   51  N4  UNL     1      14.747  -8.210 -13.995  1.00  0.00    -0.298 N
HETATM   52  C15 UNL     1      13.763  -8.817 -14.868  1.00  0.00     0.153 C
HETATM   53  C16 UNL     1      14.623  -9.476 -15.954  1.00  0.00     0.144 C
HETATM   54  N5  UNL     1      15.680  -8.506 -16.104  1.00  0.00    -0.341 N
HETATM   55  C17 UNL     1      15.854  -7.902 -14.831  1.00  0.00     0.323 C
ATOM     56  H5  UNL     1      16.199  -8.296 -16.956  1.00  0.00     0.164 HD
HETATM   57  O1  UNL     1      16.833  -7.183 -14.447  1.00  0.00    -0.247 OA
ENDBRANCH  48  51
ENDBRANCH   4  45
TORSDOF 16
ENDMDL