MODEL 3
REMARK VINA RESULT: -5.259039720      1.067      1.156
REMARK  16 active torsions:
REMARK  status: ('A' for Active; 'I' for Inactive)
REMARK    1  A    between atoms: C2_2  and  C3_3
REMARK    2  A    between atoms: C3_3  and  C4_4
REMARK    3  A    between atoms: C6_9  and  C7_10
REMARK    4  A    between atoms: C10_15  and  O2_16
REMARK    5  A    between atoms: C11_18  and  C12_19
REMARK    6  A    between atoms: C12_19  and  C13_20
REMARK    7  A    between atoms: C16_25  and  C17_26
REMARK    8  A    between atoms: C17_26  and  C18_27
REMARK    9  A    between atoms: C18_27  and  C19_28
REMARK   10  A    between atoms: C19_28  and  C20_29
REMARK   11  A    between atoms: C25_37  and  N5_38
REMARK   12  A    between atoms: C30_46  and  C31_47
REMARK   13  A    between atoms: C31_47  and  C32_48
REMARK   14  A    between atoms: C32_48  and  C33_49
REMARK   15  A    between atoms: C33_49  and  C34_50
REMARK   16  A    between atoms: C34_50  and  N7_51
ROOT
HETATM    1  C4  UNL     1      21.301  -9.928 -11.622  1.00  0.00     0.180 C
HETATM    2  N1  UNL     1      21.882 -10.906 -12.539  1.00  0.00    -0.346 N
ATOM      3  H1  UNL     1      22.272 -10.547 -13.411  1.00  0.00     0.163 HD
HETATM    4  C5  UNL     1      21.956 -12.288 -12.334  1.00  0.00     0.241 C
HETATM    5  O1  UNL     1      21.460 -13.054 -13.238  1.00  0.00    -0.271 OA
HETATM    6  C6  UNL     1      22.557 -12.965 -11.170  1.00  0.00     0.179 C
HETATM    7  N2  UNL     1      23.986 -12.801 -11.056  1.00  0.00    -0.359 N
ATOM      8  H2  UNL     1      24.439 -13.530 -10.503  1.00  0.00     0.162 HD
HETATM    9  C10 UNL     1      24.860 -11.853 -11.546  1.00  0.00     0.135 C
HETATM   10  C11 UNL     1      25.329 -11.548 -12.919  1.00  0.00     0.152 C
HETATM   11  N3  UNL     1      25.209 -12.516 -13.907  1.00  0.00    -0.404 N
ATOM     12  H3  UNL     1      25.539 -13.465 -13.730  1.00  0.00     0.154 HD
HETATM   13  C16 UNL     1      24.628 -12.191 -15.165  1.00  0.00     0.095 C
HETATM   14  C23 UNL     1      25.227 -11.035 -15.901  1.00  0.00     0.147 C
HETATM   15  N4  UNL     1      24.783 -11.071 -17.278  1.00  0.00    -0.354 N
ATOM     16  H4  UNL     1      25.095 -11.880 -17.813  1.00  0.00     0.162 HD
HETATM   17  C24 UNL     1      23.988 -10.157 -17.983  1.00  0.00     0.265 C
HETATM   18  O3  UNL     1      24.593  -9.573 -18.966  1.00  0.00    -0.266 OA
HETATM   19  C25 UNL     1      22.611  -9.760 -17.800  1.00  0.00     0.092 C
HETATM   20  C28 UNL     1      21.988  -9.611 -16.431  1.00  0.00     0.185 C
HETATM   21  N6  UNL     1      20.927 -10.573 -16.240  1.00  0.00    -0.354 N
ATOM     22  H6  UNL     1      20.986 -11.437 -16.780  1.00  0.00     0.162 HD
HETATM   23  C29 UNL     1      19.818 -10.438 -15.383  1.00  0.00     0.240 C
HETATM   24  O4  UNL     1      18.880 -11.306 -15.395  1.00  0.00    -0.271 OA
HETATM   25  C30 UNL     1      19.630  -9.326 -14.420  1.00  0.00     0.176 C
HETATM   26  N8  UNL     1      19.221  -9.851 -13.136  1.00  0.00    -0.346 N
ATOM     27  H8  UNL     1      18.350 -10.380 -13.131  1.00  0.00     0.163 HD
HETATM   28  C35 UNL     1      19.863  -9.727 -11.906  1.00  0.00     0.241 C
HETATM   29  O5  UNL     1      19.141  -9.406 -10.899  1.00  0.00    -0.271 OA
ENDROOT
BRANCH  25  30
HETATM   30  C31 UNL     1      18.526  -8.459 -15.020  1.00  0.00     0.035 C
BRANCH  30  31
HETATM   31  C32 UNL     1      17.849  -7.589 -14.017  1.00  0.00     0.004 C
BRANCH  31  32
HETATM   32  C33 UNL     1      16.356  -7.881 -13.917  1.00  0.00     0.027 C
BRANCH  32  33
HETATM   33  C34 UNL     1      15.974  -7.925 -12.431  1.00  0.00     0.229 C
BRANCH  33  34
HETATM   34  N7  UNL     1      17.077  -7.321 -11.668  1.00  0.00    -0.079 N
ATOM     35  H73 UNL     1      16.826  -6.423 -11.253  1.00  0.00     0.274 HD
ATOM     36  H72 UNL     1      17.278  -7.818 -10.800  1.00  0.00     0.274 HD
ATOM     37  H71 UNL     1      17.885  -7.259 -12.287  1.00  0.00     0.274 HD
ENDBRANCH  33  34
ENDBRANCH  32  33
ENDBRANCH  31  32
ENDBRANCH  30  31
ENDBRANCH  25  30
BRANCH   1  38
HETATM   38  C3  UNL     1      22.033  -8.639 -11.621  1.00  0.00     0.061 C
BRANCH  38  39
HETATM   39  C2  UNL     1      23.018  -8.592 -10.503  1.00  0.00    -0.034 C
HETATM   40  C1  UNL     1      22.831  -7.776  -9.474  1.00  0.00     0.007 C
ENDBRANCH  38  39
ENDBRANCH   1  38
BRANCH  19  41
HETATM   41  N5  UNL     1      21.792  -9.503 -18.781  1.00  0.00    -0.387 N
HETATM   42  C26 UNL     1      21.166  -8.210 -18.989  1.00  0.00     0.149 C
HETATM   43  C27 UNL     1      21.489 -10.580 -19.704  1.00  0.00     0.149 C
ENDBRANCH  19  41
BRANCH   6  44
HETATM   44  C7  UNL     1      22.113 -14.403 -11.064  1.00  0.00     0.009 C
HETATM   45  C8  UNL     1      23.141 -15.413 -11.424  1.00  0.00     0.012 C
HETATM   46  C9  UNL     1      21.730 -14.625  -9.597  1.00  0.00     0.012 C
ENDBRANCH   6  44
BRANCH  13  47
HETATM   47  C17 UNL     1      24.434 -13.431 -15.990  1.00  0.00     0.026 C
BRANCH  47  48
HETATM   48  C18 UNL     1      24.337 -14.702 -15.216  1.00  0.00     0.002 C
BRANCH  48  49
HETATM   49  C19 UNL     1      22.888 -15.187 -15.372  1.00  0.00     0.004 C
BRANCH  49  50
HETATM   50  C20 UNL     1      22.334 -14.804 -16.719  1.00  0.00    -0.023 C
HETATM   51  C21 UNL     1      22.201 -16.097 -17.516  1.00  0.00     0.009 C
HETATM   52  C22 UNL     1      20.906 -14.312 -16.498  1.00  0.00     0.009 C
ENDBRANCH  49  50
ENDBRANCH  48  49
ENDBRANCH  47  48
ENDBRANCH  13  47
BRANCH   9  53
HETATM   53  O2  UNL     1      25.409 -11.044 -10.687  1.00  0.00    -0.348 OA
ATOM     54  H2  UNL     1      25.939 -10.334 -11.031  1.00  0.00     0.219 HD
ENDBRANCH   9  53
BRANCH  10  55
HETATM   55  C12 UNL     1      26.809 -11.136 -12.803  1.00  0.00     0.037 C
BRANCH  55  56
HETATM   56  C13 UNL     1      27.757 -12.225 -13.156  1.00  0.00    -0.020 C
HETATM   57  C14 UNL     1      28.730 -11.935 -14.247  1.00  0.00     0.009 C
HETATM   58  C15 UNL     1      28.591 -12.516 -11.899  1.00  0.00     0.009 C
ENDBRANCH  55  56
ENDBRANCH  10  55
TORSDOF 16
ENDMDL