MODEL 3
REMARK VINA RESULT: -6.133145873      2.958      8.300
REMARK  13 active torsions:
REMARK  status: ('A' for Active; 'I' for Inactive)
REMARK    1  A    between atoms: C2_2  and  C3_3
REMARK    2  A    between atoms: C5_8  and  C6_9
REMARK    3  A    between atoms: C6_9  and  C7_10
REMARK    4  A    between atoms: C11_17  and  C12_18
REMARK    5  A    between atoms: C12_18  and  C13_19
REMARK    6  A    between atoms: C17_26  and  C18_27
REMARK    7  A    between atoms: C18_27  and  C19_28
REMARK    8  A    between atoms: C23_35  and  C24_36
REMARK    9  A    between atoms: C24_36  and  C25_37
REMARK   10  A    between atoms: C29_44  and  C30_45
REMARK   11  A    between atoms: C30_45  and  C31_46
REMARK   12  A    between atoms: C31_46  and  C32_47
REMARK   13  A    between atoms: C32_47  and  C34_49
ROOT
HETATM    1  C3  UNL     1      20.609 -11.095 -16.398  1.00  0.00     0.176 C
HETATM    2  N1  UNL     1      21.808 -11.389 -17.170  1.00  0.00    -0.346 N
ATOM      3  H1  UNL     1      21.762 -11.137 -18.157  1.00  0.00     0.163 HD
HETATM    4  C4  UNL     1      23.008 -11.965 -16.758  1.00  0.00     0.241 C
HETATM    5  O1  UNL     1      24.056 -11.263 -16.836  1.00  0.00    -0.271 OA
HETATM    6  C5  UNL     1      23.236 -13.346 -16.222  1.00  0.00     0.177 C
HETATM    7  N2  UNL     1      22.462 -13.613 -15.056  1.00  0.00    -0.346 N
ATOM      8  H2  UNL     1      21.507 -13.910 -15.257  1.00  0.00     0.163 HD
HETATM    9  C10 UNL     1      22.754 -13.550 -13.700  1.00  0.00     0.241 C
HETATM   10  O2  UNL     1      22.208 -14.461 -12.964  1.00  0.00    -0.271 OA
HETATM   11  C11 UNL     1      23.593 -12.598 -12.944  1.00  0.00     0.177 C
HETATM   12  N3  UNL     1      23.181 -11.227 -13.180  1.00  0.00    -0.346 N
ATOM     13  H3  UNL     1      22.372 -11.127 -13.793  1.00  0.00     0.163 HD
HETATM   14  C16 UNL     1      23.699 -10.035 -12.713  1.00  0.00     0.241 C
HETATM   15  O3  UNL     1      24.038  -9.182 -13.632  1.00  0.00    -0.271 OA
HETATM   16  C17 UNL     1      23.943  -9.535 -11.357  1.00  0.00     0.177 C
HETATM   17  N4  UNL     1      23.098  -8.413 -10.997  1.00  0.00    -0.346 N
ATOM     18  H4  UNL     1      23.461  -7.841 -10.234  1.00  0.00     0.163 HD
HETATM   19  C22 UNL     1      21.895  -7.983 -11.501  1.00  0.00     0.241 C
HETATM   20  O4  UNL     1      21.849  -6.781 -11.970  1.00  0.00    -0.271 OA
HETATM   21  C23 UNL     1      20.593  -8.708 -11.595  1.00  0.00     0.177 C
HETATM   22  N5  UNL     1      19.564  -7.952 -12.258  1.00  0.00    -0.346 N
ATOM     23  H5  UNL     1      19.562  -6.950 -12.066  1.00  0.00     0.163 HD
HETATM   24  C28 UNL     1      18.571  -8.397 -13.124  1.00  0.00     0.241 C
HETATM   25  O5  UNL     1      17.345  -8.161 -12.791  1.00  0.00    -0.271 OA
HETATM   26  C29 UNL     1      18.708  -9.120 -14.409  1.00  0.00     0.176 C
HETATM   27  N7  UNL     1      20.037  -9.019 -14.952  1.00  0.00    -0.346 N
ATOM     28  H7  UNL     1      20.672  -8.411 -14.434  1.00  0.00     0.163 HD
HETATM   29  C35 UNL     1      20.582  -9.621 -16.070  1.00  0.00     0.241 C
HETATM   30  O7  UNL     1      21.146  -8.896 -16.970  1.00  0.00    -0.271 OA
ENDROOT
BRANCH  26  31
HETATM   31  C30 UNL     1      17.728  -8.404 -15.362  1.00  0.00     0.035 C
BRANCH  31  32
HETATM   32  C31 UNL     1      16.733  -9.449 -15.801  1.00  0.00     0.015 C
BRANCH  32  33
HETATM   33  C32 UNL     1      15.308  -8.947 -15.695  1.00  0.00     0.071 C
HETATM   34  C33 UNL     1      15.224  -7.456 -15.523  1.00  0.00     0.019 C
BRANCH  33  35
HETATM   35  C34 UNL     1      14.658  -9.624 -14.543  1.00  0.00     0.234 C
HETATM   36  N6  UNL     1      14.079  -8.874 -13.509  1.00  0.00    -0.062 NA
HETATM   37  O6  UNL     1      14.607 -10.892 -14.461  1.00  0.00    -0.277 OA
ENDBRANCH  33  35
ENDBRANCH  32  33
ENDBRANCH  31  32
ENDBRANCH  26  31
BRANCH  21  38
HETATM   38  C24 UNL     1      20.169  -9.313 -10.306  1.00  0.00     0.038 C
BRANCH  38  39
HETATM   39  C25 UNL     1      19.053  -8.655  -9.572  1.00  0.00    -0.020 C
HETATM   40  C26 UNL     1      19.530  -7.305  -8.992  1.00  0.00     0.009 C
HETATM   41  C27 UNL     1      18.660  -9.474  -8.371  1.00  0.00     0.009 C
ENDBRANCH  38  39
ENDBRANCH  21  38
BRANCH   1  42
HETATM   42  C2  UNL     1      19.374 -11.339 -17.271  1.00  0.00     0.030 C
HETATM   43  C1  UNL     1      19.722 -11.740 -18.676  1.00  0.00     0.007 C
ENDBRANCH   1  42
BRANCH  16  44
HETATM   44  C18 UNL     1      23.936 -10.528 -10.258  1.00  0.00     0.038 C
BRANCH  44  45
HETATM   45  C19 UNL     1      25.352 -10.635  -9.671  1.00  0.00    -0.020 C
HETATM   46  C20 UNL     1      25.568 -12.146  -9.478  1.00  0.00     0.009 C
HETATM   47  C21 UNL     1      26.403 -10.171 -10.622  1.00  0.00     0.009 C
ENDBRANCH  44  45
ENDBRANCH  16  44
BRANCH   6  48
HETATM   48  C6  UNL     1      23.029 -14.367 -17.299  1.00  0.00     0.038 C
BRANCH  48  49
HETATM   49  C7  UNL     1      22.554 -15.717 -16.925  1.00  0.00    -0.020 C
HETATM   50  C8  UNL     1      21.775 -16.511 -17.898  1.00  0.00     0.009 C
HETATM   51  C9  UNL     1      23.691 -16.566 -16.339  1.00  0.00     0.009 C
ENDBRANCH  48  49
ENDBRANCH   6  48
BRANCH  11  52
HETATM   52  C12 UNL     1      25.063 -12.811 -12.998  1.00  0.00     0.038 C
BRANCH  52  53
HETATM   53  C13 UNL     1      25.537 -14.213 -13.161  1.00  0.00    -0.020 C
HETATM   54  C14 UNL     1      26.322 -14.451 -14.427  1.00  0.00     0.009 C
HETATM   55  C15 UNL     1      26.248 -14.827 -12.014  1.00  0.00     0.009 C
ENDBRANCH  52  53
ENDBRANCH  11  52
TORSDOF 13
ENDMDL