MODEL 4
REMARK VINA RESULT: -9.900834112      4.814     12.363
REMARK  16 active torsions:
REMARK  status: ('A' for Active; 'I' for Inactive)
REMARK    1  A    between atoms: C1_4  and  C2_6
REMARK    2  A    between atoms: C6_10  and  C7_11
REMARK    3  A    between atoms: C7_11  and  C8_12
REMARK    4  A    between atoms: C11_15  and  N3_16
REMARK    5  A    between atoms: C15_23  and  C16_24
REMARK    6  A    between atoms: C16_24  and  C17_25
REMARK    7  A    between atoms: C17_25  and  C18_26
REMARK    8  A    between atoms: C18_26  and  C19_27
REMARK    9  A    between atoms: C19_27  and  C20_28
REMARK   10  A    between atoms: C20_28  and  C21_29
REMARK   11  A    between atoms: C21_29  and  N6_30
REMARK   12  A    between atoms: N9_35  and  C23_36
REMARK   13  A    between atoms: C23_36  and  C24_37
REMARK   14  A    between atoms: C27_40  and  C28_41
REMARK   15  A    between atoms: C33_46  and  S1_47
REMARK   16  A    between atoms: S1_47  and  N10_48
ROOT
HETATM    1  C2  UNL     1      10.820  -7.540  -4.547  1.00  0.00     0.007 A
HETATM    2  C3  UNL     1      12.125  -7.878  -4.356  1.00  0.00     0.016 A
HETATM    3  C4  UNL     1      12.913  -8.260  -5.429  1.00  0.00     0.015 A
HETATM    4  C5  UNL     1      12.396  -8.307  -6.703  1.00  0.00     0.004 A
HETATM    5  C6  UNL     1      12.919  -8.659  -7.955  1.00  0.00     0.004 A
HETATM    6  C15 UNL     1      11.888  -8.517  -8.883  1.00  0.00     0.050 A
HETATM    7  N9  UNL     1      10.759  -8.085  -8.226  1.00  0.00    -0.320 N
HETATM    8  C36 UNL     1      11.079  -7.971  -6.933  1.00  0.00     0.051 A
HETATM    9  C37 UNL     1      10.317  -7.592  -5.828  1.00  0.00     0.045 A
ENDROOT
BRANCH   7  10
HETATM   10  C23 UNL     1       9.460  -7.759  -8.780  1.00  0.00     0.109 C
BRANCH  10  11
HETATM   11  C24 UNL     1       8.317  -8.464  -8.234  1.00  0.00    -0.020 A
HETATM   12  C25 UNL     1       7.181  -7.787  -7.862  1.00  0.00     0.013 A
HETATM   13  C26 UNL     1       6.059  -8.379  -7.332  1.00  0.00     0.013 A
HETATM   14  C27 UNL     1       6.021  -9.740  -7.140  1.00  0.00    -0.024 A
HETATM   15  C34 UNL     1       7.147 -10.458  -7.500  1.00  0.00     0.013 A
HETATM   16  C35 UNL     1       8.274  -9.823  -8.038  1.00  0.00     0.013 A
BRANCH  14  17
HETATM   17  C28 UNL     1       4.841 -10.396  -6.597  1.00  0.00    -0.003 A
HETATM   18  C29 UNL     1       4.063 -11.130  -7.474  1.00  0.00     0.014 A
HETATM   19  C30 UNL     1       2.942 -11.812  -7.060  1.00  0.00     0.001 A
HETATM   20  C31 UNL     1       2.555 -11.787  -5.738  1.00  0.00     0.002 A
HETATM   21  C32 UNL     1       3.319 -11.060  -4.848  1.00  0.00     0.026 A
HETATM   22  C33 UNL     1       4.457 -10.367  -5.275  1.00  0.00     0.090 A
BRANCH  22  23
HETATM   23  S1  UNL     1       5.342  -9.444  -4.096  1.00  0.00     0.257 S
HETATM   24  O1  UNL     1       5.057  -7.970  -4.262  1.00  0.00    -0.201 OA
HETATM   25  O2  UNL     1       6.812  -9.719  -4.132  1.00  0.00    -0.201 OA
BRANCH  23  26
HETATM   26  N10 UNL     1       4.718  -9.869  -2.517  1.00  0.00    -0.324 N
ATOM     27 2H10 UNL     1       5.251  -9.857  -1.648  1.00  0.00     0.169 HD
ATOM     28 1H10 UNL     1       3.738 -10.126  -2.633  1.00  0.00     0.169 HD
ENDBRANCH  23  26
ENDBRANCH  22  23
ENDBRANCH  14  17
ENDBRANCH  10  11
ENDBRANCH   7  10
BRANCH   6  29
HETATM   29  C16 UNL     1      11.889  -8.724 -10.153  1.00  0.00     0.030 C
BRANCH  29  30
HETATM   30  C17 UNL     1      11.978  -7.987 -11.358  1.00  0.00    -0.002 C
BRANCH  30  31
HETATM   31  C18 UNL     1      13.238  -7.618 -11.764  1.00  0.00    -0.026 C
BRANCH  31  32
HETATM   32  C19 UNL     1      14.064  -8.525 -12.585  1.00  0.00     0.029 C
BRANCH  32  33
HETATM   33  C20 UNL     1      15.479  -8.631 -12.034  1.00  0.00     0.023 C
BRANCH  33  34
HETATM   34  C21 UNL     1      16.366  -7.605 -12.712  1.00  0.00     0.122 C
BRANCH  34  35
HETATM   35  N6  UNL     1      17.430  -8.230 -13.440  1.00  0.00    -0.367 N
HETATM   36  C22 UNL     1      17.502  -8.154 -14.723  1.00  0.00     0.196 C
HETATM   37  N7  UNL     1      18.601  -8.806 -15.395  1.00  0.00    -0.067 NA
HETATM   38  N8  UNL     1      16.547  -7.456 -15.509  1.00  0.00    -0.067 NA
ATOM     39  H6  UNL     1      18.146  -8.747 -12.930  1.00  0.00     0.161 HD
ENDBRANCH  34  35
ENDBRANCH  33  34
ENDBRANCH  32  33
ENDBRANCH  31  32
ENDBRANCH  30  31
ENDBRANCH  29  30
ENDBRANCH   6  29
BRANCH   5  40
HETATM   40  C7  UNL     1      14.135  -9.072  -8.213  1.00  0.00     0.026 C
BRANCH  40  41
HETATM   41  C8  UNL     1      15.346  -8.276  -8.367  1.00  0.00    -0.035 A
HETATM   42  C9  UNL     1      15.284  -6.958  -8.777  1.00  0.00     0.013 A
HETATM   43  C10 UNL     1      16.461  -6.267  -8.963  1.00  0.00     0.030 A
HETATM   44  C11 UNL     1      17.676  -6.909  -8.736  1.00  0.00     0.034 A
HETATM   45  C13 UNL     1      17.738  -8.225  -8.327  1.00  0.00     0.030 A
HETATM   46  C14 UNL     1      16.574  -8.915  -8.142  1.00  0.00     0.013 A
BRANCH  44  47
HETATM   47  N3  UNL     1      18.931  -6.265  -8.894  1.00  0.00    -0.333 N
HETATM   48  C12 UNL     1      19.724  -6.409  -9.890  1.00  0.00     0.201 C
HETATM   49  N4  UNL     1      20.971  -5.710  -9.950  1.00  0.00    -0.066 NA
HETATM   50  N5  UNL     1      19.337  -7.282 -10.940  1.00  0.00    -0.066 NA
ATOM     51  H3  UNL     1      19.228  -5.633  -8.150  1.00  0.00     0.168 HD
ENDBRANCH  44  47
ENDBRANCH  40  41
ENDBRANCH   5  40
BRANCH   1  52
HETATM   52  C1  UNL     1       9.967  -7.132  -3.440  1.00  0.00     0.120 C
HETATM   53  N1  UNL     1       8.703  -7.349  -3.513  1.00  0.00    -0.387 N
ATOM     54  H12 UNL     1       8.106  -7.063  -2.737  1.00  0.00     0.157 HD
ATOM     55  H11 UNL     1       8.286  -7.801  -4.326  1.00  0.00     0.157 HD
HETATM   56  N2  UNL     1      10.545  -6.504  -2.311  1.00  0.00    -0.082 NA
ENDBRANCH   1  52
TORSDOF 16
ENDMDL