MODEL 3
REMARK VINA RESULT: -7.464781827      1.748      2.365
REMARK  11 active torsions:
REMARK  status: ('A' for Active; 'I' for Inactive)
REMARK       I    between atoms: C2_2  and  N1_4
REMARK    1  A    between atoms: N1_4  and  C3_6
REMARK    2  A    between atoms: C3_6  and  C4_7
REMARK    3  A    between atoms: C3_6  and  C8_11
REMARK    4  A    between atoms: C4_7  and  C5_8
REMARK       I    between atoms: C8_11  and  N2_13
REMARK    5  A    between atoms: N2_13  and  C9_15
REMARK    6  A    between atoms: C9_15  and  C10_16
REMARK    7  A    between atoms: C9_15  and  C17_27
REMARK    8  A    between atoms: C10_16  and  O3_17
REMARK    9  A    between atoms: C10_16  and  C11_19
REMARK   10  A    between atoms: C11_19  and  N3_20
REMARK   11  A    between atoms: N3_20  and  C12_22
ROOT
HETATM    1  C9  UNL     1       9.115  41.257  -2.667  1.00  0.00     0.122 C
ENDROOT
BRANCH   1   2
HETATM    2  N2  UNL     1      10.460  41.210  -3.202  1.00  0.00    -0.351 N
HETATM    3  C8  UNL     1      11.554  41.759  -2.484  1.00  0.00     0.240 C
HETATM    4  O2  UNL     1      11.440  42.307  -1.368  1.00  0.00    -0.271 OA
ATOM      5  H2  UNL     1      10.624  40.774  -4.109  1.00  0.00     0.163 HD
BRANCH   3   6
HETATM    6  C3  UNL     1      12.936  41.689  -3.082  1.00  0.00     0.177 C
BRANCH   6   7
HETATM    7  N1  UNL     1      12.917  42.424  -4.314  1.00  0.00    -0.348 N
HETATM    8  C2  UNL     1      13.795  43.516  -4.540  1.00  0.00     0.214 C
HETATM    9  C1  UNL     1      13.768  44.268  -5.815  1.00  0.00     0.117 C
HETATM   10  O1  UNL     1      14.609  43.853  -3.650  1.00  0.00    -0.274 OA
ATOM     11  H1  UNL     1      12.257  42.156  -5.044  1.00  0.00     0.163 HD
ENDBRANCH   6   7
BRANCH   6  12
HETATM   12  C4  UNL     1      13.322  40.246  -3.220  1.00  0.00     0.038 C
BRANCH  12  13
HETATM   13  C5  UNL     1      14.754  39.914  -3.056  1.00  0.00    -0.020 C
HETATM   14  C6  UNL     1      15.478  40.792  -2.058  1.00  0.00     0.009 C
HETATM   15  C7  UNL     1      15.490  39.824  -4.350  1.00  0.00     0.009 C
ENDBRANCH  12  13
ENDBRANCH   6  12
ENDBRANCH   3   6
ENDBRANCH   1   2
BRANCH   1  16
HETATM   16  C10 UNL     1       8.143  41.163  -3.816  1.00  0.00     0.179 C
BRANCH  16  17
HETATM   17  O3  UNL     1       8.890  41.166  -4.988  1.00  0.00    -0.388 OA
ATOM     18  H3  UNL     1       8.639  41.939  -5.479  1.00  0.00     0.210 HD
ENDBRANCH  16  17
BRANCH  16  19
HETATM   19  C11 UNL     1       7.192  42.324  -3.804  1.00  0.00     0.089 C
BRANCH  19  20
HETATM   20  N3  UNL     1       6.106  42.151  -2.921  1.00  0.00    -0.395 N
ATOM     21  H3  UNL     1       6.039  42.700  -2.065  1.00  0.00     0.159 HD
BRANCH  20  22
HETATM   22  C12 UNL     1       5.101  41.187  -3.251  1.00  0.00     0.080 C
HETATM   23  C13 UNL     1       3.756  41.833  -3.521  1.00  0.00     0.025 C
HETATM   24  C14 UNL     1       3.169  42.204  -2.199  1.00  0.00     0.002 C
HETATM   25  C15 UNL     1       4.164  41.706  -1.173  1.00  0.00     0.002 C
HETATM   26  C16 UNL     1       4.761  40.512  -1.888  1.00  0.00     0.025 C
ENDBRANCH  20  22
ENDBRANCH  19  20
ENDBRANCH  16  19
ENDBRANCH   1  16
BRANCH   1  27
HETATM   27  C17 UNL     1       8.897  40.247  -1.579  1.00  0.00     0.011 C
HETATM   28  C18 UNL     1       8.080  39.121  -2.235  1.00  0.00     0.007 C
HETATM   29  C19 UNL     1       8.118  37.999  -1.247  1.00  0.00     0.000 C
HETATM   30  C20 UNL     1       7.444  38.343   0.051  1.00  0.00     0.000 C
HETATM   31  C21 UNL     1       7.629  39.719   0.527  1.00  0.00     0.000 C
HETATM   32  C22 UNL     1       8.115  40.739  -0.419  1.00  0.00     0.007 C
ENDBRANCH   1  27
TORSDOF 11
ENDMDL