MODEL 1
REMARK VINA RESULT: -6.229345858      0.000      0.000
REMARK  15 active torsions:
REMARK  status: ('A' for Active; 'I' for Inactive)
REMARK    1  A    between atoms: C2_2  and  C3_3
REMARK    2  A    between atoms: C3_3  and  C4_4
REMARK    3  A    between atoms: C4_4  and  C5_5
REMARK    4  A    between atoms: C5_5  and  C6_6
REMARK    5  A    between atoms: C6_6  and  C7_7
REMARK    6  A    between atoms: C7_7  and  C8_8
REMARK    7  A    between atoms: C8_8  and  C9_9
REMARK    8  A    between atoms: C9_9  and  C10_10
REMARK    9  A    between atoms: C11_11  and  O1_12
REMARK   10  A    between atoms: C12_14  and  O2_15
REMARK   11  A    between atoms: C13_17  and  O3_18
REMARK   12  A    between atoms: N1_22  and  C16_23
REMARK   13  A    between atoms: C16_23  and  N2_25
REMARK   14  A    between atoms: N2_25  and  C17_27
REMARK   15  A    between atoms: C17_27  and  C18_28
ROOT
HETATM    1  C10 UNL     1      10.787  41.432  -3.442  1.00  0.00     0.118 C
HETATM    2  C11 UNL     1      11.119  42.960  -3.552  1.00  0.00     0.172 C
HETATM    3  C12 UNL     1      10.019  43.498  -4.413  1.00  0.00     0.179 C
HETATM    4  C13 UNL     1       8.657  43.200  -3.915  1.00  0.00     0.172 C
HETATM    5  C14 UNL     1       8.420  41.861  -3.316  1.00  0.00     0.114 C
HETATM    6  C15 UNL     1       8.210  40.840  -4.393  1.00  0.00     0.035 C
HETATM    7  N1  UNL     1       9.676  41.437  -2.552  1.00  0.00    -0.344 N
ENDROOT
BRANCH   1   8
HETATM    8  C9  UNL     1      12.046  40.753  -3.143  1.00  0.00     0.028 C
BRANCH   8   9
HETATM    9  C8  UNL     1      12.991  40.445  -4.238  1.00  0.00     0.002 C
BRANCH   9  10
HETATM   10  C7  UNL     1      14.117  39.549  -3.981  1.00  0.00     0.000 C
BRANCH  10  11
HETATM   11  C6  UNL     1      15.520  39.902  -4.207  1.00  0.00     0.000 C
BRANCH  11  12
HETATM   12  C5  UNL     1      16.350  40.417  -3.113  1.00  0.00     0.000 C
BRANCH  12  13
HETATM   13  C4  UNL     1      15.850  40.627  -1.755  1.00  0.00     0.000 C
BRANCH  13  14
HETATM   14  C3  UNL     1      15.832  42.058  -1.266  1.00  0.00    -0.000 C
BRANCH  14  15
HETATM   15  C2  UNL     1      14.536  42.745  -1.525  1.00  0.00    -0.005 C
HETATM   16  C1  UNL     1      14.658  43.752  -2.645  1.00  0.00     0.005 C
ENDBRANCH  14  15
ENDBRANCH  13  14
ENDBRANCH  12  13
ENDBRANCH  11  12
ENDBRANCH  10  11
ENDBRANCH   9  10
ENDBRANCH   8   9
ENDBRANCH   1   8
BRANCH   2  17
HETATM   17  O1  UNL     1      11.073  43.504  -2.294  1.00  0.00    -0.391 OA
ATOM     18  H1  UNL     1      10.163  43.660  -2.068  1.00  0.00     0.210 HD
ENDBRANCH   2  17
BRANCH   7  19
HETATM   19  C16 UNL     1       9.523  41.223  -1.192  1.00  0.00     0.170 C
HETATM   20  S1  UNL     1       8.100  40.498  -0.693  1.00  0.00    -0.041 SA
BRANCH  19  21
HETATM   21  N2  UNL     1      10.404  41.527  -0.156  1.00  0.00    -0.367 N
ATOM     22  H2  UNL     1      10.596  42.502   0.076  1.00  0.00     0.161 HD
BRANCH  21  23
HETATM   23  C17 UNL     1      11.067  40.437   0.617  1.00  0.00     0.126 C
BRANCH  23  24
HETATM   24  C18 UNL     1      12.525  40.333   0.272  1.00  0.00     0.003 A
HETATM   25  C19 UNL     1      13.469  39.664   1.177  1.00  0.00     0.007 A
HETATM   26  C20 UNL     1      13.008  38.935  -0.053  1.00  0.00     0.007 A
ENDBRANCH  23  24
ENDBRANCH  21  23
ENDBRANCH  19  21
ENDBRANCH   7  19
BRANCH   3  27
HETATM   27  O2  UNL     1      10.194  44.876  -4.509  1.00  0.00    -0.390 OA
ATOM     28  H2  UNL     1       9.342  45.264  -4.668  1.00  0.00     0.210 HD
ENDBRANCH   3  27
BRANCH   4  29
HETATM   29  O3  UNL     1       8.271  44.220  -3.030  1.00  0.00    -0.391 OA
ATOM     30  H3  UNL     1       7.342  44.134  -2.855  1.00  0.00     0.210 HD
ENDBRANCH   4  29
TORSDOF 15
ENDMDL