MODEL 2
REMARK VINA RESULT: -6.762490174      1.159      1.302
REMARK  13 active torsions:
REMARK  status: ('A' for Active; 'I' for Inactive)
REMARK    1  A    between atoms: C2_2  and  O1_5
REMARK    2  A    between atoms: O1_5  and  C5_6
REMARK       I    between atoms: C5_6  and  N1_8
REMARK    3  A    between atoms: N1_8  and  C6_10
REMARK    4  A    between atoms: C6_10  and  C7_11
REMARK    5  A    between atoms: C7_11  and  C8_12
REMARK    6  A    between atoms: C8_12  and  C9_13
REMARK    7  A    between atoms: C9_13  and  C10_14
REMARK    8  A    between atoms: C10_14  and  C11_15
REMARK    9  A    between atoms: C11_15  and  N3_19
REMARK   10  A    between atoms: N3_19  and  C12_21
REMARK   11  A    between atoms: C12_21  and  C13_22
REMARK   12  A    between atoms: C13_22  and  C14_23
REMARK   13  A    between atoms: C14_23  and  N4_24
ROOT
HETATM    1  C11 UNL     1      11.805  44.405  -3.796  1.00  0.00     0.070 C
HETATM    2  N2  UNL     1      11.661  45.294  -2.874  1.00  0.00    -0.389 N
ATOM      3  H21 UNL     1      10.874  45.942  -2.890  1.00  0.00     0.157 HD
ATOM      4  H22 UNL     1      12.373  45.322  -2.144  1.00  0.00     0.157 HD
ENDROOT
BRANCH   1   5
HETATM    5  C10 UNL     1      12.947  43.464  -3.772  1.00  0.00     0.075 C
BRANCH   5   6
HETATM    6  C9  UNL     1      13.447  43.133  -2.415  1.00  0.00     0.007 C
BRANCH   6   7
HETATM    7  C8  UNL     1      14.885  43.420  -2.153  1.00  0.00     0.002 C
BRANCH   7   8
HETATM    8  C7  UNL     1      15.353  42.717  -0.903  1.00  0.00     0.020 C
BRANCH   8   9
HETATM    9  C6  UNL     1      14.353  41.688  -0.514  1.00  0.00     0.125 C
BRANCH   9  10
HETATM   10  N1  UNL     1      14.943  40.592   0.237  1.00  0.00    -0.337 N
HETATM   11  C5  UNL     1      14.760  39.282  -0.247  1.00  0.00     0.361 C
HETATM   12  O2  UNL     1      14.101  39.100  -1.297  1.00  0.00    -0.238 OA
ATOM     13  H1  UNL     1      15.475  40.766   1.090  1.00  0.00     0.164 HD
BRANCH  11  14
HETATM   14  O1  UNL     1      15.270  38.153   0.377  1.00  0.00    -0.294 OA
BRANCH  14  15
HETATM   15  C2  UNL     1      14.759  37.540   1.519  1.00  0.00     0.061 C
HETATM   16  C1  UNL     1      13.276  37.701   1.702  1.00  0.00     0.046 C
HETATM   17  C3  UNL     1      15.458  38.188   2.716  1.00  0.00     0.046 C
HETATM   18  C4  UNL     1      15.060  36.056   1.569  1.00  0.00     0.046 C
ENDBRANCH  14  15
ENDBRANCH  11  14
ENDBRANCH   9  10
ENDBRANCH   8   9
ENDBRANCH   7   8
ENDBRANCH   6   7
ENDBRANCH   5   6
ENDBRANCH   1   5
BRANCH   1  19
HETATM   19  N3  UNL     1      10.817  44.366  -4.810  1.00  0.00    -0.380 N
ATOM     20  H3  UNL     1      11.099  44.545  -5.774  1.00  0.00     0.160 HD
BRANCH  19  21
HETATM   21  C12 UNL     1       9.453  44.091  -4.544  1.00  0.00     0.122 C
BRANCH  21  22
HETATM   22  C13 UNL     1       9.196  42.814  -3.863  1.00  0.00     0.039 C
BRANCH  22  23
HETATM   23  C14 UNL     1       7.779  42.380  -3.747  1.00  0.00     0.127 C
BRANCH  23  24
HETATM   24  N4  UNL     1       7.658  41.539  -2.525  1.00  0.00    -0.358 N
HETATM   25  C15 UNL     1       8.856  41.026  -1.911  1.00  0.00     0.127 C
HETATM   26  C16 UNL     1       8.602  40.869  -0.423  1.00  0.00     0.039 C
HETATM   27  C17 UNL     1       7.507  39.833  -0.180  1.00  0.00     0.123 C
HETATM   28  N5  UNL     1       6.343  40.185  -0.989  1.00  0.00    -0.367 N
HETATM   29  C18 UNL     1       6.402  41.227  -1.958  1.00  0.00     0.169 C
ATOM     30  H5  UNL     1       5.470  39.674  -0.857  1.00  0.00     0.161 HD
HETATM   31  S1  UNL     1       5.070  42.055  -2.417  1.00  0.00    -0.041 SA
ENDBRANCH  23  24
ENDBRANCH  22  23
ENDBRANCH  21  22
ENDBRANCH  19  21
ENDBRANCH   1  19
TORSDOF 13
ENDMDL