MODEL 4
REMARK VINA RESULT: -7.569998206      4.640      9.982
REMARK  11 active torsions:
REMARK  status: ('A' for Active; 'I' for Inactive)
REMARK       I    between atoms: N1_2  and  C2_4
REMARK       I    between atoms: C2_4  and  N2_5
REMARK       I    between atoms: C2_4  and  N6_24
REMARK    1  A    between atoms: N2_5  and  C3_7
REMARK    2  A    between atoms: C3_7  and  C4_8
REMARK    3  A    between atoms: C4_8  and  C5_9
REMARK    4  A    between atoms: C5_9  and  C6_10
REMARK    5  A    between atoms: C6_10  and  C7_11
REMARK    6  A    between atoms: C7_11  and  C8_12
REMARK    7  A    between atoms: C8_12  and  C9_13
REMARK    8  A    between atoms: C9_13  and  N3_14
REMARK    9  A    between atoms: N3_14  and  C10_16
REMARK   10  A    between atoms: N6_24  and  C13_26
REMARK   11  A    between atoms: C13_26  and  C14_27
ROOT
HETATM    1  C3  UNL     1      11.034  40.195   1.013  1.00  0.00     0.138 C
ENDROOT
BRANCH   1   2
HETATM    2  N2  UNL     1      10.106  39.556   0.128  1.00  0.00    -0.227 N
HETATM    3  C2  UNL     1       9.066  40.217  -0.589  1.00  0.00     0.669 C
HETATM    4  N1  UNL     1       8.118  40.787   0.032  1.00  0.00    -0.231 N
HETATM    5  N6  UNL     1       9.146  40.199  -2.021  1.00  0.00    -0.226 N
HETATM    6  C1  UNL     1       7.906  40.880   1.438  1.00  0.00     0.165 C
ATOM      7  H1  UNL     1       7.414  41.239  -0.552  1.00  0.00     0.177 HD
ATOM      8  H6  UNL     1      10.042  40.378  -2.474  1.00  0.00     0.177 HD
ATOM      9  H2  UNL     1      10.197  38.548   0.000  1.00  0.00     0.177 HD
BRANCH   5  10
HETATM   10  C13 UNL     1       7.996  39.937  -2.821  1.00  0.00     0.142 C
BRANCH  10  11
HETATM   11  C14 UNL     1       7.684  41.047  -3.797  1.00  0.00     0.004 C
HETATM   12  C15 UNL     1       6.779  40.598  -4.896  1.00  0.00     0.006 C
HETATM   13  C16 UNL     1       5.578  41.504  -5.062  1.00  0.00     0.000 C
HETATM   14  C17 UNL     1       4.825  41.643  -3.759  1.00  0.00     0.000 C
HETATM   15  C18 UNL     1       5.730  42.221  -2.721  1.00  0.00     0.000 C
HETATM   16  C19 UNL     1       7.172  42.282  -3.137  1.00  0.00     0.006 C
ENDBRANCH  10  11
ENDBRANCH   5  10
ENDBRANCH   1   2
BRANCH   1  17
HETATM   17  C4  UNL     1      12.260  39.349   1.323  1.00  0.00     0.020 C
BRANCH  17  18
HETATM   18  C5  UNL     1      13.233  39.461   0.176  1.00  0.00     0.002 C
BRANCH  18  19
HETATM   19  C6  UNL     1      13.523  40.911  -0.153  1.00  0.00     0.000 C
BRANCH  19  20
HETATM   20  C7  UNL     1      14.903  41.311   0.278  1.00  0.00     0.002 C
BRANCH  20  21
HETATM   21  C8  UNL     1      15.379  42.452  -0.564  1.00  0.00     0.020 C
BRANCH  21  22
HETATM   22  C9  UNL     1      15.093  42.295  -2.029  1.00  0.00     0.121 C
BRANCH  22  23
HETATM   23  N3  UNL     1      15.004  43.586  -2.699  1.00  0.00    -0.369 N
ATOM     24  H3  UNL     1      15.774  44.256  -2.705  1.00  0.00     0.161 HD
BRANCH  23  25
HETATM   25  C10 UNL     1      13.860  43.821  -3.292  1.00  0.00     0.161 A
HETATM   26  N4  UNL     1      13.663  44.270  -4.538  1.00  0.00    -0.279 N
HETATM   27  N5  UNL     1      12.473  44.438  -4.942  1.00  0.00    -0.296 N
ATOM     28  H4  UNL     1      14.454  44.473  -5.150  1.00  0.00     0.189 HD
HETATM   29  C11 UNL     1      11.452  44.173  -4.142  1.00  0.00     0.066 A
ATOM     30  H5  UNL     1      12.302  44.779  -5.887  1.00  0.00     0.187 HD
HETATM   31  C12 UNL     1       9.980  44.314  -4.451  1.00  0.00     0.078 C
HETATM   32  S1  UNL     1      12.256  43.652  -2.729  1.00  0.00    -0.039 SA
ENDBRANCH  23  25
ENDBRANCH  22  23
ENDBRANCH  21  22
ENDBRANCH  20  21
ENDBRANCH  19  20
ENDBRANCH  18  19
ENDBRANCH  17  18
ENDBRANCH   1  17
TORSDOF 11
ENDMDL