MODEL 4
REMARK VINA RESULT: -6.700634569      0.902      1.025
REMARK  12 active torsions:
REMARK  status: ('A' for Active; 'I' for Inactive)
REMARK    1  A    between atoms: C2_2  and  C3_3
REMARK    2  A    between atoms: C3_3  and  C4_4
REMARK    3  A    between atoms: C4_4  and  C5_5
REMARK    4  A    between atoms: C5_5  and  C6_6
REMARK    5  A    between atoms: C6_6  and  N1_7
REMARK    6  A    between atoms: N1_7  and  C7_9
REMARK    7  A    between atoms: C7_9  and  N2_11
REMARK    8  A    between atoms: N2_11  and  O1_13
REMARK    9  A    between atoms: O1_13  and  C8_14
REMARK   10  A    between atoms: C8_14  and  C9_15
REMARK   11  A    between atoms: C9_15  and  O2_16
REMARK   12  A    between atoms: C9_15  and  C10_18
ROOT
HETATM    1  C9  UNL     1      11.530  44.446  -3.167  1.00  0.00     0.164 C
ENDROOT
BRANCH   1   2
HETATM    2  C8  UNL     1      10.295  44.577  -4.107  1.00  0.00     0.234 C
BRANCH   2   3
HETATM    3  O1  UNL     1       9.166  44.317  -3.460  1.00  0.00    -0.276 OA
BRANCH   3   4
HETATM    4  N2  UNL     1       8.730  43.160  -3.088  1.00  0.00    -0.241 N
ATOM      5  H2  UNL     1       7.973  43.232  -2.408  1.00  0.00     0.197 HD
BRANCH   4   6
HETATM    6  C7  UNL     1       9.045  41.830  -3.394  1.00  0.00     0.191 C
HETATM    7  S1  UNL     1       8.024  41.055  -4.483  1.00  0.00    -0.039 SA
BRANCH   6   8
HETATM    8  N1  UNL     1      10.116  41.097  -2.886  1.00  0.00    -0.366 N
ATOM      9  H1  UNL     1      10.668  40.498  -3.499  1.00  0.00     0.161 HD
BRANCH   8  10
HETATM   10  C6  UNL     1      10.442  41.198  -1.451  1.00  0.00     0.122 C
BRANCH  10  11
HETATM   11  C5  UNL     1      11.208  39.948  -1.004  1.00  0.00     0.020 C
BRANCH  11  12
HETATM   12  C4  UNL     1      11.740  40.140   0.352  1.00  0.00     0.002 C
BRANCH  12  13
HETATM   13  C3  UNL     1      12.430  39.051   1.043  1.00  0.00    -0.000 C
BRANCH  13  14
HETATM   14  C2  UNL     1      12.790  39.174   2.466  1.00  0.00    -0.005 C
HETATM   15  C1  UNL     1      14.209  38.845   2.832  1.00  0.00     0.005 C
ENDBRANCH  13  14
ENDBRANCH  12  13
ENDBRANCH  11  12
ENDBRANCH  10  11
ENDBRANCH   8  10
ENDBRANCH   6   8
ENDBRANCH   4   6
ENDBRANCH   3   4
ENDBRANCH   2   3
ENDBRANCH   1   2
BRANCH   1  16
HETATM   16  O2  UNL     1      11.772  45.763  -2.753  1.00  0.00    -0.392 OA
ATOM     17  H2  UNL     1      12.289  45.658  -1.963  1.00  0.00     0.210 HD
ENDBRANCH   1  16
BRANCH   1  18
HETATM   18  C10 UNL     1      12.675  44.037  -4.029  1.00  0.00     0.113 A
HETATM   19  C11 UNL     1      13.939  43.580  -3.481  1.00  0.00     0.086 A
HETATM   20  C12 UNL     1      14.214  43.278  -2.051  1.00  0.00     0.027 C
HETATM   21  N4  UNL     1      12.961  42.556  -4.014  1.00  0.00    -0.258 NA
HETATM   22  C13 UNL     1      14.289  41.828  -1.739  1.00  0.00     0.002 C
HETATM   23  C14 UNL     1      15.456  41.415  -0.882  1.00  0.00    -0.014 C
HETATM   24  C18 UNL     1      14.607  41.013  -3.004  1.00  0.00     0.051 C
HETATM   25  C15 UNL     1      15.084  41.623   0.567  1.00  0.00     0.010 C
HETATM   26  C16 UNL     1      15.524  39.914  -1.147  1.00  0.00     0.005 C
HETATM   27  C17 UNL     1      14.761  39.658  -2.432  1.00  0.00     0.012 C
HETATM   28  C19 UNL     1      13.446  41.226  -3.893  1.00  0.00     0.057 C
HETATM   29  N3  UNL     1      12.851  40.311  -4.553  1.00  0.00    -0.393 N
ATOM     30  H32 UNL     1      13.200  39.356  -4.467  1.00  0.00     0.157 HD
ATOM     31  H31 UNL     1      12.050  40.457  -5.167  1.00  0.00     0.157 HD
ENDBRANCH   1  18
TORSDOF 12
ENDMDL