MODEL 4
REMARK VINA RESULT: -7.208552006      1.626      2.983
REMARK  11 active torsions:
REMARK  status: ('A' for Active; 'I' for Inactive)
REMARK    1  A    between atoms: O1_2  and  C2_3
REMARK    2  A    between atoms: C2_3  and  C3_5
REMARK    3  A    between atoms: C3_5  and  N1_6
REMARK    4  A    between atoms: C3_5  and  C19_29
REMARK       I    between atoms: N1_6  and  C4_8
REMARK    5  A    between atoms: C4_8  and  C5_10
REMARK    6  A    between atoms: C5_10  and  C6_11
REMARK    7  A    between atoms: C5_10  and  N3_24
REMARK    8  A    between atoms: C6_11  and  N2_12
REMARK    9  A    between atoms: N2_12  and  C7_14
REMARK   10  A    between atoms: C7_14  and  C10_17
REMARK   11  A    between atoms: C10_17  and  C11_18
REMARK       I    between atoms: N3_24  and  C17_26
ROOT
HETATM    1  C5  UNL     1      10.250  41.901  -2.638  1.00  0.00     0.194 C
ENDROOT
BRANCH   1   2
HETATM    2  C4  UNL     1       9.083  41.373  -3.325  1.00  0.00     0.242 C
HETATM    3  N1  UNL     1       7.739  41.470  -2.931  1.00  0.00    -0.345 N
ATOM      4  H1  UNL     1       7.534  41.959  -2.060  1.00  0.00     0.163 HD
HETATM    5  O3  UNL     1       9.320  40.743  -4.426  1.00  0.00    -0.271 OA
BRANCH   3   6
HETATM    6  C3  UNL     1       6.632  40.930  -3.670  1.00  0.00     0.187 C
BRANCH   6   7
HETATM    7  C2  UNL     1       5.488  41.861  -3.706  1.00  0.00     0.281 C
HETATM    8  O2  UNL     1       5.430  42.750  -2.798  1.00  0.00    -0.263 OA
BRANCH   7   9
HETATM    9  O1  UNL     1       4.484  41.837  -4.648  1.00  0.00    -0.325 OA
HETATM   10  C1  UNL     1       3.171  41.488  -4.234  1.00  0.00     0.213 C
ENDBRANCH   7   9
ENDBRANCH   6   7
BRANCH   6  11
HETATM   11  C19 UNL     1       6.086  39.668  -2.987  1.00  0.00     0.010 C
HETATM   12  C20 UNL     1       6.368  38.444  -3.804  1.00  0.00     0.012 C
HETATM   13  C21 UNL     1       6.635  39.501  -1.599  1.00  0.00     0.012 C
ENDBRANCH   6  11
ENDBRANCH   3   6
ENDBRANCH   1   2
BRANCH   1  14
HETATM   14  C6  UNL     1      10.800  40.992  -1.535  1.00  0.00     0.149 C
BRANCH  14  15
HETATM   15  N2  UNL     1      11.903  41.598  -0.888  1.00  0.00    -0.411 N
ATOM     16  H2  UNL     1      11.862  42.562  -0.557  1.00  0.00     0.154 HD
BRANCH  15  17
HETATM   17  C7  UNL     1      13.089  40.791  -0.716  1.00  0.00     0.018 C
HETATM   18  C8  UNL     1      13.314  39.769  -1.771  1.00  0.00     0.037 C
HETATM   19  C9  UNL     1      14.230  41.827  -0.925  1.00  0.00     0.037 C
BRANCH  17  20
HETATM   20  C10 UNL     1      13.163  40.330   0.687  1.00  0.00     0.034 C
BRANCH  20  21
HETATM   21  C11 UNL     1      14.086  39.236   1.045  1.00  0.00    -0.012 C
HETATM   22  C12 UNL     1      15.103  39.467   2.100  1.00  0.00     0.005 C
HETATM   23  C13 UNL     1      15.405  38.196   2.892  1.00  0.00     0.000 C
HETATM   24  C14 UNL     1      15.338  36.977   1.997  1.00  0.00     0.000 C
HETATM   25  C15 UNL     1      13.933  36.784   1.471  1.00  0.00     0.000 C
HETATM   26  C16 UNL     1      13.204  38.081   1.561  1.00  0.00     0.005 C
ENDBRANCH  20  21
ENDBRANCH  17  20
ENDBRANCH  15  17
ENDBRANCH  14  15
ENDBRANCH   1  14
BRANCH   1  27
HETATM   27  N3  UNL     1      11.312  42.289  -3.529  1.00  0.00    -0.347 N
HETATM   28  C17 UNL     1      12.045  43.490  -3.449  1.00  0.00     0.214 C
HETATM   29  C18 UNL     1      13.129  43.777  -4.429  1.00  0.00     0.117 C
HETATM   30  O4  UNL     1      11.822  44.371  -2.551  1.00  0.00    -0.274 OA
ATOM     31  H3  UNL     1      11.553  41.643  -4.279  1.00  0.00     0.163 HD
ENDBRANCH   1  27
TORSDOF 11
ENDMDL