MODEL 3
REMARK VINA RESULT: -6.334745446      1.937      2.502
REMARK  15 active torsions:
REMARK  status: ('A' for Active; 'I' for Inactive)
REMARK    1  A    between atoms: O1_2  and  C2_3
REMARK    2  A    between atoms: C2_3  and  C3_5
REMARK    3  A    between atoms: C3_5  and  C4_6
REMARK    4  A    between atoms: C4_6  and  C5_7
REMARK    5  A    between atoms: C5_7  and  C6_8
REMARK    6  A    between atoms: C6_8  and  C7_9
REMARK    7  A    between atoms: C7_9  and  C8_10
REMARK    8  A    between atoms: C9_11  and  C10_12
REMARK    9  A    between atoms: C10_12  and  C11_13
REMARK   10  A    between atoms: C11_13  and  C12_14
REMARK   11  A    between atoms: C12_14  and  C13_15
REMARK       I    between atoms: C13_15  and  N1_17
REMARK   12  A    between atoms: N1_17  and  N2_19
REMARK   13  A    between atoms: N2_19  and  C14_21
REMARK   14  A    between atoms: C14_21  and  N3_23
REMARK   15  A    between atoms: N3_23  and  C15_25
ROOT
HETATM    1  C13 UNL     1      10.017  43.949  -3.941  1.00  0.00     0.236 C
HETATM    2  O3  UNL     1       9.271  44.571  -3.171  1.00  0.00    -0.272 OA
HETATM    3  N1  UNL     1       9.458  42.885  -4.748  1.00  0.00    -0.268 N
ATOM      4  H1  UNL     1      10.032  42.357  -5.406  1.00  0.00     0.190 HD
ENDROOT
BRANCH   1   5
HETATM    5  C12 UNL     1      11.463  44.207  -4.102  1.00  0.00     0.105 C
BRANCH   5   6
HETATM    6  C11 UNL     1      12.319  44.082  -2.920  1.00  0.00     0.013 C
BRANCH   6   7
HETATM    7  C10 UNL     1      13.554  43.268  -2.970  1.00  0.00     0.028 C
BRANCH   7   8
HETATM    8  C9  UNL     1      14.772  43.716  -2.379  1.00  0.00    -0.019 C
HETATM    9  C8  UNL     1      15.378  43.208  -1.335  1.00  0.00     0.046 C
BRANCH   9  10
HETATM   10  C7  UNL     1      14.890  42.070  -0.588  1.00  0.00    -0.156 C
BRANCH  10  11
HETATM   11  C6  UNL     1      14.484  41.123   0.034  1.00  0.00     0.085 C
BRANCH  11  12
HETATM   12  C5  UNL     1      14.313  39.666  -0.443  1.00  0.00     0.012 C
BRANCH  12  13
HETATM   13  C4  UNL     1      13.588  39.697  -1.748  1.00  0.00     0.011 C
BRANCH  13  14
HETATM   14  C3  UNL     1      12.117  39.465  -1.647  1.00  0.00     0.111 C
BRANCH  14  15
HETATM   15  C2  UNL     1      11.233  40.488  -2.198  1.00  0.00     0.258 C
HETATM   16  O2  UNL     1      10.881  40.621  -3.383  1.00  0.00    -0.265 OA
BRANCH  15  17
HETATM   17  O1  UNL     1      10.654  41.481  -1.331  1.00  0.00    -0.326 OA
HETATM   18  C1  UNL     1      10.741  41.339   0.064  1.00  0.00     0.213 C
ENDBRANCH  15  17
ENDBRANCH  14  15
ENDBRANCH  13  14
ENDBRANCH  12  13
ENDBRANCH  11  12
ENDBRANCH  10  11
ENDBRANCH   9  10
ENDBRANCH   7   8
ENDBRANCH   6   7
ENDBRANCH   5   6
ENDBRANCH   1   5
BRANCH   3  19
HETATM   19  N2  UNL     1       8.110  42.618  -4.586  1.00  0.00    -0.274 N
ATOM     20  H2  UNL     1       7.421  43.301  -4.903  1.00  0.00     0.189 HD
BRANCH  19  21
HETATM   21  C14 UNL     1       7.673  41.409  -3.988  1.00  0.00     0.188 C
HETATM   22  S1  UNL     1       7.021  40.245  -4.902  1.00  0.00    -0.040 SA
BRANCH  21  23
HETATM   23  N3  UNL     1       7.812  41.282  -2.578  1.00  0.00    -0.338 N
ATOM     24  H3  UNL     1       8.706  41.512  -2.146  1.00  0.00     0.164 HD
BRANCH  23  25
HETATM   25  C15 UNL     1       6.739  40.842  -1.753  1.00  0.00     0.286 C
HETATM   26  C16 UNL     1       5.483  41.678  -1.881  1.00  0.00     0.054 C
HETATM   27  C17 UNL     1       4.382  40.906  -1.138  1.00  0.00     0.005 C
HETATM   28  C18 UNL     1       4.847  40.892   0.313  1.00  0.00     0.028 C
HETATM   29  C19 UNL     1       6.150  40.188   0.471  1.00  0.00     0.235 C
HETATM   30  N4  UNL     1       7.187  40.767  -0.372  1.00  0.00    -0.054 N
ATOM     31  H42 UNL     1       8.071  40.264  -0.287  1.00  0.00     0.279 HD
ATOM     32  H41 UNL     1       7.496  41.675  -0.024  1.00  0.00     0.279 HD
ENDBRANCH  23  25
ENDBRANCH  21  23
ENDBRANCH  19  21
ENDBRANCH   3  19
TORSDOF 15
ENDMDL