MODEL 5
REMARK VINA RESULT: -7.899664665      2.102      6.835
REMARK  9 active torsions:
REMARK  status: ('A' for Active; 'I' for Inactive)
REMARK       I    between atoms: C1_2  and  N1_3
REMARK    1  A    between atoms: C1_2  and  C16_26
REMARK    2  A    between atoms: N1_3  and  C2_5
REMARK    3  A    between atoms: C5_11  and  C6_12
REMARK    4  A    between atoms: N3_13  and  C7_15
REMARK    5  A    between atoms: C7_15  and  C8_16
REMARK    6  A    between atoms: C8_16  and  C9_17
REMARK    7  A    between atoms: C9_17  and  C10_18
REMARK    8  A    between atoms: C10_18  and  N4_19
REMARK    9  A    between atoms: N4_19  and  C11_21
ROOT
HETATM    1  C2  UNL     1       9.195  41.831  -2.427  1.00  0.00     0.120 C
HETATM    2  C3  UNL     1       9.550  42.849  -3.585  1.00  0.00     0.257 C
HETATM    3  N2  UNL     1       8.981  42.335  -4.770  1.00  0.00    -0.072 N
ATOM      4  H21 UNL     1       9.602  42.416  -5.574  1.00  0.00     0.277 HD
ATOM      5  H22 UNL     1       8.220  42.914  -5.126  1.00  0.00     0.277 HD
HETATM    6  C4  UNL     1       8.571  40.965  -4.511  1.00  0.00     0.244 C
HETATM    7  C5  UNL     1       8.040  41.124  -3.070  1.00  0.00     0.074 C
ENDROOT
BRANCH   7   8
HETATM    8  C6  UNL     1       6.902  42.156  -3.148  1.00  0.00     0.068 C
HETATM    9  N3  UNL     1       5.728  41.853  -3.729  1.00  0.00    -0.382 N
ATOM     10  H3  UNL     1       5.599  42.267  -4.653  1.00  0.00     0.164 HD
BRANCH   9  11
HETATM   11  C7  UNL     1       4.658  41.075  -3.298  1.00  0.00     0.060 C
BRANCH  11  12
HETATM   12  C8  UNL     1       3.619  41.980  -2.687  1.00  0.00     0.046 C
BRANCH  12  13
HETATM   13  C9  UNL     1       3.783  42.218  -1.236  1.00  0.00     0.024 C
BRANCH  13  14
HETATM   14  C10 UNL     1       4.289  40.921  -0.612  1.00  0.00     0.114 C
BRANCH  14  15
HETATM   15  N4  UNL     1       4.623  41.128   0.744  1.00  0.00    -0.417 N
ATOM     16  H4  UNL     1       4.173  41.846   1.312  1.00  0.00     0.153 HD
BRANCH  15  17
HETATM   17  C11 UNL     1       5.623  40.274   1.262  1.00  0.00     0.076 C
HETATM   18  C12 UNL     1       5.974  40.688   2.697  1.00  0.00     0.024 C
HETATM   19  C13 UNL     1       7.473  40.491   2.744  1.00  0.00     0.002 C
HETATM   20  C14 UNL     1       7.941  40.991   1.395  1.00  0.00     0.002 C
HETATM   21  C15 UNL     1       6.904  40.444   0.456  1.00  0.00     0.024 C
ENDBRANCH  15  17
ENDBRANCH  14  15
ENDBRANCH  13  14
ENDBRANCH  12  13
ENDBRANCH  11  12
ENDBRANCH   9  11
ENDBRANCH   7   8
BRANCH   1  22
HETATM   22  N1  UNL     1      10.402  41.026  -2.304  1.00  0.00    -0.354 N
HETATM   23  C1  UNL     1      11.206  41.197  -1.119  1.00  0.00     0.222 C
HETATM   24  O1  UNL     1      10.774  42.019  -0.270  1.00  0.00    -0.273 OA
ATOM     25  H1  UNL     1      10.670  40.363  -3.032  1.00  0.00     0.162 HD
BRANCH  23  26
HETATM   26  C16 UNL     1      12.427  40.446  -0.978  1.00  0.00     0.082 C
HETATM   27  C17 UNL     1      13.586  41.189  -0.325  1.00  0.00     0.019 C
HETATM   28  C18 UNL     1      14.575  40.079  -0.011  1.00  0.00    -0.013 C
HETATM   29  C19 UNL     1      14.796  40.006   1.497  1.00  0.00     0.005 C
HETATM   30  C23 UNL     1      13.842  38.760  -0.334  1.00  0.00     0.010 C
HETATM   31  C20 UNL     1      13.622  39.318   2.134  1.00  0.00     0.001 C
HETATM   32  C21 UNL     1      12.320  39.559   1.392  1.00  0.00     0.005 C
HETATM   33  C22 UNL     1      12.392  39.224  -0.073  1.00  0.00    -0.001 C
ENDBRANCH  23  26
ENDBRANCH   1  22
TORSDOF 9
ENDMDL