MODEL 3
REMARK VINA RESULT: -6.908365552      2.219      5.198
REMARK  12 active torsions:
REMARK  status: ('A' for Active; 'I' for Inactive)
REMARK    1  A    between atoms: C2_2  and  C3_3
REMARK    2  A    between atoms: C3_3  and  C4_4
REMARK    3  A    between atoms: C4_4  and  C5_5
REMARK    4  A    between atoms: C5_5  and  C6_6
REMARK    5  A    between atoms: C8_8  and  O1_9
REMARK    6  A    between atoms: C9_11  and  N1_12
REMARK    7  A    between atoms: N1_12  and  C10_14
REMARK    8  A    between atoms: C11_16  and  C12_17
REMARK    9  A    between atoms: C12_17  and  C13_18
REMARK   10  A    between atoms: C13_18  and  C14_19
REMARK       I    between atoms: N2_20  and  C15_22
REMARK   11  A    between atoms: N5_27  and  C16_28
REMARK   12  A    between atoms: C16_28  and  C17_29
ROOT
HETATM    1  C6  UNL     1      10.626  43.000  -3.162  1.00  0.00    -0.013 C
HETATM    2  C7  UNL     1      11.238  44.122  -3.945  1.00  0.00     0.086 C
HETATM    3  C8  UNL     1      12.518  43.742  -4.645  1.00  0.00     0.148 C
HETATM    4  C9  UNL     1      13.493  43.145  -3.658  1.00  0.00     0.135 C
HETATM    5  C11 UNL     1      12.825  41.970  -2.987  1.00  0.00     0.109 C
HETATM    6  N5  UNL     1      11.579  42.259  -2.399  1.00  0.00    -0.380 N
ENDROOT
BRANCH   5   7
HETATM    7  C12 UNL     1      12.768  40.790  -3.890  1.00  0.00     0.032 C
BRANCH   7   8
HETATM    8  C13 UNL     1      13.696  39.661  -3.531  1.00  0.00     0.046 C
BRANCH   8   9
HETATM    9  C14 UNL     1      14.880  39.544  -4.368  1.00  0.00     0.063 C
HETATM   10  N2  UNL     1      16.025  39.871  -3.903  1.00  0.00    -0.344 N
HETATM   11  C15 UNL     1      16.287  40.354  -2.615  1.00  0.00     0.185 C
ATOM     12  H2  UNL     1      16.824  39.771  -4.530  1.00  0.00     0.167 HD
HETATM   13  N3  UNL     1      17.138  41.327  -2.482  1.00  0.00    -0.374 N
HETATM   14  N4  UNL     1      15.692  39.859  -1.418  1.00  0.00    -0.064 NA
ATOM     15  H32 UNL     1      17.564  41.681  -3.339  1.00  0.00     0.158 HD
ATOM     16  H31 UNL     1      17.329  41.678  -1.543  1.00  0.00     0.158 HD
ENDBRANCH   8   9
ENDBRANCH   7   8
ENDBRANCH   5   7
BRANCH   4  17
HETATM   17  N1  UNL     1      14.012  44.108  -2.736  1.00  0.00    -0.359 N
ATOM     18  H1  UNL     1      13.537  45.007  -2.650  1.00  0.00     0.162 HD
BRANCH  17  19
HETATM   19  C10 UNL     1      15.141  43.873  -1.949  1.00  0.00     0.349 C
HETATM   20  O2  UNL     1      15.064  43.088  -0.973  1.00  0.00    -0.284 OA
ENDBRANCH  17  19
ENDBRANCH   4  17
BRANCH   6  21
HETATM   21  C16 UNL     1      10.980  41.257  -1.606  1.00  0.00     0.127 C
BRANCH  21  22
HETATM   22  C17 UNL     1      11.262  41.357  -0.123  1.00  0.00     0.003 C
HETATM   23  C18 UNL     1      10.014  41.074   0.698  1.00  0.00     0.006 C
HETATM   24  C19 UNL     1      10.254  39.774   1.407  1.00  0.00     0.000 C
HETATM   25  C20 UNL     1      11.739  39.567   1.450  1.00  0.00     0.000 C
HETATM   26  C21 UNL     1      12.253  40.254   0.226  1.00  0.00     0.006 C
ENDBRANCH  21  22
ENDBRANCH   6  21
BRANCH   3  27
HETATM   27  O1  UNL     1      13.035  44.889  -5.233  1.00  0.00    -0.393 OA
ATOM     28  H1  UNL     1      13.611  45.304  -4.601  1.00  0.00     0.210 HD
ENDBRANCH   3  27
BRANCH   1  29
HETATM   29  C5  UNL     1       9.602  42.211  -3.903  1.00  0.00     0.052 C
BRANCH  29  30
HETATM   30  C4  UNL     1       8.190  42.771  -3.687  1.00  0.00     0.006 C
BRANCH  30  31
HETATM   31  C3  UNL     1       7.352  41.782  -2.905  1.00  0.00     0.000 C
BRANCH  31  32
HETATM   32  C2  UNL     1       5.906  42.031  -3.330  1.00  0.00    -0.005 C
HETATM   33  C1  UNL     1       5.706  41.489  -4.733  1.00  0.00     0.005 C
ENDBRANCH  31  32
ENDBRANCH  30  31
ENDBRANCH  29  30
ENDBRANCH   1  29
TORSDOF 12
ENDMDL