MODEL 1
REMARK VINA RESULT: -8.090539294      0.000      0.000
REMARK  10 active torsions:
REMARK  status: ('A' for Active; 'I' for Inactive)
REMARK    1  A    between atoms: C1_2  and  C2_3
REMARK       I    between atoms: C1_2  and  N4_24
REMARK    2  A    between atoms: C2_3  and  N1_4
REMARK    3  A    between atoms: C5_7  and  N2_8
REMARK    4  A    between atoms: N2_8  and  C6_10
REMARK    5  A    between atoms: C6_10  and  C7_11
REMARK    6  A    between atoms: C7_11  and  C8_12
REMARK    7  A    between atoms: C8_12  and  C9_13
REMARK    8  A    between atoms: C9_13  and  N3_14
REMARK    9  A    between atoms: N3_14  and  C10_16
REMARK   10  A    between atoms: N4_24  and  C18_26
ROOT
HETATM    1  N1  UNL     1       6.532  41.580  -3.587  1.00  0.00     0.097 N
HETATM    2  C3  UNL     1       6.068  41.867  -2.272  1.00  0.00     0.275 C
HETATM    3  C4  UNL     1       4.608  42.344  -2.292  1.00  0.00     0.055 C
HETATM    4  C5  UNL     1       3.755  41.327  -3.025  1.00  0.00     0.079 C
HETATM    5  C16 UNL     1       4.264  41.104  -4.424  1.00  0.00     0.055 C
HETATM    6  C17 UNL     1       5.560  41.859  -4.631  1.00  0.00     0.275 C
ENDROOT
BRANCH   4   7
HETATM    7  N2  UNL     1       2.398  41.728  -3.057  1.00  0.00    -0.417 N
ATOM      8  H2  UNL     1       2.086  42.502  -3.643  1.00  0.00     0.153 HD
BRANCH   7   9
HETATM    9  C6  UNL     1       1.488  41.002  -2.234  1.00  0.00     0.114 C
BRANCH   9  10
HETATM   10  C7  UNL     1       0.714  42.063  -1.432  1.00  0.00     0.021 C
BRANCH  10  11
HETATM   11  C8  UNL     1      -0.541  41.465  -0.888  1.00  0.00     0.021 C
BRANCH  11  12
HETATM   12  C9  UNL     1      -1.157  40.579  -1.971  1.00  0.00     0.114 C
BRANCH  12  13
HETATM   13  N3  UNL     1      -2.337  41.237  -2.446  1.00  0.00    -0.417 N
ATOM     14  H3  UNL     1      -2.593  42.178  -2.146  1.00  0.00     0.153 HD
BRANCH  13  15
HETATM   15  C10 UNL     1      -3.131  40.489  -3.366  1.00  0.00     0.076 C
HETATM   16  C11 UNL     1      -3.048  39.025  -2.914  1.00  0.00     0.024 C
HETATM   17  C12 UNL     1      -3.880  38.221  -3.882  1.00  0.00     0.002 C
HETATM   18  C13 UNL     1      -5.330  38.515  -3.545  1.00  0.00     0.000 C
HETATM   19  C14 UNL     1      -5.467  39.848  -2.842  1.00  0.00     0.002 C
HETATM   20  C15 UNL     1      -4.563  40.893  -3.469  1.00  0.00     0.024 C
ENDBRANCH  13  15
ENDBRANCH  12  13
ENDBRANCH  11  12
ENDBRANCH  10  11
ENDBRANCH   9  10
ENDBRANCH   7   9
ENDBRANCH   4   7
BRANCH   1  21
HETATM   21  C2  UNL     1       7.704  42.330  -3.906  1.00  0.00     0.374 C
BRANCH  21  22
HETATM   22  C1  UNL     1       8.969  41.732  -3.507  1.00  0.00     0.246 C
HETATM   23  O1  UNL     1       9.303  40.646  -4.076  1.00  0.00    -0.272 OA
HETATM   24  N4  UNL     1       9.807  42.291  -2.542  1.00  0.00    -0.355 N
ATOM     25  H4  UNL     1       9.546  43.162  -2.081  1.00  0.00     0.162 HD
BRANCH  24  26
HETATM   26  C18 UNL     1      11.071  41.617  -2.191  1.00  0.00     0.084 C
HETATM   27  C19 UNL     1      10.860  41.086  -0.797  1.00  0.00     0.025 C
HETATM   28  C20 UNL     1      12.153  40.977  -0.026  1.00  0.00     0.002 C
HETATM   29  C21 UNL     1      13.290  40.789  -1.035  1.00  0.00     0.000 C
HETATM   30  C22 UNL     1      13.477  42.123  -1.725  1.00  0.00     0.002 C
HETATM   31  C23 UNL     1      12.161  42.651  -2.256  1.00  0.00     0.025 C
ENDBRANCH  24  26
ENDBRANCH  21  22
ENDBRANCH   1  21
TORSDOF 10
ENDMDL