MODEL 4
REMARK VINA RESULT: -7.476579391      2.664      3.494
REMARK  11 active torsions:
REMARK  status: ('A' for Active; 'I' for Inactive)
REMARK    1  A    between atoms: O1_2  and  C2_3
REMARK    2  A    between atoms: C3_4  and  N1_5
REMARK    3  A    between atoms: N1_5  and  C4_7
REMARK    4  A    between atoms: C8_11  and  N2_12
REMARK       I    between atoms: N2_12  and  C9_14
REMARK    5  A    between atoms: C9_14  and  C10_16
REMARK    6  A    between atoms: C10_16  and  C11_17
REMARK    7  A    between atoms: C11_17  and  C12_18
REMARK    8  A    between atoms: N3_21  and  C15_22
REMARK    9  A    between atoms: C17_28  and  N6_29
REMARK   10  A    between atoms: C18_32  and  C19_33
REMARK   11  A    between atoms: C23_40  and  C24_41
ROOT
HETATM    1  C11 UNL     1      24.128   8.169  15.746  1.00  0.00     0.014 C
ENDROOT
BRANCH   1   2
HETATM    2  C10 UNL     1      23.523   6.848  15.380  1.00  0.00     0.103 C
BRANCH   2   3
HETATM    3  C9  UNL     1      24.393   5.968  14.580  1.00  0.00     0.217 C
HETATM    4  N2  UNL     1      24.172   5.810  13.196  1.00  0.00    -0.356 N
ATOM      5  H2  UNL     1      23.416   6.348  12.774  1.00  0.00     0.162 HD
HETATM    6  O2  UNL     1      25.355   5.341  15.137  1.00  0.00    -0.274 OA
BRANCH   4   7
HETATM    7  C8  UNL     1      24.930   4.949  12.339  1.00  0.00     0.090 C
HETATM    8  C7  UNL     1      25.969   5.798  11.580  1.00  0.00     0.080 C
HETATM    9  C3  UNL     1      26.805   4.770  10.777  1.00  0.00     0.018 C
HETATM   10  C2  UNL     1      25.885   4.181   9.775  1.00  0.00     0.177 C
HETATM   11  C23 UNL     1      24.930   3.274  10.604  1.00  0.00     0.091 C
HETATM   12  C22 UNL     1      24.038   4.224  11.357  1.00  0.00     0.040 C
BRANCH   9  13
HETATM   13  N1  UNL     1      28.096   5.149  10.542  1.00  0.00    -0.368 N
ATOM     14  H1  UNL     1      28.791   4.411  10.657  1.00  0.00     0.165 HD
BRANCH  13  15
HETATM   15  C4  UNL     1      28.604   6.377  10.174  1.00  0.00    -0.021 C
HETATM   16  C5  UNL     1      28.667   6.657   8.660  1.00  0.00     0.062 C
HETATM   17  C6  UNL     1      29.719   7.013  10.931  1.00  0.00     0.062 C
ENDBRANCH  13  15
ENDBRANCH   9  13
BRANCH  10  18
HETATM   18  O1  UNL     1      26.444   3.409   8.814  1.00  0.00    -0.384 OA
HETATM   19  C1  UNL     1      26.379   4.007   7.539  1.00  0.00     0.202 C
ENDBRANCH  10  18
BRANCH  11  20
HETATM   20  C24 UNL     1      24.285   2.219   9.869  1.00  0.00     0.130 C
HETATM   21  C25 UNL     1      23.257   2.483   8.839  1.00  0.00     0.091 C
HETATM   22  O3  UNL     1      24.570   1.046  10.074  1.00  0.00    -0.298 OA
ENDBRANCH  11  20
ENDBRANCH   4   7
ENDBRANCH   2   3
ENDBRANCH   1   2
BRANCH   1  23
HETATM   23  C12 UNL     1      24.655   8.851  14.503  1.00  0.00    -0.011 C
HETATM   24  C13 UNL     1      23.968  10.207  14.339  1.00  0.00     0.024 C
HETATM   25  C14 UNL     1      24.158  11.051  15.553  1.00  0.00     0.125 C
HETATM   26  N3  UNL     1      25.538  11.167  15.895  1.00  0.00    -0.366 N
HETATM   27  C20 UNL     1      26.460  10.082  15.694  1.00  0.00     0.125 C
HETATM   28  C21 UNL     1      26.152   9.107  14.613  1.00  0.00     0.024 C
BRANCH  26  29
HETATM   29  C15 UNL     1      26.004  12.331  16.534  1.00  0.00     0.123 A
HETATM   30  N4  UNL     1      26.623  13.252  15.722  1.00  0.00    -0.338 N
HETATM   31  C16 UNL     1      27.114  14.409  16.181  1.00  0.00     0.183 A
ATOM     32  H4  UNL     1      26.711  13.045  14.728  1.00  0.00     0.168 HD
HETATM   33  N5  UNL     1      26.998  14.681  17.478  1.00  0.00    -0.338 N
HETATM   34  C17 UNL     1      26.398  13.831  18.378  1.00  0.00     0.118 A
ATOM     35  H5  UNL     1      27.374  15.565  17.822  1.00  0.00     0.168 HD
HETATM   36  C18 UNL     1      25.890  12.610  17.847  1.00  0.00     0.135 A
BRANCH  34  37
HETATM   37  N6  UNL     1      26.342  14.179  19.562  1.00  0.00    -0.385 N
ATOM     38  H62 UNL     1      27.133  14.483  20.129  1.00  0.00     0.157 HD
ATOM     39  H61 UNL     1      25.434  14.166  20.026  1.00  0.00     0.157 HD
ENDBRANCH  34  37
BRANCH  36  40
HETATM   40  C19 UNL     1      25.256  11.706  18.792  1.00  0.00     0.424 C
HETATM   41  F1  UNL     1      26.018  11.711  19.986  1.00  0.00    -0.166 F
HETATM   42  F2  UNL     1      25.250  10.370  18.442  1.00  0.00    -0.166 F
HETATM   43  F3  UNL     1      24.023  12.149  19.170  1.00  0.00    -0.166 F
ENDBRANCH  36  40
ENDBRANCH  26  29
ENDBRANCH   1  23
TORSDOF 11
ENDMDL