MODEL 5
REMARK VINA RESULT: -8.315328410      1.288      1.921
REMARK  14 active torsions:
REMARK  status: ('A' for Active; 'I' for Inactive)
REMARK    1  A    between atoms: C2_2  and  N1_5
REMARK    2  A    between atoms: N1_5  and  C5_7
REMARK    3  A    between atoms: C5_7  and  C6_8
REMARK    4  A    between atoms: C6_8  and  O2_10
REMARK    5  A    between atoms: O2_10  and  C7_11
REMARK    6  A    between atoms: C7_11  and  N2_12
REMARK    7  A    between atoms: C7_11  and  C15_25
REMARK    8  A    between atoms: N2_12  and  C8_14
REMARK    9  A    between atoms: C11_17  and  C12_18
REMARK   10  A    between atoms: C15_25  and  C16_27
REMARK   11  A    between atoms: C16_27  and  N3_28
REMARK   12  A    between atoms: C16_27  and  C22_36
REMARK       I    between atoms: N3_28  and  C17_29
REMARK   13  A    between atoms: C17_29  and  O7_31
REMARK   14  A    between atoms: O7_31  and  C18_32
ROOT
HETATM    1  C7  UNL     1      27.239   6.495  12.535  1.00  0.00     0.301 C
ENDROOT
BRANCH   1   2
HETATM    2  O2  UNL     1      27.226   7.114  13.806  1.00  0.00    -0.287 OA
BRANCH   2   3
HETATM    3  C6  UNL     1      27.858   8.252  14.167  1.00  0.00     0.278 C
HETATM    4  O1  UNL     1      29.080   8.405  13.918  1.00  0.00    -0.263 OA
BRANCH   3   5
HETATM    5  C5  UNL     1      27.046   9.315  14.864  1.00  0.00     0.226 C
BRANCH   5   6
HETATM    6  N1  UNL     1      26.185   9.854  13.881  1.00  0.00    -0.405 N
ATOM      7  H1  UNL     1      26.559  10.234  13.012  1.00  0.00     0.154 HD
BRANCH   6   8
HETATM    8  C2  UNL     1      24.789   9.856  14.130  1.00  0.00     0.015 C
HETATM    9  C1  UNL     1      24.201  11.214  13.867  1.00  0.00     0.037 C
HETATM   10  C3  UNL     1      24.519   9.396  15.562  1.00  0.00     0.037 C
HETATM   11  C4  UNL     1      24.166   8.833  13.191  1.00  0.00     0.037 C
ENDBRANCH   6   8
ENDBRANCH   5   6
ENDBRANCH   3   5
ENDBRANCH   2   3
ENDBRANCH   1   2
BRANCH   1  12
HETATM   12  N2  UNL     1      27.140   7.479  11.480  1.00  0.00    -0.380 N
ATOM     13  H2  UNL     1      26.394   8.174  11.445  1.00  0.00     0.157 HD
BRANCH  12  14
HETATM   14  C8  UNL     1      28.132   7.407  10.525  1.00  0.00     0.048 C
HETATM   15  C9  UNL     1      29.423   6.660  11.085  1.00  0.00     0.043 C
HETATM   16  C10 UNL     1      30.099   7.497  10.036  1.00  0.00     0.077 C
HETATM   17  C11 UNL     1      29.135   8.563  10.448  1.00  0.00     0.124 C
HETATM   18  C13 UNL     1      29.546   6.930   8.771  1.00  0.00     0.250 C
HETATM   19  F1  UNL     1      29.716   7.716   7.659  1.00  0.00    -0.206 F
HETATM   20  F2  UNL     1      30.012   5.651   8.602  1.00  0.00    -0.206 F
HETATM   21  C14 UNL     1      28.052   6.860   9.176  1.00  0.00     0.111 C
BRANCH  17  22
HETATM   22  C12 UNL     1      28.835   9.666   9.568  1.00  0.00     0.180 C
HETATM   23  O3  UNL     1      29.728  10.424   9.132  1.00  0.00    -0.648 OA
HETATM   24  O4  UNL     1      27.523   9.931   9.168  1.00  0.00    -0.648 OA
ENDBRANCH  17  22
ENDBRANCH  12  14
ENDBRANCH   1  12
BRANCH   1  25
HETATM   25  C15 UNL     1      26.404   5.307  12.426  1.00  0.00     0.211 C
HETATM   26  O5  UNL     1      26.984   4.274  11.977  1.00  0.00    -0.290 OA
BRANCH  25  27
HETATM   27  C16 UNL     1      24.968   5.169  12.763  1.00  0.00     0.247 C
BRANCH  27  28
HETATM   28  N3  UNL     1      24.200   4.381  11.927  1.00  0.00    -0.377 NA
HETATM   29  C17 UNL     1      23.433   3.597  11.103  1.00  0.00     0.436 C
HETATM   30  O6  UNL     1      22.574   2.781  11.317  1.00  0.00    -0.221 OA
BRANCH  29  31
HETATM   31  O7  UNL     1      23.679   3.772   9.672  1.00  0.00    -0.283 OA
BRANCH  31  32
HETATM   32  C18 UNL     1      24.651   3.081   8.979  1.00  0.00     0.062 C
HETATM   33  C19 UNL     1      25.943   3.807   8.815  1.00  0.00     0.046 C
HETATM   34  C20 UNL     1      24.949   1.729   9.626  1.00  0.00     0.046 C
HETATM   35  C21 UNL     1      24.118   2.729   7.578  1.00  0.00     0.046 C
ENDBRANCH  31  32
ENDBRANCH  29  31
ENDBRANCH  27  28
BRANCH  27  36
HETATM   36  C22 UNL     1      24.824   4.788  14.242  1.00  0.00     0.029 A
HETATM   37  C23 UNL     1      24.172   5.740  15.194  1.00  0.00     0.009 A
HETATM   38  C24 UNL     1      23.567   4.348  14.832  1.00  0.00     0.009 A
ENDBRANCH  27  36
ENDBRANCH  25  27
ENDBRANCH   1  25
TORSDOF 14
ENDMDL