MODEL 1
REMARK VINA RESULT: -7.471949872      0.000      0.000
REMARK  11 active torsions:
REMARK  status: ('A' for Active; 'I' for Inactive)
REMARK    1  A    between atoms: C2_2  and  N1_3
REMARK    2  A    between atoms: C3_5  and  N2_7
REMARK       I    between atoms: N2_7  and  C4_9
REMARK       I    between atoms: C4_9  and  N3_11
REMARK    3  A    between atoms: N3_11  and  C5_13
REMARK    4  A    between atoms: C5_13  and  C6_14
REMARK    5  A    between atoms: C6_14  and  C7_15
REMARK    6  A    between atoms: C7_15  and  C8_16
REMARK    7  A    between atoms: C8_16  and  C9_17
REMARK    8  A    between atoms: C9_17  and  N4_18
REMARK       I    between atoms: N4_18  and  C10_20
REMARK    9  A    between atoms: C10_20  and  C11_22
REMARK   10  A    between atoms: C17_34  and  C18_35
REMARK   11  A    between atoms: C18_35  and  O3_37
ROOT
HETATM    1  N4  UNL     1      27.174   6.278   9.493  1.00  0.00    -0.356 N
ATOM      2  H4  UNL     1      26.950   7.136   8.988  1.00  0.00     0.162 HD
HETATM    3  C10 UNL     1      27.003   6.242  10.891  1.00  0.00     0.266 C
HETATM    4  O2  UNL     1      27.261   5.217  11.556  1.00  0.00    -0.266 OA
ENDROOT
BRANCH   1   5
HETATM    5  C9  UNL     1      27.665   5.119   8.744  1.00  0.00     0.123 C
BRANCH   5   6
HETATM    6  C8  UNL     1      26.555   4.438   8.029  1.00  0.00     0.020 C
BRANCH   6   7
HETATM    7  C7  UNL     1      25.884   3.347   8.796  1.00  0.00     0.003 C
BRANCH   7   8
HETATM    8  C6  UNL     1      24.532   2.967   8.294  1.00  0.00     0.020 C
BRANCH   8   9
HETATM    9  C5  UNL     1      23.409   3.482   9.160  1.00  0.00     0.124 C
BRANCH   9  10
HETATM   10  N3  UNL     1      23.897   4.371  10.198  1.00  0.00    -0.343 N
HETATM   11  C4  UNL     1      23.809   4.050  11.578  1.00  0.00     0.322 C
HETATM   12  N2  UNL     1      24.289   4.936  12.541  1.00  0.00    -0.285 N
HETATM   13  O1  UNL     1      23.293   2.962  11.904  1.00  0.00    -0.247 OA
ATOM     14  H2  UNL     1      24.706   5.821  12.252  1.00  0.00     0.173 HD
ATOM     15  H3  UNL     1      24.320   5.258   9.926  1.00  0.00     0.164 HD
BRANCH  12  16
HETATM   16  C3  UNL     1      24.203   4.617  13.918  1.00  0.00     0.178 C
HETATM   17  N1  UNL     1      23.054   4.237  14.388  1.00  0.00    -0.367 N
ATOM     18  H1  UNL     1      22.233   4.169  13.786  1.00  0.00     0.161 HD
HETATM   19 CL1  UNL     1      25.612   4.737  14.937  1.00  0.00    -0.045 Cl
BRANCH  17  20
HETATM   20  C2  UNL     1      22.982   3.916  15.795  1.00  0.00     0.117 C
HETATM   21  C1  UNL     1      21.626   4.417  16.283  1.00  0.00     0.026 C
ENDBRANCH  17  20
ENDBRANCH  12  16
ENDBRANCH   9  10
ENDBRANCH   8   9
ENDBRANCH   7   8
ENDBRANCH   6   7
ENDBRANCH   5   6
ENDBRANCH   1   5
BRANCH   3  22
HETATM   22  C11 UNL     1      26.514   7.424  11.585  1.00  0.00     0.102 C
HETATM   23  N5  UNL     1      26.727   7.555  12.855  1.00  0.00    -0.299 N
HETATM   24  N6  UNL     1      26.336   8.600  13.652  1.00  0.00    -0.302 N
ATOM     25  H5  UNL     1      27.241   6.802  13.311  1.00  0.00     0.186 HD
HETATM   26  C12 UNL     1      26.649   9.953  13.149  1.00  0.00     0.184 C
HETATM   27  C17 UNL     1      25.676   8.732  14.904  1.00  0.00     0.156 C
HETATM   28  S1  UNL     1      25.720  10.071  11.598  1.00  0.00    -0.134 SA
HETATM   29  C14 UNL     1      26.169  10.914  14.178  1.00  0.00     0.142 C
HETATM   30  C13 UNL     1      25.781   8.443  10.821  1.00  0.00     0.140 C
HETATM   31 CL2  UNL     1      27.432  12.179  14.365  1.00  0.00    -0.120 Cl
HETATM   32  C15 UNL     1      26.049  10.100  15.423  1.00  0.00     0.077 C
HETATM   33  C16 UNL     1      25.016  10.650  16.359  1.00  0.00     0.036 C
HETATM   34 CL3  UNL     1      27.623  10.043  16.285  1.00  0.00    -0.116 Cl
BRANCH  27  35
HETATM   35  C18 UNL     1      24.202   8.523  14.813  1.00  0.00     0.140 C
HETATM   36  C19 UNL     1      23.777   7.578  15.913  1.00  0.00     0.041 C
BRANCH  35  37
HETATM   37  O3  UNL     1      23.910   7.918  13.586  1.00  0.00    -0.394 OA
ATOM     38  H3  UNL     1      22.999   7.646  13.589  1.00  0.00     0.210 HD
ENDBRANCH  35  37
ENDBRANCH  27  35
ENDBRANCH   3  22
TORSDOF 11
ENDMDL