MODEL 4
REMARK VINA RESULT: -6.142775718      3.503      5.495
REMARK  15 active torsions:
REMARK  status: ('A' for Active; 'I' for Inactive)
REMARK    1  A    between atoms: O1_2  and  C2_3
REMARK    2  A    between atoms: C2_3  and  C4_5
REMARK    3  A    between atoms: C2_3  and  C23_37
REMARK    4  A    between atoms: C4_5  and  C5_6
REMARK    5  A    between atoms: C5_6  and  C6_7
REMARK    6  A    between atoms: C10_11  and  C11_12
REMARK    7  A    between atoms: C15_17  and  O2_18
REMARK    8  A    between atoms: C16_20  and  O3_21
REMARK    9  A    between atoms: C17_23  and  O4_24
REMARK   10  A    between atoms: C20_30  and  O6_31
REMARK   11  A    between atoms: C21_33  and  C22_34
REMARK   12  A    between atoms: C22_34  and  O7_35
REMARK   13  A    between atoms: C23_37  and  C24_38
REMARK   14  A    between atoms: C24_38  and  C25_39
REMARK   15  A    between atoms: C25_39  and  C26_40
ROOT
HETATM    1  C6  UNL     1      26.198   5.829  11.249  1.00  0.00     0.011 C
HETATM    2  C7  UNL     1      26.753   6.340  10.117  1.00  0.00    -0.008 C
HETATM    3  C8  UNL     1      27.342   7.683   9.986  1.00  0.00     0.037 C
HETATM    4  C9  UNL     1      27.001   8.418  11.229  1.00  0.00     0.041 C
HETATM    5  C10 UNL     1      27.587   9.758  11.413  1.00  0.00     0.023 C
HETATM    6  C14 UNL     1      26.997  10.361  12.655  1.00  0.00     0.032 C
HETATM    7  C15 UNL     1      25.536  10.548  12.737  1.00  0.00     0.156 C
HETATM    8  C16 UNL     1      24.706   9.710  13.642  1.00  0.00     0.202 C
HETATM    9  C17 UNL     1      24.450   8.309  13.318  1.00  0.00     0.289 C
HETATM   10  O5  UNL     1      25.065   7.409  12.550  1.00  0.00    -0.345 OA
HETATM   11  C18 UNL     1      26.158   6.595  12.495  1.00  0.00     0.208 C
HETATM   12  C19 UNL     1      27.390   7.521  12.364  1.00  0.00     0.164 C
HETATM   13  F1  UNL     1      28.381   6.596  12.008  1.00  0.00    -0.237 F
HETATM   14  C20 UNL     1      27.816   8.153  13.616  1.00  0.00     0.167 C
HETATM   15  C21 UNL     1      27.572   9.594  13.846  1.00  0.00     0.048 C
ENDROOT
BRANCH   1  16
HETATM   16  C5  UNL     1      25.709   4.464  11.063  1.00  0.00    -0.143 C
BRANCH  16  17
HETATM   17  C4  UNL     1      25.313   3.361  10.913  1.00  0.00     0.123 C
BRANCH  17  18
HETATM   18  C2  UNL     1      24.279   2.604  10.169  1.00  0.00     0.066 C
HETATM   19  C3  UNL     1      24.869   1.302   9.687  1.00  0.00     0.047 C
BRANCH  18  20
HETATM   20  O1  UNL     1      23.094   2.452  10.856  1.00  0.00    -0.385 OA
HETATM   21  C1  UNL     1      22.763   3.432  11.745  1.00  0.00     0.202 C
ENDBRANCH  18  20
BRANCH  18  22
HETATM   22  C23 UNL     1      23.881   3.418   8.914  1.00  0.00     0.038 C
BRANCH  22  23
HETATM   23  C24 UNL     1      24.656   2.932   7.735  1.00  0.00     0.005 C
BRANCH  23  24
HETATM   24  C25 UNL     1      25.658   3.945   7.197  1.00  0.00     0.031 C
BRANCH  24  25
HETATM   25  C26 UNL     1      27.053   3.587   7.694  1.00  0.00     0.222 C
HETATM   26  F2  UNL     1      27.863   4.697   7.636  1.00  0.00    -0.255 F
ENDBRANCH  24  25
ENDBRANCH  23  24
ENDBRANCH  22  23
ENDBRANCH  18  22
ENDBRANCH  17  18
ENDBRANCH  16  17
ENDBRANCH   1  16
BRANCH   9  27
HETATM   27  O4  UNL     1      23.375   7.857  13.927  1.00  0.00    -0.368 OA
ATOM     28  H4  UNL     1      23.032   7.079  13.504  1.00  0.00     0.212 HD
ENDBRANCH   9  27
BRANCH  14  29
HETATM   29  O6  UNL     1      27.408   7.319  14.664  1.00  0.00    -0.392 OA
ATOM     30  H6  UNL     1      27.250   7.872  15.421  1.00  0.00     0.210 HD
ENDBRANCH  14  29
BRANCH   5  31
HETATM   31  C11 UNL     1      27.913  10.585  10.258  1.00  0.00     0.034 C
HETATM   32  C12 UNL     1      26.978  10.740   9.115  1.00  0.00     0.032 C
HETATM   33  C13 UNL     1      28.138  12.049  10.756  1.00  0.00     0.032 C
HETATM   34 CL1  UNL     1      29.514  10.194   9.566  1.00  0.00    -0.120 Cl
ENDBRANCH   5  31
BRANCH   8  35
HETATM   35  O3  UNL     1      23.417  10.366  13.550  1.00  0.00    -0.388 OA
ATOM     36  H3  UNL     1      22.822   9.648  13.732  1.00  0.00     0.210 HD
ENDBRANCH   8  35
BRANCH  15  37
HETATM   37  C22 UNL     1      28.786  10.327  14.402  1.00  0.00     0.172 C
BRANCH  37  38
HETATM   38  O7  UNL     1      29.374   9.660  15.465  1.00  0.00    -0.400 OA
ATOM     39  H7  UNL     1      29.398  10.182  16.258  1.00  0.00     0.209 HD
ENDBRANCH  37  38
ENDBRANCH  15  37
BRANCH   7  40
HETATM   40  O2  UNL     1      24.819  10.695  11.592  1.00  0.00    -0.392 OA
ATOM     41  H2  UNL     1      24.877  10.027  10.919  1.00  0.00     0.210 HD
ENDBRANCH   7  40
TORSDOF 15
ENDMDL