MODEL 1
REMARK VINA RESULT: -7.803666359      0.000      0.000
REMARK  13 active torsions:
REMARK  status: ('A' for Active; 'I' for Inactive)
REMARK    1  A    between atoms: C1_2  and  C2_5
REMARK    2  A    between atoms: C4_9  and  N2_10
REMARK    3  A    between atoms: N2_10  and  C5_12
REMARK    4  A    between atoms: C5_12  and  C6_13
REMARK    5  A    between atoms: C6_13  and  C7_14
REMARK    6  A    between atoms: C7_14  and  N3_15
REMARK    7  A    between atoms: N3_15  and  C8_17
REMARK    8  A    between atoms: C10_21  and  N5_22
REMARK    9  A    between atoms: N5_22  and  C11_24
REMARK   10  A    between atoms: C11_24  and  C12_25
REMARK   11  A    between atoms: C18_36  and  N8_37
REMARK   12  A    between atoms: N8_37  and  C19_38
REMARK   13  A    between atoms: C19_38  and  C20_39
ROOT
HETATM    1  N2  UNL     1      26.716   6.200  13.721  1.00  0.00    -0.226 N
ATOM      2  H2  UNL     1      27.011   6.770  14.514  1.00  0.00     0.177 HD
ENDROOT
BRANCH   1   3
HETATM    3  C4  UNL     1      27.232   6.385  12.530  1.00  0.00     0.680 A
HETATM    4  N1  UNL     1      28.174   7.320  12.308  1.00  0.00    -0.201 N
HETATM    5  C3  UNL     1      28.694   7.505  11.085  1.00  0.00     0.127 A
ATOM      6  H1  UNL     1      28.498   7.898  13.084  1.00  0.00     0.183 HD
HETATM    7  C2  UNL     1      28.282   6.744  10.018  1.00  0.00     0.122 A
HETATM    8  C18 UNL     1      27.301   5.762  10.225  1.00  0.00     0.208 A
HETATM    9  N7  UNL     1      26.815   5.633  11.516  1.00  0.00    -0.164 N
ATOM     10  H7  UNL     1      26.101   4.927  11.697  1.00  0.00     0.187 HD
BRANCH   7  11
HETATM   11  C1  UNL     1      28.885   6.960   8.673  1.00  0.00     0.423 C
HETATM   12  F1  UNL     1      29.525   5.843   8.216  1.00  0.00    -0.166 F
HETATM   13  F2  UNL     1      29.864   7.958   8.747  1.00  0.00    -0.166 F
HETATM   14  F3  UNL     1      27.970   7.407   7.742  1.00  0.00    -0.166 F
ENDBRANCH   7  11
BRANCH   8  15
HETATM   15  N8  UNL     1      26.918   5.095   9.316  1.00  0.00    -0.402 NA
BRANCH  15  16
HETATM   16  C19 UNL     1      26.465   4.358   8.302  1.00  0.00     0.162 C
BRANCH  16  17
HETATM   17  C20 UNL     1      25.154   3.593   8.587  1.00  0.00     0.042 C
HETATM   18  C21 UNL     1      24.387   4.391   9.602  1.00  0.00     0.037 C
HETATM   19  C22 UNL     1      23.164   3.587  10.060  1.00  0.00     0.168 C
HETATM   20  O2  UNL     1      23.666   2.442  10.693  1.00  0.00    -0.391 OA
HETATM   21  C23 UNL     1      24.267   1.600   9.756  1.00  0.00     0.168 C
HETATM   22  C24 UNL     1      25.510   2.254   9.218  1.00  0.00     0.037 C
ENDBRANCH  16  17
ENDBRANCH  15  16
ENDBRANCH   8  15
ENDBRANCH   1   3
BRANCH   1  23
HETATM   23  C5  UNL     1      25.730   5.181  13.880  1.00  0.00     0.139 C
BRANCH  23  24
HETATM   24  C6  UNL     1      25.152   5.141  15.281  1.00  0.00     0.040 C
BRANCH  24  25
HETATM   25  C7  UNL     1      23.839   5.858  15.292  1.00  0.00     0.121 C
BRANCH  25  26
HETATM   26  N3  UNL     1      24.006   7.161  15.898  1.00  0.00    -0.388 N
ATOM     27  H3  UNL     1      24.013   7.221  16.917  1.00  0.00     0.159 HD
BRANCH  26  28
HETATM   28  C8  UNL     1      24.160   8.361  15.153  1.00  0.00     0.060 A
HETATM   29  C9  UNL     1      24.718   9.454  15.782  1.00  0.00     0.136 A
HETATM   30  N4  UNL     1      24.851  10.594  15.075  1.00  0.00    -0.200 N
HETATM   31  C10 UNL     1      24.474  10.732  13.795  1.00  0.00     0.677 A
ATOM     32  H4  UNL     1      25.265  11.401  15.542  1.00  0.00     0.183 HD
HETATM   33  N6  UNL     1      23.930   9.664  13.186  1.00  0.00    -0.200 N
HETATM   34  C17 UNL     1      23.766   8.482  13.840  1.00  0.00     0.136 A
ATOM     35  H6  UNL     1      23.635   9.742  12.213  1.00  0.00     0.183 HD
BRANCH  31  36
HETATM   36  N5  UNL     1      24.622  11.861  13.144  1.00  0.00    -0.224 N
ATOM     37  H5  UNL     1      24.362  12.741  13.591  1.00  0.00     0.177 HD
BRANCH  36  38
HETATM   38  C11 UNL     1      25.152  11.870  11.795  1.00  0.00     0.170 C
BRANCH  38  39
HETATM   39  C12 UNL     1      26.543  11.264  11.805  1.00  0.00     0.139 C
HETATM   40  C13 UNL     1      27.465  12.002  10.857  1.00  0.00     0.034 C
HETATM   41  C14 UNL     1      27.989  11.006   9.840  1.00  0.00     0.005 C
HETATM   42  C15 UNL     1      26.766  10.381   9.169  1.00  0.00     0.026 C
HETATM   43  C16 UNL     1      26.003   9.632  10.246  1.00  0.00     0.168 C
HETATM   44  O1  UNL     1      26.503   9.902  11.510  1.00  0.00    -0.384 OA
ENDBRANCH  38  39
ENDBRANCH  36  38
ENDBRANCH  31  36
ENDBRANCH  26  28
ENDBRANCH  25  26
ENDBRANCH  24  25
ENDBRANCH  23  24
ENDBRANCH   1  23
TORSDOF 13
ENDMDL