MODEL 5
REMARK VINA RESULT: -8.073880960      2.865      4.772
REMARK  14 active torsions:
REMARK  status: ('A' for Active; 'I' for Inactive)
REMARK    1  A    between atoms: C2_2  and  C3_3
REMARK    2  A    between atoms: C2_2  and  C23_39
REMARK    3  A    between atoms: C3_3  and  N1_4
REMARK    4  A    between atoms: N1_4  and  C4_7
REMARK    5  A    between atoms: C4_7  and  C5_8
REMARK    6  A    between atoms: C4_7  and  C12_15
REMARK    7  A    between atoms: C5_8  and  C6_9
REMARK    8  A    between atoms: C12_15  and  N2_16
REMARK    9  A    between atoms: C15_22  and  C16_23
REMARK   10  A    between atoms: C16_23  and  O2_25
REMARK   11  A    between atoms: O2_25  and  C17_26
REMARK   12  A    between atoms: C19_29  and  C20_30
REMARK   13  A    between atoms: C21_33  and  O4_34
REMARK   14  A    between atoms: C22_36  and  O5_37
ROOT
HETATM    1  N2  UNL     1      25.619   9.306  11.731  1.00  0.00    -0.355 N
HETATM    2  C13 UNL     1      26.263  10.460  11.407  1.00  0.00     0.152 C
HETATM    3  C14 UNL     1      25.350  11.543  11.989  1.00  0.00     0.255 C
HETATM    4  N3  UNL     1      24.333  10.838  12.816  1.00  0.00    -0.043 N
ATOM      5  H31 UNL     1      23.391  10.825  12.428  1.00  0.00     0.280 HD
ATOM      6  H32 UNL     1      24.072  11.311  13.681  1.00  0.00     0.280 HD
HETATM    7  C15 UNL     1      24.952   9.525  12.990  1.00  0.00     0.386 C
ENDROOT
BRANCH   1   8
HETATM    8  C12 UNL     1      24.923   8.378  10.946  1.00  0.00     0.093 C
BRANCH   8   9
HETATM    9  C4  UNL     1      25.527   7.042  10.682  1.00  0.00     0.224 C
BRANCH   9  10
HETATM   10  N1  UNL     1      24.840   5.999  11.419  1.00  0.00    -0.066 N
ATOM     11  H12 UNL     1      23.829   6.101  11.333  1.00  0.00     0.278 HD
ATOM     12  H11 UNL     1      24.938   6.141  12.425  1.00  0.00     0.278 HD
BRANCH  10  13
HETATM   13  C3  UNL     1      25.250   4.677  11.052  1.00  0.00     0.238 C
BRANCH  13  14
HETATM   14  C2  UNL     1      24.399   4.111   9.951  1.00  0.00     0.014 C
HETATM   15  C1  UNL     1      23.022   3.677  10.408  1.00  0.00     0.012 C
BRANCH  14  16
HETATM   16  C23 UNL     1      25.056   3.228   8.963  1.00  0.00    -0.047 C
HETATM   17  C24 UNL     1      26.348   3.674   8.388  1.00  0.00     0.015 C
HETATM   18  C25 UNL     1      24.038   2.923   7.843  1.00  0.00     0.015 C
HETATM   19  C26 UNL     1      25.293   1.855   9.613  1.00  0.00     0.015 C
ENDBRANCH  14  16
ENDBRANCH  13  14
ENDBRANCH  10  13
ENDBRANCH   9  10
BRANCH   9  20
HETATM   20  C5  UNL     1      26.938   7.015  11.207  1.00  0.00     0.043 C
BRANCH  20  21
HETATM   21  C6  UNL     1      28.124   6.984  10.353  1.00  0.00    -0.012 C
HETATM   22  C7  UNL     1      28.102   6.841   8.904  1.00  0.00     0.005 C
HETATM   23  C8  UNL     1      29.521   6.540   8.389  1.00  0.00     0.000 C
HETATM   24  C9  UNL     1      30.558   6.776   9.459  1.00  0.00     0.000 C
HETATM   25  C10 UNL     1      30.332   5.935  10.682  1.00  0.00     0.000 C
HETATM   26  C11 UNL     1      28.872   5.690  10.854  1.00  0.00     0.005 C
ENDBRANCH  20  21
ENDBRANCH   9  20
ENDBRANCH   8   9
ENDBRANCH   1   8
BRANCH   7  27
HETATM   27  C16 UNL     1      25.715   9.347  14.172  1.00  0.00     0.312 C
HETATM   28  O1  UNL     1      25.965  10.366  14.926  1.00  0.00    -0.261 OA
BRANCH  27  29
HETATM   29  O2  UNL     1      26.248   8.161  14.601  1.00  0.00    -0.284 OA
BRANCH  29  30
HETATM   30  C17 UNL     1      25.547   7.354  15.528  1.00  0.00     0.300 C
HETATM   31  O3  UNL     1      24.255   7.334  15.374  1.00  0.00    -0.357 OA
HETATM   32  C18 UNL     1      23.516   6.396  14.751  1.00  0.00     0.183 C
HETATM   33  C19 UNL     1      24.091   5.027  14.734  1.00  0.00     0.106 C
HETATM   34  C21 UNL     1      25.204   4.915  15.776  1.00  0.00     0.163 C
HETATM   35  C22 UNL     1      26.217   5.951  15.313  1.00  0.00     0.203 C
BRANCH  33  36
HETATM   36  C20 UNL     1      23.131   3.901  15.012  1.00  0.00     0.361 C
HETATM   37  F1  UNL     1      21.985   4.350  15.621  1.00  0.00    -0.214 F
HETATM   38  F2  UNL     1      22.755   3.397  13.757  1.00  0.00    -0.214 F
ENDBRANCH  33  36
BRANCH  34  39
HETATM   39  O4  UNL     1      24.642   5.202  16.996  1.00  0.00    -0.392 OA
ATOM     40  H4  UNL     1      25.354   5.434  17.582  1.00  0.00     0.210 HD
ENDBRANCH  34  39
BRANCH  35  41
HETATM   41  O5  UNL     1      26.482   5.801  13.987  1.00  0.00    -0.388 OA
ATOM     42  H5  UNL     1      25.665   5.627  13.536  1.00  0.00     0.210 HD
ENDBRANCH  35  41
ENDBRANCH  29  30
ENDBRANCH  27  29
ENDBRANCH   7  27
TORSDOF 14
ENDMDL