MODEL 4
REMARK VINA RESULT: -6.922566460      2.924      6.496
REMARK  9 active torsions:
REMARK  status: ('A' for Active; 'I' for Inactive)
REMARK    1  A    between atoms: C2_2  and  C3_3
REMARK    2  A    between atoms: C3_3  and  O1_4
REMARK    3  A    between atoms: C3_3  and  C4_6
REMARK    4  A    between atoms: C3_3  and  C5_8
REMARK    5  A    between atoms: C8_13  and  O2_14
REMARK    6  A    between atoms: C8_13  and  C10_16
REMARK    7  A    between atoms: C10_16  and  C11_17
REMARK    8  A    between atoms: C10_16  and  C20_33
REMARK       I    between atoms: C11_17  and  N2_19
REMARK       I    between atoms: N2_19  and  C12_21
REMARK    9  A    between atoms: C12_21  and  C13_23
ROOT
HETATM    1  C10 UNL     1      26.222  10.770  14.166  1.00  0.00     0.202 C
ENDROOT
BRANCH   1   2
HETATM    2  C8  UNL     1      25.736   9.379  14.507  1.00  0.00     0.267 C
HETATM    3  N1  UNL     1      25.108   8.770  13.387  1.00  0.00    -0.366 N
HETATM    4  C7  UNL     1      24.685   7.434  13.572  1.00  0.00     0.141 C
ATOM      5  H1  UNL     1      24.970   9.266  12.506  1.00  0.00     0.158 HD
HETATM    6  C5  UNL     1      25.741   6.541  14.184  1.00  0.00     0.093 C
HETATM    7  C6  UNL     1      26.555   5.934  13.025  1.00  0.00     0.031 C
HETATM    8  C22 UNL     1      26.727   7.261  15.007  1.00  0.00     0.276 C
HETATM    9  O5  UNL     1      26.827   8.620  14.928  1.00  0.00    -0.262 OA
HETATM   10  O6  UNL     1      27.473   6.622  15.778  1.00  0.00    -0.264 OA
BRANCH   6  11
HETATM   11  C3  UNL     1      25.131   5.379  14.905  1.00  0.00     0.101 C
BRANCH  11  12
HETATM   12  C2  UNL     1      24.077   4.758  13.996  1.00  0.00     0.037 C
HETATM   13  C1  UNL     1      23.065   3.970  14.837  1.00  0.00     0.008 C
ENDBRANCH  11  12
BRANCH  11  14
HETATM   14  O1  UNL     1      26.099   4.417  15.136  1.00  0.00    -0.386 OA
ATOM     15  H1  UNL     1      25.975   4.094  16.020  1.00  0.00     0.210 HD
ENDBRANCH  11  14
BRANCH  11  16
HETATM   16  C4  UNL     1      24.448   5.711  16.190  1.00  0.00     0.261 C
HETATM   17  F1  UNL     1      23.613   6.785  16.155  1.00  0.00    -0.252 F
ENDBRANCH  11  16
ENDBRANCH   6  11
BRANCH   2  18
HETATM   18  O2  UNL     1      24.778   9.458  15.497  1.00  0.00    -0.342 OA
HETATM   19  C9  UNL     1      23.847  10.447  15.366  1.00  0.00     0.207 C
ENDBRANCH   2  18
ENDBRANCH   1   2
BRANCH   1  20
HETATM   20  C11 UNL     1      26.803  10.719  12.752  1.00  0.00     0.238 C
HETATM   21  O3  UNL     1      26.744  11.712  11.993  1.00  0.00    -0.272 OA
HETATM   22  N2  UNL     1      27.431   9.537  12.248  1.00  0.00    -0.295 N
HETATM   23  C12 UNL     1      27.946   9.476  10.932  1.00  0.00     0.255 C
ATOM     24  H2  UNL     1      27.510   8.719  12.852  1.00  0.00     0.171 HD
HETATM   25  O4  UNL     1      27.817  10.519  10.201  1.00  0.00    -0.271 OA
BRANCH  23  26
HETATM   26  C13 UNL     1      28.594   8.278  10.418  1.00  0.00     0.285 C
HETATM   27  N3  UNL     1      28.758   8.389   8.935  1.00  0.00    -0.062 N
HETATM   28  C14 UNL     1      28.857   7.038   8.468  1.00  0.00     0.233 C
ATOM     29  H32 UNL     1      28.024   8.931   8.478  1.00  0.00     0.278 HD
ATOM     30  H31 UNL     1      29.537   8.982   8.649  1.00  0.00     0.278 HD
HETATM   31  C15 UNL     1      29.822   6.176   9.180  1.00  0.00     0.028 C
HETATM   32  C16 UNL     1      30.499   6.726  10.359  1.00  0.00     0.013 C
HETATM   33  C17 UNL     1      30.004   8.050  10.864  1.00  0.00    -0.010 C
HETATM   34  C18 UNL     1      30.854   9.123  10.164  1.00  0.00     0.017 C
HETATM   35  C19 UNL     1      30.253   8.196  12.335  1.00  0.00     0.017 C
ENDBRANCH  23  26
ENDBRANCH   1  20
BRANCH   1  36
HETATM   36  C20 UNL     1      27.331  11.219  15.078  1.00  0.00     0.129 C
HETATM   37  C21 UNL     1      28.707  10.720  14.771  1.00  0.00     0.051 C
HETATM   38 CL1  UNL     1      26.976  10.789  16.799  1.00  0.00    -0.101 Cl
HETATM   39 CL2  UNL     1      27.455  13.016  15.095  1.00  0.00    -0.101 Cl
ENDBRANCH   1  36
TORSDOF 9
ENDMDL