MODEL 3
REMARK VINA RESULT: -8.488674098      0.701      1.003
REMARK  11 active torsions:
REMARK  status: ('A' for Active; 'I' for Inactive)
REMARK    1  A    between atoms: N1_1  and  C1_4
REMARK    2  A    between atoms: C3_8  and  C4_9
REMARK    3  A    between atoms: N3_12  and  C7_13
REMARK    4  A    between atoms: C7_13  and  C8_14
REMARK    5  A    between atoms: C8_14  and  C9_15
REMARK    6  A    between atoms: C12_18  and  N4_19
REMARK       I    between atoms: N4_19  and  C13_21
REMARK    7  A    between atoms: C13_21  and  C14_23
REMARK    8  A    between atoms: C14_23  and  C15_24
REMARK    9  A    between atoms: C15_24  and  C16_25
REMARK   10  A    between atoms: C16_25  and  N5_26
REMARK   11  A    between atoms: C24_37  and  C25_38
ROOT
HETATM    1  C4  UNL     1      28.050   5.611   9.766  1.00  0.00     0.122 C
HETATM    2  C5  UNL     1      28.650   5.957  11.137  1.00  0.00     0.036 C
HETATM    3  C6  UNL     1      30.123   6.205  10.892  1.00  0.00     0.122 C
HETATM    4  N3  UNL     1      30.372   7.211   9.907  1.00  0.00    -0.188 NA
HETATM    5  O3  UNL     1      29.242   7.691   9.288  1.00  0.00    -0.224 OA
HETATM    6  C22 UNL     1      28.251   6.809   8.931  1.00  0.00     0.284 C
HETATM    7  O4  UNL     1      27.540   7.015   7.931  1.00  0.00    -0.263 OA
ENDROOT
BRANCH   4   8
HETATM    8  C7  UNL     1      31.154   8.276  10.478  1.00  0.00     0.121 C
BRANCH   8   9
HETATM    9  C8  UNL     1      30.544   9.637  10.120  1.00  0.00     0.021 C
BRANCH   9  10
HETATM   10  C9  UNL     1      29.868  10.201  11.333  1.00  0.00    -0.011 C
HETATM   11  C10 UNL     1      30.108   9.262  12.506  1.00  0.00     0.007 C
HETATM   12  C11 UNL     1      28.993   9.592  13.497  1.00  0.00     0.025 C
HETATM   13  C12 UNL     1      27.840  10.010  12.610  1.00  0.00     0.084 C
HETATM   14  C21 UNL     1      28.345  10.063  11.203  1.00  0.00     0.029 C
BRANCH  13  15
HETATM   15  N4  UNL     1      26.690   9.140  12.789  1.00  0.00    -0.356 N
HETATM   16  C13 UNL     1      25.422   9.619  13.179  1.00  0.00     0.217 C
HETATM   17  O1  UNL     1      25.264  10.838  13.382  1.00  0.00    -0.274 OA
ATOM     18  H4  UNL     1      26.805   8.141  12.625  1.00  0.00     0.162 HD
BRANCH  16  19
HETATM   19  C14 UNL     1      24.297   8.689  13.345  1.00  0.00     0.104 C
BRANCH  19  20
HETATM   20  C15 UNL     1      24.101   8.420  14.817  1.00  0.00     0.039 C
BRANCH  20  21
HETATM   21  C16 UNL     1      25.054   7.368  15.278  1.00  0.00     0.273 C
BRANCH  21  22
HETATM   22  N5  UNL     1      24.417   6.111  15.520  1.00  0.00     0.092 N
HETATM   23  C17 UNL     1      24.839   5.180  14.512  1.00  0.00     0.298 C
HETATM   24  C18 UNL     1      23.682   4.347  14.001  1.00  0.00     0.198 C
HETATM   25  O2  UNL     1      23.056   3.795  15.113  1.00  0.00    -0.388 OA
HETATM   26  C19 UNL     1      22.488   4.755  15.912  1.00  0.00     0.198 C
HETATM   27  C20 UNL     1      22.995   6.158  15.648  1.00  0.00     0.298 C
ENDBRANCH  21  22
ENDBRANCH  20  21
ENDBRANCH  19  20
ENDBRANCH  16  19
ENDBRANCH  13  15
ENDBRANCH   9  10
ENDBRANCH   8   9
ENDBRANCH   4   8
BRANCH   1  28
HETATM   28  C3  UNL     1      26.653   5.205   9.870  1.00  0.00    -0.028 A
HETATM   29  C2  UNL     1      25.769   5.899  10.653  1.00  0.00     0.097 A
HETATM   30  N2  UNL     1      24.471   5.479  10.718  1.00  0.00    -0.351 N
HETATM   31  C1  UNL     1      24.000   4.426  10.061  1.00  0.00     0.113 A
ATOM     32  H2  UNL     1      23.826   6.006  11.305  1.00  0.00     0.166 HD
HETATM   33  C24 UNL     1      24.863   3.702   9.260  1.00  0.00     0.091 A
HETATM   34  C23 UNL     1      26.202   4.111   9.176  1.00  0.00     0.029 A
BRANCH  31  35
HETATM   35  N1  UNL     1      22.750   4.046  10.142  1.00  0.00    -0.385 N
ATOM     36  H12 UNL     1      22.049   4.543   9.591  1.00  0.00     0.157 HD
ATOM     37  H11 UNL     1      22.449   3.273  10.735  1.00  0.00     0.157 HD
ENDBRANCH  31  35
BRANCH  33  38
HETATM   38  C25 UNL     1      24.341   2.530   8.530  1.00  0.00     0.421 C
HETATM   39  F1  UNL     1      24.481   2.682   7.171  1.00  0.00    -0.166 F
HETATM   40  F2  UNL     1      24.998   1.397   8.996  1.00  0.00    -0.166 F
HETATM   41  F3  UNL     1      22.998   2.367   8.883  1.00  0.00    -0.166 F
ENDBRANCH  33  38
ENDBRANCH   1  28
TORSDOF 11
ENDMDL