MODEL 1
REMARK VINA RESULT: -8.498176833      0.000      0.000
REMARK  13 active torsions:
REMARK  status: ('A' for Active; 'I' for Inactive)
REMARK    1  A    between atoms: C2_2  and  O1_5
REMARK    2  A    between atoms: O1_5  and  C5_6
REMARK       I    between atoms: C5_6  and  N1_8
REMARK    3  A    between atoms: N1_8  and  C6_10
REMARK    4  A    between atoms: C6_10  and  C7_11
REMARK    5  A    between atoms: C6_10  and  C22_38
REMARK       I    between atoms: C7_11  and  N2_13
REMARK    6  A    between atoms: N2_13  and  C8_15
REMARK    7  A    between atoms: C8_15  and  C9_16
REMARK    8  A    between atoms: C8_15  and  C15_24
REMARK    9  A    between atoms: C9_16  and  C10_17
REMARK   10  A    between atoms: C15_24  and  O4_25
REMARK   11  A    between atoms: C15_24  and  C16_27
REMARK   12  A    between atoms: C16_27  and  N4_30
REMARK   13  A    between atoms: C20_35  and  C21_36
ROOT
HETATM    1  C8  UNL     1      25.911   8.289  13.580  1.00  0.00     0.122 C
ENDROOT
BRANCH   1   2
HETATM    2  N2  UNL     1      26.262   7.692  12.310  1.00  0.00    -0.349 N
HETATM    3  C7  UNL     1      27.473   7.163  11.860  1.00  0.00     0.265 C
HETATM    4  O3  UNL     1      28.492   7.227  12.573  1.00  0.00    -0.266 OA
ATOM      5  H2  UNL     1      25.500   7.651  11.633  1.00  0.00     0.163 HD
BRANCH   3   6
HETATM    6  C6  UNL     1      27.592   6.509  10.512  1.00  0.00     0.089 C
BRANCH   6   7
HETATM    7  N1  UNL     1      27.030   5.211  10.497  1.00  0.00    -0.300 N
HETATM    8  C5  UNL     1      25.684   4.836  10.483  1.00  0.00     0.365 C
HETATM    9  O2  UNL     1      24.781   5.712  10.483  1.00  0.00    -0.238 OA
ATOM     10  H1  UNL     1      27.700   4.442  10.498  1.00  0.00     0.171 HD
BRANCH   8  11
HETATM   11  O1  UNL     1      25.298   3.517  10.473  1.00  0.00    -0.294 OA
BRANCH  11  12
HETATM   12  C2  UNL     1      24.652   2.847   9.456  1.00  0.00     0.061 C
HETATM   13  C1  UNL     1      24.956   1.355   9.624  1.00  0.00     0.046 C
HETATM   14  C3  UNL     1      25.111   3.230   8.067  1.00  0.00     0.046 C
HETATM   15  C4  UNL     1      23.166   3.027   9.569  1.00  0.00     0.046 C
ENDBRANCH  11  12
ENDBRANCH   8  11
ENDBRANCH   6   7
BRANCH   6  16
HETATM   16  C22 UNL     1      28.889   6.787   9.877  1.00  0.00    -0.003 C
HETATM   17  C23 UNL     1      28.849   6.283   8.407  1.00  0.00     0.021 C
HETATM   18  C24 UNL     1      30.004   5.959  10.522  1.00  0.00     0.021 C
HETATM   19  C25 UNL     1      29.265   8.234   9.809  1.00  0.00     0.021 C
ENDBRANCH   6  16
ENDBRANCH   3   6
ENDBRANCH   1   2
BRANCH   1  20
HETATM   20  C9  UNL     1      25.816   7.210  14.541  1.00  0.00     0.034 C
BRANCH  20  21
HETATM   21  C10 UNL     1      24.715   6.272  14.691  1.00  0.00     0.005 C
HETATM   22  C11 UNL     1      23.547   6.724  15.559  1.00  0.00     0.008 C
HETATM   23  C12 UNL     1      22.563   5.587  15.682  1.00  0.00     0.020 C
HETATM   24  C13 UNL     1      23.114   4.252  15.218  1.00  0.00     0.113 C
HETATM   25  N3  UNL     1      24.414   4.074  15.781  1.00  0.00    -0.421 N
HETATM   26  C14 UNL     1      25.330   5.132  15.565  1.00  0.00     0.118 C
ATOM     27  H3  UNL     1      24.667   3.236  16.305  1.00  0.00     0.153 HD
ENDBRANCH  20  21
ENDBRANCH   1  20
BRANCH   1  28
HETATM   28  C15 UNL     1      24.855   9.287  13.435  1.00  0.00     0.246 C
BRANCH  28  29
HETATM   29  O4  UNL     1      23.793   8.833  12.594  1.00  0.00    -0.385 OA
ATOM     30  H4  UNL     1      22.981   9.297  12.757  1.00  0.00     0.210 HD
ENDBRANCH  28  29
BRANCH  28  31
HETATM   31  C16 UNL     1      25.199  10.702  13.002  1.00  0.00     0.467 C
HETATM   32  F1  UNL     1      26.543  10.965  13.072  1.00  0.00    -0.170 F
HETATM   33  F2  UNL     1      24.862  10.865  11.662  1.00  0.00    -0.170 F
BRANCH  31  34
HETATM   34  N4  UNL     1      24.461  11.644  13.750  1.00  0.00     0.174 N
HETATM   35  C17 UNL     1      24.843  11.797  15.098  1.00  0.00     0.307 C
HETATM   36  C18 UNL     1      23.765  12.528  15.914  1.00  0.00     0.198 C
HETATM   37  O5  UNL     1      23.133  13.444  15.096  1.00  0.00    -0.387 OA
HETATM   38  C19 UNL     1      24.094  13.976  14.218  1.00  0.00     0.206 C
HETATM   39  C20 UNL     1      24.270  12.898  13.112  1.00  0.00     0.282 C
BRANCH  39  40
HETATM   40  C21 UNL     1      22.978  13.011  12.317  1.00  0.00     0.260 C
HETATM   41  F3  UNL     1      23.248  13.732  11.178  1.00  0.00    -0.253 F
ENDBRANCH  39  40
ENDBRANCH  31  34
ENDBRANCH  28  31
ENDBRANCH   1  28
TORSDOF 13
ENDMDL