MODEL 2
REMARK VINA RESULT: -7.041963648      1.075      1.637
REMARK  13 active torsions:
REMARK  status: ('A' for Active; 'I' for Inactive)
REMARK    1  A    between atoms: O1_2  and  C2_3
REMARK    2  A    between atoms: C5_6  and  O2_7
REMARK    3  A    between atoms: C10_14  and  O3_15
REMARK    4  A    between atoms: N1_17  and  C11_18
REMARK    5  A    between atoms: C11_18  and  C12_19
REMARK    6  A    between atoms: C12_19  and  N2_20
REMARK    7  A    between atoms: N2_20  and  C13_21
REMARK    8  A    between atoms: N2_20  and  C15_24
REMARK    9  A    between atoms: C13_21  and  C14_22
REMARK   10  A    between atoms: C15_24  and  C16_25
REMARK   11  A    between atoms: C16_25  and  C17_26
REMARK   12  A    between atoms: C18_28  and  O4_29
REMARK   13  A    between atoms: C21_33  and  O5_34
ROOT
HETATM    1  C2  UNL     1      24.173  11.905  13.217  1.00  0.00     0.129 C
HETATM    2  C3  UNL     1      25.222  12.500  14.161  1.00  0.00     0.048 C
HETATM    3  C4  UNL     1      25.623  11.209  14.903  1.00  0.00     0.027 C
HETATM    4  C5  UNL     1      26.628  11.424  15.869  1.00  0.00     0.170 C
HETATM    5  C6  UNL     1      27.448  10.338  16.385  1.00  0.00     0.019 C
HETATM    6 BR1  UNL     1      28.680  10.911  17.756  1.00  0.00    -0.053 Br
HETATM    7  C7  UNL     1      27.518   9.052  16.108  1.00  0.00     0.034 C
HETATM    8  C8  UNL     1      26.741   8.306  15.139  1.00  0.00     0.027 A
HETATM    9  C9  UNL     1      25.935   8.845  14.135  1.00  0.00     0.013 A
HETATM   10  C10 UNL     1      25.391   7.783  13.451  1.00  0.00     0.152 A
HETATM   11  N1  UNL     1      25.831   6.621  13.997  1.00  0.00    -0.306 N
HETATM   12  C18 UNL     1      26.650   6.934  15.020  1.00  0.00     0.155 A
HETATM   13  C19 UNL     1      25.666  10.235  13.804  1.00  0.00     0.047 C
HETATM   14  C20 UNL     1      24.172  10.492  13.723  1.00  0.00     0.054 C
HETATM   15  C21 UNL     1      24.256  10.675  15.248  1.00  0.00     0.137 C
ENDROOT
BRANCH  11  16
HETATM   16  C11 UNL     1      25.454   5.277  13.531  1.00  0.00     0.153 C
BRANCH  16  17
HETATM   17  C12 UNL     1      26.313   4.948  12.311  1.00  0.00     0.142 C
BRANCH  17  18
HETATM   18  N2  UNL     1      25.427   4.706  11.227  1.00  0.00    -0.391 N
BRANCH  18  19
HETATM   19  C13 UNL     1      24.149   4.202  11.575  1.00  0.00     0.137 C
BRANCH  19  20
HETATM   20  C14 UNL     1      23.405   3.744  10.348  1.00  0.00     0.134 C
HETATM   21 CL1  UNL     1      23.835   2.057   9.944  1.00  0.00    -0.129 Cl
ENDBRANCH  19  20
ENDBRANCH  18  19
BRANCH  18  22
HETATM   22  C15 UNL     1      25.635   5.268   9.983  1.00  0.00     0.060 C
BRANCH  22  23
HETATM   23  C16 UNL     1      26.604   4.822   8.989  1.00  0.00     0.075 C
BRANCH  23  24
HETATM   24  C17 UNL     1      26.285   3.740   8.043  1.00  0.00     0.227 C
HETATM   25  F1  UNL     1      27.085   3.651   6.935  1.00  0.00    -0.255 F
ENDBRANCH  23  24
ENDBRANCH  22  23
ENDBRANCH  18  22
ENDBRANCH  17  18
ENDBRANCH  16  17
ENDBRANCH  11  16
BRANCH  10  26
HETATM   26  O3  UNL     1      24.529   7.809  12.375  1.00  0.00    -0.345 OA
ATOM     27  H3  UNL     1      24.131   7.076  11.921  1.00  0.00     0.219 HD
ENDBRANCH  10  26
BRANCH  12  28
HETATM   28  O4  UNL     1      27.323   6.029  15.855  1.00  0.00    -0.345 OA
ATOM     29  H4  UNL     1      26.894   5.498  16.517  1.00  0.00     0.219 HD
ENDBRANCH  12  28
BRANCH   4  30
HETATM   30  O2  UNL     1      26.046  12.027  17.018  1.00  0.00    -0.389 OA
ATOM     31  H2  UNL     1      25.868  11.355  17.665  1.00  0.00     0.210 HD
ENDBRANCH   4  30
BRANCH  15  32
HETATM   32  O5  UNL     1      23.324  11.586  15.679  1.00  0.00    -0.394 OA
ATOM     33  H5  UNL     1      22.416  11.302  15.685  1.00  0.00     0.210 HD
ENDBRANCH  15  32
BRANCH   1  34
HETATM   34  O1  UNL     1      22.963  12.539  13.285  1.00  0.00    -0.390 OA
HETATM   35  C1  UNL     1      22.881  13.374  12.146  1.00  0.00     0.202 C
ENDBRANCH   1  34
TORSDOF 13
ENDMDL