MODEL 5
REMARK VINA RESULT: -8.170013466      2.476      3.602
REMARK  8 active torsions:
REMARK  status: ('A' for Active; 'I' for Inactive)
REMARK    1  A    between atoms: C2_2  and  N1_3
REMARK    2  A    between atoms: C2_2  and  C7_13
REMARK       I    between atoms: N1_3  and  C3_5
REMARK    3  A    between atoms: C3_5  and  C4_7
REMARK       I    between atoms: C7_13  and  N3_15
REMARK    4  A    between atoms: N3_15  and  C8_17
REMARK    5  A    between atoms: C8_17  and  C9_18
REMARK    6  A    between atoms: C8_17  and  C11_23
REMARK    7  A    between atoms: C9_18  and  C10_19
REMARK       I    between atoms: C11_23  and  N4_25
REMARK    8  A    between atoms: N4_25  and  C12_27
ROOT
HETATM    1  C12 UNL     1      -2.000  19.643  -3.332  1.00  0.00     0.122 C
HETATM    2  C13 UNL     1      -1.527  20.838  -4.057  1.00  0.00     0.091 C
HETATM    3  N5  UNL     1      -1.163  21.783  -4.654  1.00  0.00    -0.195 NA
HETATM    4  C14 UNL     1      -2.480  20.085  -1.969  1.00  0.00     0.046 C
HETATM    5  C15 UNL     1      -1.458  20.969  -1.309  1.00  0.00     0.004 C
HETATM    6  C16 UNL     1      -0.041  20.677  -1.625  1.00  0.00     0.000 C
HETATM    7  C17 UNL     1       0.271  19.406  -2.312  1.00  0.00     0.004 C
HETATM    8  C18 UNL     1      -0.822  18.767  -3.112  1.00  0.00     0.046 C
ENDROOT
BRANCH   1   9
HETATM    9  N4  UNL     1      -3.075  19.012  -4.043  1.00  0.00    -0.337 N
HETATM   10  C11 UNL     1      -3.029  17.832  -4.805  1.00  0.00     0.242 C
HETATM   11  O4  UNL     1      -1.935  17.228  -4.887  1.00  0.00    -0.271 OA
ATOM     12  H4  UNL     1      -3.981  19.475  -3.990  1.00  0.00     0.164 HD
BRANCH  10  13
HETATM   13  C8  UNL     1      -4.201  17.301  -5.483  1.00  0.00     0.185 C
BRANCH  13  14
HETATM   14  N3  UNL     1      -5.340  18.204  -5.129  1.00  0.00    -0.346 N
HETATM   15  C7  UNL     1      -5.519  19.437  -5.763  1.00  0.00     0.240 C
HETATM   16  O3  UNL     1      -4.716  19.804  -6.646  1.00  0.00    -0.271 OA
ATOM     17  H3  UNL     1      -6.001  17.913  -4.409  1.00  0.00     0.163 HD
BRANCH  15  18
HETATM   18  C2  UNL     1      -6.650  20.313  -5.401  1.00  0.00     0.172 C
HETATM   19  C1  UNL     1      -6.824  20.207  -3.900  1.00  0.00     0.042 C
BRANCH  18  20
HETATM   20  N1  UNL     1      -6.288  21.710  -5.681  1.00  0.00    -0.342 N
HETATM   21  C3  UNL     1      -7.241  22.741  -5.806  1.00  0.00     0.277 C
HETATM   22  O1  UNL     1      -8.479  22.519  -5.686  1.00  0.00    -0.265 OA
ATOM     23  H1  UNL     1      -5.301  21.944  -5.789  1.00  0.00     0.163 HD
BRANCH  21  24
HETATM   24  C4  UNL     1      -6.833  24.108  -6.080  1.00  0.00     0.159 A
HETATM   25  C5  UNL     1      -5.734  24.465  -6.856  1.00  0.00     0.132 A
HETATM   26  N2  UNL     1      -5.684  25.786  -6.876  1.00  0.00    -0.354 N
HETATM   27  C6  UNL     1      -6.699  26.227  -6.150  1.00  0.00     0.234 A
ATOM     28  H2  UNL     1      -4.993  26.358  -7.360  1.00  0.00     0.166 HD
HETATM   29  O2  UNL     1      -7.387  25.224  -5.673  1.00  0.00    -0.299 OA
ENDBRANCH  21  24
ENDBRANCH  18  20
ENDBRANCH  15  18
ENDBRANCH  13  14
BRANCH  13  30
HETATM   30  C9  UNL     1      -4.685  15.954  -5.128  1.00  0.00     0.152 C
BRANCH  30  31
HETATM   31  C10 UNL     1      -5.198  15.032  -6.146  1.00  0.00     0.390 C
HETATM   32  F1  UNL     1      -4.413  13.850  -6.018  1.00  0.00    -0.171 F
HETATM   33  F2  UNL     1      -6.487  14.627  -6.047  1.00  0.00    -0.171 F
HETATM   34  F3  UNL     1      -4.862  15.409  -7.466  1.00  0.00    -0.171 F
ENDBRANCH  30  31
ENDBRANCH  13  30
ENDBRANCH  10  13
ENDBRANCH   1   9
TORSDOF 8
ENDMDL