MODEL 4
REMARK VINA RESULT: -8.040306475      4.450      5.181
REMARK  7 active torsions:
REMARK  status: ('A' for Active; 'I' for Inactive)
REMARK    1  A    between atoms: N1_2  and  C2_3
REMARK    2  A    between atoms: N1_2  and  C8_13
REMARK    3  A    between atoms: C2_3  and  C3_4
REMARK       I    between atoms: C3_4  and  N2_6
REMARK       I    between atoms: N2_6  and  C4_8
REMARK    4  A    between atoms: C4_8  and  C5_10
REMARK    5  A    between atoms: C8_13  and  C9_14
REMARK    6  A    between atoms: C8_13  and  C13_30
REMARK    7  A    between atoms: C10_17  and  C11_18
ROOT
HETATM    1  C8  UNL     1      -5.848  21.752  -3.822  1.00  0.00     0.202 C
ENDROOT
BRANCH   1   2
HETATM    2  N1  UNL     1      -5.307  20.465  -3.545  1.00  0.00    -0.394 N
HETATM    3  C1  UNL     1      -5.144  20.089  -2.189  1.00  0.00     0.144 C
BRANCH   2   4
HETATM    4  C2  UNL     1      -4.310  20.037  -4.460  1.00  0.00     0.220 C
BRANCH   4   5
HETATM    5  C3  UNL     1      -4.473  18.690  -5.049  1.00  0.00     0.241 C
HETATM    6  O1  UNL     1      -4.805  18.642  -6.264  1.00  0.00    -0.271 OA
HETATM    7  N2  UNL     1      -4.274  17.501  -4.316  1.00  0.00    -0.296 N
HETATM    8  C4  UNL     1      -4.363  16.180  -4.737  1.00  0.00     0.228 C
ATOM      9  H2  UNL     1      -4.031  17.631  -3.334  1.00  0.00     0.171 HD
HETATM   10  O2  UNL     1      -4.121  15.251  -3.888  1.00  0.00    -0.273 OA
BRANCH   8  11
HETATM   11  C5  UNL     1      -4.710  15.715  -6.088  1.00  0.00     0.078 A
HETATM   12  C6  UNL     1      -5.985  14.922  -6.260  1.00  0.00     0.015 A
HETATM   13  C7  UNL     1      -4.619  14.245  -6.339  1.00  0.00     0.015 A
ENDBRANCH   8  11
ENDBRANCH   4   5
ENDBRANCH   2   4
ENDBRANCH   1   2
BRANCH   1  14
HETATM   14  C9  UNL     1      -6.466  22.333  -2.581  1.00  0.00     0.109 A
HETATM   15  N3  UNL     1      -7.619  21.867  -2.037  1.00  0.00    -0.340 N
HETATM   16  C10 UNL     1      -7.915  22.602  -0.952  1.00  0.00     0.096 A
ATOM     17  H3  UNL     1      -8.170  21.087  -2.394  1.00  0.00     0.167 HD
HETATM   18  C12 UNL     1      -6.903  23.529  -0.856  1.00  0.00     0.123 A
HETATM   19  N8  UNL     1      -6.002  23.361  -1.873  1.00  0.00    -0.352 N
ATOM     20  H8  UNL     1      -5.157  23.905  -2.050  1.00  0.00     0.166 HD
BRANCH  16  21
HETATM   21  C11 UNL     1      -9.078  22.448  -0.064  1.00  0.00     0.165 A
HETATM   22  N4  UNL     1      -9.792  23.433   0.488  1.00  0.00    -0.267 N
HETATM   23  N5  UNL     1     -10.756  22.859   1.221  1.00  0.00    -0.227 N
ATOM     24  H4  UNL     1      -9.633  24.434   0.374  1.00  0.00     0.190 HD
HETATM   25  N6  UNL     1     -10.663  21.554   1.141  1.00  0.00    -0.227 N
ATOM     26  H5  UNL     1     -11.458  23.363   1.761  1.00  0.00     0.210 HD
HETATM   27  N7  UNL     1      -9.633  21.301   0.352  1.00  0.00    -0.267 N
ATOM     28  H6  UNL     1     -11.266  20.870   1.597  1.00  0.00     0.210 HD
ATOM     29  H7  UNL     1      -9.308  20.369   0.097  1.00  0.00     0.190 HD
ENDBRANCH  16  21
ENDBRANCH   1  14
BRANCH   1  30
HETATM   30  C13 UNL     1      -6.789  21.745  -4.986  1.00  0.00     0.215 C
HETATM   31 CL1  UNL     1      -8.003  23.009  -5.002  1.00  0.00    -0.081 Cl
HETATM   32 CL2  UNL     1      -7.677  20.153  -4.989  1.00  0.00    -0.081 Cl
HETATM   33 CL3  UNL     1      -5.928  21.746  -6.560  1.00  0.00    -0.081 Cl
ENDBRANCH   1  30
TORSDOF 7
ENDMDL