MODEL 4
REMARK VINA RESULT: -6.742350395      4.169      5.970
REMARK  10 active torsions:
REMARK  status: ('A' for Active; 'I' for Inactive)
REMARK    1  A    between atoms: S1_2  and  C2_3
REMARK    2  A    between atoms: C2_3  and  C3_4
REMARK    3  A    between atoms: C3_4  and  C4_5
REMARK    4  A    between atoms: C4_5  and  O1_6
REMARK    5  A    between atoms: C4_5  and  N1_8
REMARK    6  A    between atoms: N1_8  and  C5_9
REMARK    7  A    between atoms: N1_8  and  C12_21
REMARK    8  A    between atoms: C8_14  and  C9_15
REMARK    9  A    between atoms: C9_15  and  C10_16
REMARK   10  A    between atoms: C15_27  and  C16_28
ROOT
HETATM    1  N1  UNL     1      -3.752  20.408  -3.233  1.00  0.00    -0.349 N
ENDROOT
BRANCH   1   2
HETATM    2  C4  UNL     1      -4.254  21.662  -2.933  1.00  0.00     0.115 C
BRANCH   2   3
HETATM    3  C3  UNL     1      -5.383  22.174  -2.208  1.00  0.00     0.094 C
BRANCH   3   4
HETATM    4  C2  UNL     1      -6.508  22.734  -3.035  1.00  0.00     0.081 C
BRANCH   4   5
HETATM    5  S1  UNL     1      -7.717  21.402  -3.284  1.00  0.00    -0.173 SA
HETATM    6  C1  UNL     1      -8.466  21.487  -4.930  1.00  0.00     0.089 C
ENDBRANCH   4   5
ENDBRANCH   3   4
ENDBRANCH   2   3
BRANCH   2   7
HETATM    7  O1  UNL     1      -3.529  22.635  -3.425  1.00  0.00    -0.349 OA
ATOM      8  H1  UNL     1      -3.780  22.827  -4.321  1.00  0.00     0.219 HD
ENDBRANCH   2   7
ENDBRANCH   1   2
BRANCH   1   9
HETATM    9  C5  UNL     1      -4.462  19.548  -4.172  1.00  0.00     0.148 C
HETATM   10  C6  UNL     1      -4.677  20.339  -5.444  1.00  0.00     0.087 C
HETATM   11  N2  UNL     1      -5.599  19.788  -6.350  1.00  0.00    -0.378 N
HETATM   12  C7  UNL     1      -6.207  18.560  -6.033  1.00  0.00     0.092 C
ATOM     13  H2  UNL     1      -5.823  20.269  -7.221  1.00  0.00     0.164 HD
HETATM   14  C8  UNL     1      -5.236  17.424  -6.044  1.00  0.00     0.169 C
HETATM   15  O4  UNL     1      -4.731  17.272  -4.757  1.00  0.00    -0.378 OA
HETATM   16  C11 UNL     1      -3.777  18.292  -4.514  1.00  0.00     0.199 C
BRANCH  14  17
HETATM   17  C9  UNL     1      -5.932  16.171  -6.474  1.00  0.00     0.150 C
BRANCH  17  18
HETATM   18  C10 UNL     1      -4.953  15.052  -6.416  1.00  0.00     0.175 C
HETATM   19  O2  UNL     1      -4.100  14.914  -7.328  1.00  0.00    -0.648 OA
HETATM   20  O3  UNL     1      -4.983  14.162  -5.361  1.00  0.00    -0.648 OA
ENDBRANCH  17  18
ENDBRANCH  14  17
ENDBRANCH   1   9
BRANCH   1  21
HETATM   21  C12 UNL     1      -2.546  19.916  -2.642  1.00  0.00     0.090 C
HETATM   22  C13 UNL     1      -2.060  20.625  -1.420  1.00  0.00     0.053 C
HETATM   23  C14 UNL     1      -0.604  21.036  -1.526  1.00  0.00     0.235 C
HETATM   24  N3  UNL     1       0.274  19.909  -1.753  1.00  0.00    -0.062 N
HETATM   25  C15 UNL     1      -0.273  19.101  -2.799  1.00  0.00     0.294 C
ATOM     26  H32 UNL     1       1.234  20.195  -1.943  1.00  0.00     0.277 HD
ATOM     27  H31 UNL     1       0.451  19.375  -0.901  1.00  0.00     0.277 HD
HETATM   28  C17 UNL     1      -1.364  19.825  -3.591  1.00  0.00     0.067 C
BRANCH  25  29
HETATM   29  C16 UNL     1       0.777  18.529  -3.732  1.00  0.00     0.415 C
HETATM   30  F1  UNL     1       1.331  17.438  -3.080  1.00  0.00    -0.169 F
HETATM   31  F2  UNL     1       1.765  19.485  -3.888  1.00  0.00    -0.169 F
HETATM   32  F3  UNL     1       0.248  18.121  -4.932  1.00  0.00    -0.169 F
ENDBRANCH  25  29
ENDBRANCH   1  21
TORSDOF 10
ENDMDL