MODEL 4
REMARK VINA RESULT: -7.058297600      2.293      3.036
REMARK  9 active torsions:
REMARK  status: ('A' for Active; 'I' for Inactive)
REMARK       I    between atoms: C2_5  and  N3_6
REMARK       I    between atoms: C2_5  and  N5_14
REMARK    1  A    between atoms: N3_6  and  C3_8
REMARK    2  A    between atoms: N5_14  and  C6_16
REMARK    3  A    between atoms: C6_16  and  C7_17
REMARK    4  A    between atoms: C7_17  and  C8_18
REMARK    5  A    between atoms: C8_18  and  N6_19
REMARK    6  A    between atoms: N6_19  and  C9_22
REMARK    7  A    between atoms: N7_24  and  C11_25
REMARK    8  A    between atoms: C11_25  and  C12_26
REMARK    9  A    between atoms: C12_26  and  C13_27
ROOT
HETATM    1  N1  UNL     1      -4.024  15.062  -4.180  1.00  0.00    -0.171 NA
HETATM    2  C1  UNL     1      -4.290  16.033  -4.755  1.00  0.00     0.196 C
HETATM    3  N2  UNL     1      -4.608  17.186  -5.449  1.00  0.00    -0.126 N
ATOM      4  H2  UNL     1      -5.360  17.117  -6.134  1.00  0.00     0.197 HD
HETATM    5  C2  UNL     1      -4.057  18.324  -5.318  1.00  0.00     0.689 C
HETATM    6  N3  UNL     1      -4.453  19.461  -6.079  1.00  0.00    -0.170 N
ATOM      7  H3  UNL     1      -3.963  19.700  -6.941  1.00  0.00     0.186 HD
HETATM    8  N5  UNL     1      -3.009  18.486  -4.378  1.00  0.00    -0.225 N
ATOM      9  H5  UNL     1      -3.214  18.747  -3.414  1.00  0.00     0.177 HD
ENDROOT
BRANCH   6  10
HETATM   10  C3  UNL     1      -5.451  20.197  -5.662  1.00  0.00     0.163 A
HETATM   11  N4  UNL     1      -6.387  19.849  -4.787  1.00  0.00    -0.346 N
HETATM   12  C4  UNL     1      -7.318  20.706  -4.487  1.00  0.00     0.097 A
ATOM     13  H4  UNL     1      -6.377  18.924  -4.357  1.00  0.00     0.167 HD
HETATM   14  C5  UNL     1      -7.285  21.932  -5.094  1.00  0.00     0.070 A
HETATM   15  S1  UNL     1      -5.892  21.793  -6.084  1.00  0.00    -0.064 SA
ENDBRANCH   6  10
BRANCH   8  16
HETATM   16  C6  UNL     1      -1.629  18.270  -4.813  1.00  0.00     0.139 C
BRANCH  16  17
HETATM   17  C7  UNL     1      -0.845  19.529  -4.583  1.00  0.00     0.048 C
BRANCH  17  18
HETATM   18  C8  UNL     1       0.353  19.281  -3.732  1.00  0.00     0.237 C
BRANCH  18  19
HETATM   19  N6  UNL     1       0.054  19.409  -2.353  1.00  0.00    -0.047 N
ATOM     20  H62 UNL     1      -0.283  18.522  -1.979  1.00  0.00     0.280 HD
ATOM     21  H61 UNL     1       0.912  19.512  -1.811  1.00  0.00     0.280 HD
BRANCH  19  22
HETATM   22  C9  UNL     1      -0.873  20.476  -2.036  1.00  0.00     0.338 C
HETATM   23  C10 UNL     1      -1.947  19.982  -1.104  1.00  0.00     0.178 C
HETATM   24  N7  UNL     1      -2.907  21.017  -0.959  1.00  0.00    -0.408 N
HETATM   25  C14 UNL     1      -2.833  21.801   0.230  1.00  0.00     0.119 C
HETATM   26  C15 UNL     1      -1.402  22.289   0.358  1.00  0.00     0.046 C
HETATM   27  C16 UNL     1      -0.823  22.570  -1.016  1.00  0.00     0.172 C
HETATM   28  O1  UNL     1      -0.101  21.504  -1.494  1.00  0.00    -0.358 OA
BRANCH  24  29
HETATM   29  C11 UNL     1      -4.207  20.821  -1.469  1.00  0.00     0.125 C
BRANCH  29  30
HETATM   30  C12 UNL     1      -4.950  22.041  -1.928  1.00  0.00     0.136 C
BRANCH  30  31
HETATM   31  C13 UNL     1      -6.304  22.100  -1.209  1.00  0.00     0.389 C
HETATM   32  F1  UNL     1      -6.922  20.893  -1.178  1.00  0.00    -0.171 F
HETATM   33  F2  UNL     1      -6.113  22.523   0.091  1.00  0.00    -0.171 F
HETATM   34  F3  UNL     1      -7.140  23.019  -1.822  1.00  0.00    -0.171 F
ENDBRANCH  30  31
ENDBRANCH  29  30
ENDBRANCH  24  29
ENDBRANCH  19  22
ENDBRANCH  18  19
ENDBRANCH  17  18
ENDBRANCH  16  17
ENDBRANCH   8  16
TORSDOF 9
ENDMDL