MODEL 4
REMARK VINA RESULT: -7.181683124      1.958      2.881
REMARK  10 active torsions:
REMARK  status: ('A' for Active; 'I' for Inactive)
REMARK    1  A    between atoms: C2_2  and  O1_4
REMARK    2  A    between atoms: O1_4  and  C4_5
REMARK       I    between atoms: C4_5  and  N1_7
REMARK    3  A    between atoms: C8_11  and  C9_12
REMARK    4  A    between atoms: C9_12  and  N2_13
REMARK       I    between atoms: N2_13  and  C10_15
REMARK    5  A    between atoms: C10_15  and  C11_17
REMARK    6  A    between atoms: C11_17  and  N3_18
REMARK    7  A    between atoms: C11_17  and  C17_29
REMARK       I    between atoms: N3_18  and  C12_20
REMARK    8  A    between atoms: C12_20  and  O5_22
REMARK    9  A    between atoms: O5_22  and  C13_23
REMARK   10  A    between atoms: C13_23  and  C16_26
ROOT
HETATM    1  N2  UNL     1      -2.834  19.099  -3.583  1.00  0.00    -0.357 N
ATOM      2  H2  UNL     1      -3.803  19.256  -3.307  1.00  0.00     0.162 HD
HETATM    3  C10 UNL     1      -2.519  18.149  -4.570  1.00  0.00     0.249 C
HETATM    4  O3  UNL     1      -1.308  17.980  -4.880  1.00  0.00    -0.271 OA
ENDROOT
BRANCH   3   5
HETATM    5  C11 UNL     1      -3.607  17.374  -5.216  1.00  0.00     0.268 C
BRANCH   5   6
HETATM    6  N3  UNL     1      -4.898  18.025  -4.977  1.00  0.00    -0.316 N
HETATM    7  C12 UNL     1      -5.370  19.068  -5.800  1.00  0.00     0.362 C
HETATM    8  O4  UNL     1      -4.673  19.452  -6.762  1.00  0.00    -0.238 OA
ATOM      9  H3  UNL     1      -5.472  17.714  -4.193  1.00  0.00     0.166 HD
BRANCH   7  10
HETATM   10  O5  UNL     1      -6.582  19.674  -5.570  1.00  0.00    -0.288 OA
BRANCH  10  11
HETATM   11  C13 UNL     1      -6.739  21.038  -5.290  1.00  0.00     0.124 C
HETATM   12  C14 UNL     1      -6.560  21.939  -6.463  1.00  0.00     0.052 C
HETATM   13  C15 UNL     1      -5.660  21.401  -4.263  1.00  0.00     0.052 C
BRANCH  11  14
HETATM   14  C16 UNL     1      -8.061  21.350  -4.644  1.00  0.00     0.387 C
HETATM   15  F1  UNL     1      -8.990  21.765  -5.577  1.00  0.00    -0.211 F
HETATM   16  F2  UNL     1      -8.538  20.285  -3.897  1.00  0.00    -0.211 F
ENDBRANCH  11  14
ENDBRANCH  10  11
ENDBRANCH   7  10
ENDBRANCH   5   6
BRANCH   5  17
HETATM   17  C17 UNL     1      -3.625  15.996  -4.701  1.00  0.00     0.263 C
HETATM   18  N4  UNL     1      -2.763  14.998  -5.174  1.00  0.00    -0.060 NA
HETATM   19  O6  UNL     1      -4.446  15.692  -3.799  1.00  0.00    -0.274 OA
ENDBRANCH   5  17
ENDBRANCH   3   5
BRANCH   1  20
HETATM   20  C9  UNL     1      -1.758  19.851  -2.964  1.00  0.00     0.148 C
BRANCH  20  21
HETATM   21  C8  UNL     1      -2.092  20.299  -1.560  1.00  0.00     0.107 C
HETATM   22  N1  UNL     1      -2.826  21.535  -1.517  1.00  0.00    -0.322 N
HETATM   23  C4  UNL     1      -4.172  21.714  -1.138  1.00  0.00     0.363 C
HETATM   24  C5  UNL     1      -1.931  22.581  -1.934  1.00  0.00     0.129 C
HETATM   25  O2  UNL     1      -4.911  20.735  -0.776  1.00  0.00    -0.238 OA
HETATM   26  C6  UNL     1      -0.665  22.220  -1.159  1.00  0.00     0.022 C
HETATM   27  C7  UNL     1      -0.782  20.733  -0.887  1.00  0.00     0.029 C
BRANCH  23  28
HETATM   28  O1  UNL     1      -4.797  22.955  -1.127  1.00  0.00    -0.299 OA
BRANCH  28  29
HETATM   29  C2  UNL     1      -6.172  23.128  -0.830  1.00  0.00     0.125 C
HETATM   30  C1  UNL     1      -6.844  23.990  -1.873  1.00  0.00     0.040 C
HETATM   31  C3  UNL     1      -6.376  23.674   0.566  1.00  0.00     0.040 C
ENDBRANCH  28  29
ENDBRANCH  23  28
ENDBRANCH  20  21
ENDBRANCH   1  20
TORSDOF 10
ENDMDL