MODEL 1
REMARK VINA RESULT: -6.565293722      0.000      0.000
REMARK  11 active torsions:
REMARK  status: ('A' for Active; 'I' for Inactive)
REMARK    1  A    between atoms: C1_2  and  C2_3
REMARK       I    between atoms: C1_2  and  N1_6
REMARK    2  A    between atoms: N2_9  and  C7_10
REMARK    3  A    between atoms: C7_10  and  C8_11
REMARK    4  A    between atoms: C8_11  and  O2_12
REMARK    5  A    between atoms: C8_11  and  C9_14
REMARK    6  A    between atoms: C9_14  and  N3_15
REMARK    7  A    between atoms: C13_19  and  C14_20
REMARK    8  A    between atoms: C14_20  and  O3_21
REMARK    9  A    between atoms: N4_23  and  O4_25
REMARK   10  A    between atoms: C15_27  and  C16_28
REMARK   11  A    between atoms: C16_28  and  C17_29
ROOT
HETATM    1  N3  UNL     1      -2.336  22.166  -1.600  1.00  0.00    -0.385 N
HETATM    2  C10 UNL     1      -1.065  22.370  -0.986  1.00  0.00     0.122 C
HETATM    3  C11 UNL     1      -0.883  21.494   0.253  1.00  0.00     0.021 C
HETATM    4  C12 UNL     1      -1.777  22.077   1.307  1.00  0.00     0.016 C
HETATM    5  C13 UNL     1      -3.050  22.628   0.648  1.00  0.00     0.085 C
HETATM    6  C15 UNL     1      -3.322  21.836  -0.608  1.00  0.00     0.100 C
ENDROOT
BRANCH   1   7
HETATM    7  C9  UNL     1      -2.695  22.967  -2.652  1.00  0.00     0.091 C
BRANCH   7   8
HETATM    8  C8  UNL     1      -2.651  22.427  -4.042  1.00  0.00     0.174 C
BRANCH   8   9
HETATM    9  C7  UNL     1      -1.601  21.406  -4.344  1.00  0.00     0.159 C
BRANCH   9  10
HETATM   10  N2  UNL     1      -2.126  20.114  -4.599  1.00  0.00    -0.387 N
HETATM   11  C6  UNL     1      -3.506  19.934  -4.686  1.00  0.00     0.078 C
HETATM   12  C5  UNL     1      -4.065  18.560  -4.624  1.00  0.00     0.169 C
HETATM   13  N1  UNL     1      -3.087  17.520  -4.683  1.00  0.00    -0.346 N
HETATM   14  C1  UNL     1      -3.410  16.180  -5.036  1.00  0.00     0.224 C
HETATM   15  C19 UNL     1      -1.707  17.780  -4.320  1.00  0.00     0.146 C
HETATM   16  O1  UNL     1      -2.405  15.390  -5.198  1.00  0.00    -0.273 OA
HETATM   17  C18 UNL     1      -1.265  19.068  -5.006  1.00  0.00     0.141 C
BRANCH  14  18
HETATM   18  C2  UNL     1      -4.723  15.570  -5.242  1.00  0.00     0.078 A
HETATM   19  C3  UNL     1      -5.288  15.773  -6.696  1.00  0.00     0.015 A
HETATM   20  C4  UNL     1      -5.108  14.410  -6.007  1.00  0.00     0.015 A
ENDBRANCH  14  18
ENDBRANCH   9  10
ENDBRANCH   8   9
BRANCH   8  21
HETATM   21  O2  UNL     1      -2.438  23.512  -4.945  1.00  0.00    -0.389 OA
ATOM     22  H2  UNL     1      -1.857  23.190  -5.624  1.00  0.00     0.210 HD
ENDBRANCH   8  21
ENDBRANCH   7   8
ENDBRANCH   1   7
BRANCH   6  23
HETATM   23  C16 UNL     1      -4.737  21.828  -1.023  1.00  0.00     0.097 C
BRANCH  23  24
HETATM   24  C17 UNL     1      -5.314  20.507  -1.403  1.00  0.00     0.355 C
HETATM   25  F1  UNL     1      -6.018  20.543  -2.595  1.00  0.00    -0.214 F
HETATM   26  F2  UNL     1      -4.275  19.572  -1.516  1.00  0.00    -0.214 F
ENDBRANCH  23  24
ENDBRANCH   6  23
BRANCH   5  27
HETATM   27  C14 UNL     1      -4.123  22.502   1.663  1.00  0.00     0.141 C
HETATM   28  N4  UNL     1      -4.993  23.415   1.930  1.00  0.00    -0.251 N
ATOM     29  H4  UNL     1      -5.684  23.208   2.652  1.00  0.00     0.196 HD
BRANCH  27  30
HETATM   30  O3  UNL     1      -4.207  21.323   2.386  1.00  0.00    -0.348 OA
ATOM     31  H3  UNL     1      -4.204  21.375   3.335  1.00  0.00     0.219 HD
ENDBRANCH  27  30
BRANCH  28  32
HETATM   32  O4  UNL     1      -5.064  24.633   1.326  1.00  0.00    -0.288 OA
ATOM     33  H4  UNL     1      -4.752  25.449   1.701  1.00  0.00     0.244 HD
ENDBRANCH  28  32
ENDBRANCH   5  27
TORSDOF 11
ENDMDL