MODEL 2
REMARK VINA RESULT: -6.599607768      2.839      4.212
REMARK  9 active torsions:
REMARK  status: ('A' for Active; 'I' for Inactive)
REMARK    1  A    between atoms: C2_2  and  C3_3
REMARK    2  A    between atoms: C3_3  and  C4_4
REMARK    3  A    between atoms: C4_4  and  O1_5
REMARK    4  A    between atoms: C4_4  and  C16_25
REMARK    5  A    between atoms: O1_5  and  C5_6
REMARK    6  A    between atoms: C9_11  and  C10_12
REMARK    7  A    between atoms: C10_12  and  C11_13
REMARK    8  A    between atoms: C13_19  and  O5_20
REMARK    9  A    between atoms: C13_19  and  N2_22
ROOT
HETATM    1  C5  UNL     1      -5.785  22.825  -4.910  1.00  0.00     0.146 C
HETATM    2  C6  UNL     1      -5.143  21.708  -5.108  1.00  0.00     0.038 C
HETATM    3  C7  UNL     1      -5.478  20.877  -6.297  1.00  0.00     0.119 C
HETATM    4  S1  UNL     1      -6.183  19.329  -5.664  1.00  0.00    -0.138 SA
HETATM    5  C8  UNL     1      -5.145  18.917  -4.201  1.00  0.00     0.168 A
HETATM    6  C9  UNL     1      -4.336  17.691  -4.349  1.00  0.00     0.121 A
HETATM    7  C12 UNL     1      -3.192  18.564  -4.483  1.00  0.00     0.232 A
HETATM    8  O4  UNL     1      -1.949  18.332  -4.677  1.00  0.00    -0.273 OA
HETATM    9  N1  UNL     1      -3.970  19.724  -4.319  1.00  0.00    -0.275 N
HETATM   10  C13 UNL     1      -4.071  21.176  -4.233  1.00  0.00     0.371 C
ENDROOT
BRANCH   1  11
HETATM   11  O1  UNL     1      -5.607  23.695  -3.886  1.00  0.00    -0.350 OA
BRANCH  11  12
HETATM   12  C4  UNL     1      -6.559  24.414  -3.171  1.00  0.00     0.216 C
BRANCH  12  13
HETATM   13  C3  UNL     1      -7.835  23.724  -2.856  1.00  0.00     0.040 C
BRANCH  13  14
HETATM   14  C2  UNL     1      -7.790  22.678  -1.788  1.00  0.00    -0.002 C
HETATM   15  C1  UNL     1      -8.085  21.344  -2.502  1.00  0.00     0.005 C
ENDBRANCH  13  14
ENDBRANCH  12  13
BRANCH  12  16
HETATM   16  C16 UNL     1      -6.831  25.778  -3.797  1.00  0.00     0.346 C
HETATM   17  F1  UNL     1      -7.190  26.705  -2.868  1.00  0.00    -0.185 F
HETATM   18  F2  UNL     1      -7.874  25.642  -4.694  1.00  0.00    -0.185 F
HETATM   19 CL1  UNL     1      -5.417  26.371  -4.683  1.00  0.00    -0.045 Cl
ENDBRANCH  12  16
ENDBRANCH  11  12
ENDBRANCH   1  11
BRANCH  10  20
HETATM   20  O5  UNL     1      -2.885  21.725  -4.806  1.00  0.00    -0.343 OA
ATOM     21  H5  UNL     1      -2.918  22.635  -4.536  1.00  0.00     0.214 HD
ENDBRANCH  10  20
BRANCH  10  22
HETATM   22  N2  UNL     1      -4.067  21.648  -2.895  1.00  0.00     0.141 N
HETATM   23  C14 UNL     1      -2.663  21.983  -2.588  1.00  0.00     0.316 C
HETATM   24  C15 UNL     1      -4.503  20.794  -1.861  1.00  0.00     0.316 C
ENDBRANCH  10  22
BRANCH   6  25
HETATM   25  C10 UNL     1      -4.660  16.807  -5.538  1.00  0.00     0.130 C
BRANCH  25  26
HETATM   26  C11 UNL     1      -4.115  15.463  -5.246  1.00  0.00     0.173 C
HETATM   27  O2  UNL     1      -3.894  15.064  -4.071  1.00  0.00    -0.648 OA
HETATM   28  O3  UNL     1      -3.829  14.590  -6.269  1.00  0.00    -0.648 OA
ENDBRANCH  25  26
ENDBRANCH   6  25
TORSDOF 9
ENDMDL