MODEL 5
REMARK VINA RESULT: -7.087233334      2.070      3.075
REMARK  10 active torsions:
REMARK  status: ('A' for Active; 'I' for Inactive)
REMARK    1  A    between atoms: C2_2  and  C3_3
REMARK    2  A    between atoms: C2_2  and  C5_11
REMARK    3  A    between atoms: C3_3  and  C4_4
REMARK    4  A    between atoms: C4_4  and  N1_5
REMARK    5  A    between atoms: C4_4  and  O1_9
REMARK    6  A    between atoms: C5_11  and  C6_13
REMARK       I    between atoms: C6_13  and  N2_15
REMARK    7  A    between atoms: C10_19  and  N3_20
REMARK       I    between atoms: N3_20  and  C11_22
REMARK    8  A    between atoms: C11_22  and  C12_24
REMARK    9  A    between atoms: C12_24  and  C13_25
REMARK   10  A    between atoms: C13_25  and  C16_29
ROOT
HETATM    1  C13 UNL     1      -0.584  18.972  -4.176  1.00  0.00     0.151 C
HETATM    2  C14 UNL     1      -1.481  19.591  -3.155  1.00  0.00     0.041 C
HETATM    3  C15 UNL     1      -0.219  19.949  -5.220  1.00  0.00     0.078 C
HETATM    4  N4  UNL     1       0.062  20.708  -6.026  1.00  0.00    -0.196 NA
ENDROOT
BRANCH   1   5
HETATM    5  C12 UNL     1      -1.166  17.755  -4.828  1.00  0.00     0.136 C
BRANCH   5   6
HETATM    6  C11 UNL     1      -2.640  17.728  -4.786  1.00  0.00     0.219 C
HETATM    7  N3  UNL     1      -3.442  18.848  -5.100  1.00  0.00    -0.356 N
ATOM      8  H3  UNL     1      -2.977  19.716  -5.367  1.00  0.00     0.162 HD
HETATM    9  O4  UNL     1      -3.209  16.656  -4.454  1.00  0.00    -0.274 OA
BRANCH   7  10
HETATM   10  C10 UNL     1      -4.889  18.825  -5.060  1.00  0.00     0.086 C
HETATM   11  C9  UNL     1      -5.322  18.768  -3.624  1.00  0.00     0.027 C
HETATM   12  C8  UNL     1      -5.035  20.006  -2.853  1.00  0.00     0.022 C
HETATM   13  C7  UNL     1      -6.094  21.076  -2.993  1.00  0.00     0.126 C
HETATM   14  N2  UNL     1      -5.972  21.731  -4.265  1.00  0.00    -0.345 N
HETATM   15  C6  UNL     1      -6.770  22.866  -4.576  1.00  0.00     0.294 C
HETATM   16  C18 UNL     1      -5.049  21.316  -5.337  1.00  0.00     0.128 C
HETATM   17  O3  UNL     1      -6.591  23.379  -5.724  1.00  0.00    -0.264 OA
HETATM   18  C17 UNL     1      -5.473  19.967  -5.818  1.00  0.00     0.045 C
BRANCH  15  19
HETATM   19  C5  UNL     1      -7.751  23.466  -3.704  1.00  0.00     0.241 C
HETATM   20  O2  UNL     1      -8.951  23.172  -3.851  1.00  0.00    -0.282 OA
BRANCH  19  21
HETATM   21  C2  UNL     1      -7.345  24.411  -2.659  1.00  0.00    -0.024 C
HETATM   22  C1  UNL     1      -6.158  25.275  -3.017  1.00  0.00     0.048 C
BRANCH  21  23
HETATM   23  C3  UNL     1      -7.317  23.914  -1.268  1.00  0.00     0.098 C
BRANCH  23  24
HETATM   24  C4  UNL     1      -8.562  23.462  -0.628  1.00  0.00     0.320 C
BRANCH  24  25
HETATM   25  N1  UNL     1      -8.790  22.031  -0.709  1.00  0.00    -0.053 N
ATOM     26  H13 UNL     1      -8.760  21.720  -1.680  1.00  0.00     0.277 HD
ATOM     27  H12 UNL     1      -7.988  21.521  -0.338  1.00  0.00     0.277 HD
ATOM     28  H11 UNL     1      -9.650  21.717  -0.261  1.00  0.00     0.277 HD
ENDBRANCH  24  25
BRANCH  24  29
HETATM   29  O1  UNL     1      -9.723  24.118  -0.918  1.00  0.00    -0.370 OA
ATOM     30  H1  UNL     1     -10.400  23.656  -1.398  1.00  0.00     0.212 HD
ENDBRANCH  24  29
ENDBRANCH  23  24
ENDBRANCH  21  23
ENDBRANCH  19  21
ENDBRANCH  15  19
ENDBRANCH   7  10
ENDBRANCH   5   6
ENDBRANCH   1   5
BRANCH   1  31
HETATM   31  C16 UNL     1       0.739  18.537  -3.531  1.00  0.00     0.408 C
HETATM   32  F1  UNL     1       1.163  17.334  -4.067  1.00  0.00    -0.169 F
HETATM   33  F2  UNL     1       0.611  18.378  -2.173  1.00  0.00    -0.169 F
HETATM   34  F3  UNL     1       1.719  19.467  -3.764  1.00  0.00    -0.169 F
ENDBRANCH   1  31
TORSDOF 10
ENDMDL