MODEL 2
REMARK VINA RESULT: -7.234502630      2.009      5.427
REMARK  10 active torsions:
REMARK  status: ('A' for Active; 'I' for Inactive)
REMARK    1  A    between atoms: C2_2  and  C4_4
REMARK    2  A    between atoms: C4_4  and  N1_5
REMARK    3  A    between atoms: C4_4  and  C13_23
REMARK       I    between atoms: N1_5  and  C5_7
REMARK    4  A    between atoms: C5_7  and  C6_9
REMARK    5  A    between atoms: C6_9  and  N2_10
REMARK    6  A    between atoms: C6_9  and  C12_19
REMARK       I    between atoms: N2_10  and  C7_12
REMARK    7  A    between atoms: C7_12  and  C8_14
REMARK    8  A    between atoms: C8_14  and  C9_15
REMARK    9  A    between atoms: C13_23  and  O4_24
REMARK   10  A    between atoms: C13_23  and  N3_26
ROOT
HETATM    1  N1  UNL     1      22.087   0.546   2.868  1.00  0.00    -0.347 N
ATOM      2  H1  UNL     1      21.200   0.832   3.285  1.00  0.00     0.163 HD
HETATM    3  C5  UNL     1      22.590  -0.725   3.150  1.00  0.00     0.250 C
HETATM    4  O1  UNL     1      23.731  -0.990   2.608  1.00  0.00    -0.271 OA
ENDROOT
BRANCH   1   5
HETATM    5  C4  UNL     1      22.803   1.496   1.980  1.00  0.00     0.162 C
BRANCH   5   6
HETATM    6  C2  UNL     1      23.531   2.416   2.888  1.00  0.00     0.008 C
HETATM    7  C1  UNL     1      24.995   2.294   3.038  1.00  0.00     0.012 C
HETATM    8  C3  UNL     1      22.922   2.493   4.271  1.00  0.00     0.012 C
ENDBRANCH   5   6
BRANCH   5   9
HETATM    9  C13 UNL     1      21.877   2.014   0.974  1.00  0.00     0.138 C
BRANCH   9  10
HETATM   10  O4  UNL     1      21.534   3.356   1.136  1.00  0.00    -0.348 OA
ATOM     11  H4  UNL     1      20.762   3.629   0.654  1.00  0.00     0.219 HD
ENDBRANCH   9  10
BRANCH   9  12
HETATM   12  N3  UNL     1      22.033   1.693  -0.375  1.00  0.00    -0.355 N
HETATM   13  C14 UNL     1      21.330   0.618  -0.939  1.00  0.00     0.082 C
HETATM   14  C15 UNL     1      20.183   0.082  -0.148  1.00  0.00     0.032 C
HETATM   15  C16 UNL     1      22.375  -0.521  -0.981  1.00  0.00     0.027 C
HETATM   16  C17 UNL     1      23.667   0.132  -0.513  1.00  0.00     0.027 C
HETATM   17  C18 UNL     1      23.337   1.580  -0.930  1.00  0.00     0.082 C
HETATM   18  C19 UNL     1      23.386   1.562  -2.429  1.00  0.00     0.032 C
ENDBRANCH   9  12
ENDBRANCH   5   9
ENDBRANCH   1   5
BRANCH   3  19
HETATM   19  C6  UNL     1      21.989  -1.788   3.975  1.00  0.00     0.285 C
BRANCH  19  20
HETATM   20  N2  UNL     1      22.206  -3.126   3.413  1.00  0.00    -0.340 N
HETATM   21  C7  UNL     1      21.471  -3.579   2.306  1.00  0.00     0.221 C
HETATM   22  O2  UNL     1      20.627  -2.847   1.740  1.00  0.00    -0.274 OA
ATOM     23  H2  UNL     1      22.904  -3.739   3.835  1.00  0.00     0.163 HD
BRANCH  21  24
HETATM   24  C8  UNL     1      21.681  -4.945   1.779  1.00  0.00     0.134 C
BRANCH  24  25
HETATM   25  C9  UNL     1      20.761  -5.888   2.481  1.00  0.00     0.132 C
HETATM   26  C10 UNL     1      21.478  -7.002   3.254  1.00  0.00     0.058 C
HETATM   27  C11 UNL     1      20.139  -6.860   4.004  1.00  0.00     0.170 C
HETATM   28  O3  UNL     1      20.153  -5.488   3.644  1.00  0.00    -0.385 OA
ENDBRANCH  24  25
ENDBRANCH  21  24
ENDBRANCH  19  20
BRANCH  19  29
HETATM   29  C12 UNL     1      22.302  -1.799   5.405  1.00  0.00     0.416 C
HETATM   30  F1  UNL     1      23.662  -1.827   5.682  1.00  0.00    -0.168 F
HETATM   31  F2  UNL     1      21.692  -2.827   6.099  1.00  0.00    -0.168 F
HETATM   32  F3  UNL     1      21.842  -0.624   6.021  1.00  0.00    -0.168 F
ENDBRANCH  19  29
ENDBRANCH   3  19
TORSDOF 10
ENDMDL