MODEL 5
REMARK VINA RESULT: -7.268079766      1.469      1.513
REMARK  9 active torsions:
REMARK  status: ('A' for Active; 'I' for Inactive)
REMARK    1  A    between atoms: O1_2  and  C2_3
REMARK    2  A    between atoms: C2_3  and  C3_4
REMARK    3  A    between atoms: C3_4  and  N1_5
REMARK    4  A    between atoms: C3_4  and  C7_18
REMARK       I    between atoms: N1_5  and  C4_7
REMARK       I    between atoms: C4_7  and  N2_9
REMARK    5  A    between atoms: N2_9  and  C5_11
REMARK       I    between atoms: C7_18  and  N5_20
REMARK    6  A    between atoms: N5_20  and  C8_22
REMARK    7  A    between atoms: C11_25  and  C12_26
REMARK    8  A    between atoms: C12_26  and  O4_27
REMARK    9  A    between atoms: O4_27  and  C13_28
ROOT
HETATM    1  C3  UNL     1      23.712   2.413   2.569  1.00  0.00     0.202 C
ENDROOT
BRANCH   1   2
HETATM    2  C2  UNL     1      22.446   2.599   3.416  1.00  0.00     0.202 C
BRANCH   2   3
HETATM    3  O1  UNL     1      22.681   2.054   4.655  1.00  0.00    -0.393 OA
HETATM    4  C1  UNL     1      21.702   1.148   5.033  1.00  0.00     0.201 C
ENDBRANCH   2   3
ENDBRANCH   1   2
BRANCH   1   5
HETATM    5  N1  UNL     1      24.843   2.873   3.365  1.00  0.00    -0.327 N
HETATM    6  C4  UNL     1      25.589   3.979   2.919  1.00  0.00     0.323 C
HETATM    7  O2  UNL     1      25.314   4.600   1.845  1.00  0.00    -0.247 OA
HETATM    8  N2  UNL     1      26.695   4.427   3.690  1.00  0.00    -0.288 N
ATOM      9  H2  UNL     1      26.580   4.815   4.625  1.00  0.00     0.172 HD
ATOM     10  H1  UNL     1      25.091   2.398   4.233  1.00  0.00     0.165 HD
BRANCH   8  11
HETATM   11  C5  UNL     1      27.876   4.312   3.123  1.00  0.00     0.168 A
HETATM   12  N3  UNL     1      28.663   3.245   3.003  1.00  0.00    -0.279 N
HETATM   13  N4  UNL     1      29.778   3.364   2.410  1.00  0.00    -0.303 N
ATOM     14  H3  UNL     1      28.374   2.344   3.383  1.00  0.00     0.189 HD
HETATM   15  C6  UNL     1      30.152   4.536   1.917  1.00  0.00     0.160 A
ATOM     16  H4  UNL     1      30.389   2.554   2.312  1.00  0.00     0.186 HD
HETATM   17  S1  UNL     1      28.818   5.518   2.337  1.00  0.00    -0.046 SA
ENDBRANCH   8  11
ENDBRANCH   1   5
BRANCH   1  18
HETATM   18  C7  UNL     1      23.860   0.954   2.340  1.00  0.00     0.242 C
HETATM   19  O3  UNL     1      24.927   0.419   2.787  1.00  0.00    -0.271 OA
HETATM   20  N5  UNL     1      22.886   0.165   1.659  1.00  0.00    -0.355 N
ATOM     21  H5  UNL     1      22.029   0.583   1.294  1.00  0.00     0.162 HD
BRANCH  20  22
HETATM   22  C8  UNL     1      23.152  -1.246   1.505  1.00  0.00     0.084 C
HETATM   23  C9  UNL     1      22.721  -1.789   0.183  1.00  0.00     0.026 C
HETATM   24  C10 UNL     1      21.844  -3.012   0.262  1.00  0.00     0.009 C
HETATM   25  C11 UNL     1      22.326  -4.078   1.187  1.00  0.00     0.010 C
HETATM   26  C14 UNL     1      23.046  -3.484   2.403  1.00  0.00     0.009 C
HETATM   27  C15 UNL     1      22.483  -2.087   2.574  1.00  0.00     0.026 C
BRANCH  25  28
HETATM   28  C12 UNL     1      21.170  -4.862   1.759  1.00  0.00     0.182 C
BRANCH  28  29
HETATM   29  O4  UNL     1      21.315  -5.429   2.967  1.00  0.00    -0.297 OA
BRANCH  29  30
HETATM   30  C13 UNL     1      21.021  -6.726   3.186  1.00  0.00     0.524 C
HETATM   31  F1  UNL     1      20.278  -6.970   4.292  1.00  0.00    -0.144 F
HETATM   32  F2  UNL     1      22.215  -7.458   3.366  1.00  0.00    -0.144 F
HETATM   33  F3  UNL     1      20.453  -7.345   2.052  1.00  0.00    -0.144 F
ENDBRANCH  29  30
ENDBRANCH  28  29
ENDBRANCH  25  28
ENDBRANCH  20  22
ENDBRANCH   1  18
TORSDOF 9
ENDMDL