MODEL 5
REMARK VINA RESULT: -7.300219300      3.764      6.453
REMARK  10 active torsions:
REMARK  status: ('A' for Active; 'I' for Inactive)
REMARK    1  A    between atoms: C2_2  and  O1_3
REMARK    2  A    between atoms: O1_3  and  C3_4
REMARK       I    between atoms: C3_4  and  N1_6
REMARK       I    between atoms: N2_9  and  C6_10
REMARK    3  A    between atoms: C6_10  and  C7_12
REMARK    4  A    between atoms: C7_12  and  O4_14
REMARK    5  A    between atoms: O4_14  and  C9_15
REMARK    6  A    between atoms: C9_15  and  C11_17
REMARK    7  A    between atoms: C11_17  and  O5_18
REMARK    8  A    between atoms: C11_17  and  N3_20
REMARK       I    between atoms: N3_20  and  C12_22
REMARK       I    between atoms: C12_22  and  N4_24
REMARK    9  A    between atoms: N4_24  and  C13_26
REMARK   10  A    between atoms: C13_26  and  C14_27
ROOT
HETATM    1  O4  UNL     1      23.960   0.498   4.315  1.00  0.00    -0.368 OA
ENDROOT
BRANCH   1   2
HETATM    2  C7  UNL     1      24.393   1.028   3.110  1.00  0.00     0.210 C
HETATM    3  C8  UNL     1      23.327   0.662   2.088  1.00  0.00     0.050 C
BRANCH   2   4
HETATM    4  C6  UNL     1      24.553   2.473   3.110  1.00  0.00     0.248 C
HETATM    5  N2  UNL     1      25.701   3.096   2.582  1.00  0.00    -0.347 N
HETATM    6  C5  UNL     1      26.748   2.280   2.029  1.00  0.00     0.146 C
HETATM    7  C15 UNL     1      25.829   4.568   2.595  1.00  0.00     0.146 C
HETATM    8  C4  UNL     1      28.092   2.911   2.021  1.00  0.00     0.148 C
HETATM    9  N1  UNL     1      28.175   4.272   2.429  1.00  0.00    -0.325 N
HETATM   10  C3  UNL     1      29.233   5.136   2.005  1.00  0.00     0.362 C
HETATM   11  C16 UNL     1      27.164   4.822   3.308  1.00  0.00     0.148 C
HETATM   12  O2  UNL     1      30.155   4.745   1.243  1.00  0.00    -0.238 OA
HETATM   13  O3  UNL     1      23.641   3.183   3.598  1.00  0.00    -0.270 OA
BRANCH  10  14
HETATM   14  O1  UNL     1      29.290   6.458   2.420  1.00  0.00    -0.304 OA
BRANCH  14  15
HETATM   15  C2  UNL     1      30.196   6.902   3.384  1.00  0.00     0.176 C
HETATM   16  C1  UNL     1      29.504   7.205   4.716  1.00  0.00     0.034 C
ENDBRANCH  14  15
ENDBRANCH  10  14
ENDBRANCH   2   4
ENDBRANCH   1   2
BRANCH   1  17
HETATM   17  C9  UNL     1      22.707  -0.030   4.299  1.00  0.00     0.167 C
HETATM   18  C10 UNL     1      21.744   0.730   5.225  1.00  0.00     0.044 C
BRANCH  17  19
HETATM   19  C11 UNL     1      22.796  -1.465   4.775  1.00  0.00     0.250 C
BRANCH  19  20
HETATM   20  O5  UNL     1      24.078  -1.782   5.219  1.00  0.00    -0.374 OA
ATOM     21  H5  UNL     1      24.170  -1.639   6.154  1.00  0.00     0.212 HD
ENDBRANCH  19  20
BRANCH  19  22
HETATM   22  N3  UNL     1      22.360  -2.338   3.713  1.00  0.00    -0.314 N
HETATM   23  C12 UNL     1      21.526  -3.450   3.928  1.00  0.00     0.318 C
HETATM   24  O6  UNL     1      21.115  -3.749   5.068  1.00  0.00    -0.247 OA
HETATM   25  N4  UNL     1      21.140  -4.260   2.829  1.00  0.00    -0.335 N
ATOM     26  H4  UNL     1      21.470  -4.031   1.891  1.00  0.00     0.164 HD
ATOM     27  H3  UNL     1      22.671  -2.139   2.762  1.00  0.00     0.166 HD
BRANCH  25  28
HETATM   28  C13 UNL     1      20.282  -5.408   3.031  1.00  0.00     0.241 C
BRANCH  28  29
HETATM   29  C14 UNL     1      20.964  -6.612   2.428  1.00  0.00     0.403 C
HETATM   30  F1  UNL     1      21.724  -7.311   3.317  1.00  0.00    -0.169 F
HETATM   31  F2  UNL     1      19.951  -7.388   1.857  1.00  0.00    -0.169 F
HETATM   32  F3  UNL     1      21.757  -6.125   1.383  1.00  0.00    -0.169 F
ENDBRANCH  28  29
ENDBRANCH  25  28
ENDBRANCH  19  22
ENDBRANCH  17  19
ENDBRANCH   1  17
TORSDOF 10
ENDMDL