MODEL 1
REMARK VINA RESULT: -7.671558298      0.000      0.000
REMARK  8 active torsions:
REMARK  status: ('A' for Active; 'I' for Inactive)
REMARK    1  A    between atoms: C2_2  and  C3_3
REMARK    2  A    between atoms: C5_6  and  S1_7
REMARK    3  A    between atoms: S1_7  and  C6_8
REMARK    4  A    between atoms: C6_8  and  C7_9
REMARK    5  A    between atoms: C6_8  and  C16_27
REMARK    6  A    between atoms: C7_9  and  C8_10
REMARK    7  A    between atoms: C8_10  and  N1_12
REMARK    8  A    between atoms: C8_10  and  C15_23
REMARK       I    between atoms: N2_15  and  C12_16
ROOT
HETATM    1  C8  UNL     1      21.797  -3.437   1.190  1.00  0.00     0.127 C
HETATM    2  C9  UNL     1      23.129  -3.132   1.996  1.00  0.00     0.048 C
ENDROOT
BRANCH   1   3
HETATM    3  C7  UNL     1      20.859  -3.867   2.208  1.00  0.00     0.065 C
BRANCH   3   4
HETATM    4  C6  UNL     1      21.174  -4.731   3.339  1.00  0.00     0.147 C
BRANCH   4   5
HETATM    5  S1  UNL     1      20.377  -4.021   4.883  1.00  0.00    -0.072 SA
BRANCH   5   6
HETATM    6  C5  UNL     1      21.520  -2.859   5.621  1.00  0.00     0.188 A
HETATM    7  O1  UNL     1      21.900  -2.829   6.857  1.00  0.00    -0.298 OA
HETATM    8  C4  UNL     1      22.746  -1.861   7.103  1.00  0.00     0.174 A
HETATM    9  C3  UNL     1      22.926  -1.205   5.909  1.00  0.00     0.056 A
HETATM   10  N6  UNL     1      22.164  -1.829   5.001  1.00  0.00    -0.329 N
ATOM     11  H6  UNL     1      22.081  -1.578   4.016  1.00  0.00     0.168 HD
BRANCH   9  12
HETATM   12  C2  UNL     1      23.793  -0.053   5.721  1.00  0.00     0.021 C
HETATM   13  C1  UNL     1      23.795   0.634   4.608  1.00  0.00     0.013 C
ENDBRANCH   9  12
ENDBRANCH   5   6
ENDBRANCH   4   5
BRANCH   4  14
HETATM   14  C16 UNL     1      20.496  -6.082   3.303  1.00  0.00     0.245 C
HETATM   15  N5  UNL     1      20.063  -6.696   4.534  1.00  0.00    -0.061 NA
HETATM   16  O2  UNL     1      20.307  -6.657   2.213  1.00  0.00    -0.276 OA
ENDBRANCH   4  14
ENDBRANCH   3   4
ENDBRANCH   1   3
BRANCH   1  17
HETATM   17  N1  UNL     1      21.399  -2.123   0.727  1.00  0.00    -0.373 N
HETATM   18  C10 UNL     1      22.432  -1.193   0.509  1.00  0.00     0.079 C
HETATM   19  C11 UNL     1      22.420   0.053   1.356  1.00  0.00     0.169 C
HETATM   20  N2  UNL     1      21.105   0.611   1.324  1.00  0.00    -0.350 N
HETATM   21  C12 UNL     1      20.831   1.858   1.919  1.00  0.00     0.184 C
HETATM   22  C13 UNL     1      20.072  -0.139   0.666  1.00  0.00     0.145 C
HETATM   23  N3  UNL     1      20.667   2.924   1.200  1.00  0.00    -0.374 N
HETATM   24  N4  UNL     1      20.724   1.979   3.344  1.00  0.00    -0.064 NA
ATOM     25  H32 UNL     1      20.743   2.838   0.187  1.00  0.00     0.158 HD
ATOM     26  H31 UNL     1      20.468   3.828   1.631  1.00  0.00     0.158 HD
HETATM   27  C14 UNL     1      20.191  -1.589   1.180  1.00  0.00     0.143 C
ENDBRANCH   1  17
BRANCH   1  28
HETATM   28  C15 UNL     1      22.298  -4.260   0.091  1.00  0.00     0.412 C
HETATM   29  F1  UNL     1      22.214  -5.645   0.281  1.00  0.00    -0.168 F
HETATM   30  F2  UNL     1      23.710  -4.091   0.080  1.00  0.00    -0.168 F
HETATM   31  F3  UNL     1      21.915  -3.951  -1.183  1.00  0.00    -0.168 F
ENDBRANCH   1  28
TORSDOF 8
ENDMDL