MODEL 5
REMARK VINA RESULT: -6.633243328      3.485      5.016
REMARK  9 active torsions:
REMARK  status: ('A' for Active; 'I' for Inactive)
REMARK    1  A    between atoms: C3_3  and  N1_4
REMARK    2  A    between atoms: C3_3  and  C16_27
REMARK    3  A    between atoms: N1_4  and  C4_6
REMARK    4  A    between atoms: C4_6  and  C5_7
REMARK    5  A    between atoms: C7_10  and  N2_11
REMARK       I    between atoms: N2_11  and  C8_13
REMARK    6  A    between atoms: C8_13  and  C9_15
REMARK    7  A    between atoms: C9_15  and  O3_17
REMARK    8  A    between atoms: O3_17  and  C10_18
REMARK    9  A    between atoms: C14_23  and  C15_24
ROOT
HETATM    1  C5  UNL     1      21.722  -0.495   2.098  1.00  0.00     0.100 C
HETATM    2  S1  UNL     1      21.397   1.186   1.507  1.00  0.00    -0.133 SA
HETATM    3  C6  UNL     1      22.982   1.891   2.055  1.00  0.00     0.165 C
HETATM    4  C7  UNL     1      22.780   3.177   2.804  1.00  0.00     0.119 C
HETATM    5  C12 UNL     1      23.476   2.987   4.119  1.00  0.00     0.047 C
HETATM    6  C13 UNL     1      23.447   1.467   4.314  1.00  0.00     0.121 C
HETATM    7  N3  UNL     1      23.392   0.949   3.019  1.00  0.00    -0.383 N
HETATM    8  C14 UNL     1      23.080  -0.349   2.718  1.00  0.00     0.197 C
ENDROOT
BRANCH   1   9
HETATM    9  C4  UNL     1      21.777  -1.402   0.864  1.00  0.00     0.137 C
BRANCH   9  10
HETATM   10  N1  UNL     1      20.827  -2.463   0.955  1.00  0.00    -0.385 N
ATOM     11  H1  UNL     1      19.903  -2.357   0.536  1.00  0.00     0.159 HD
BRANCH  10  12
HETATM   12  C3  UNL     1      21.176  -3.696   1.645  1.00  0.00     0.108 C
HETATM   13  C2  UNL     1      20.485  -4.068   2.677  1.00  0.00     0.003 C
HETATM   14  C1  UNL     1      20.712  -5.275   3.471  1.00  0.00     0.038 C
BRANCH  12  15
HETATM   15  C16 UNL     1      22.320  -4.446   1.095  1.00  0.00     0.431 C
HETATM   16  F1  UNL     1      21.994  -5.803   1.219  1.00  0.00    -0.165 F
HETATM   17  F2  UNL     1      23.498  -4.149   1.698  1.00  0.00    -0.165 F
HETATM   18  F3  UNL     1      22.459  -4.165  -0.284  1.00  0.00    -0.165 F
ENDBRANCH  12  15
ENDBRANCH  10  12
ENDBRANCH   9  10
ENDBRANCH   1   9
BRANCH   8  19
HETATM   19  C15 UNL     1      23.175  -1.275   3.859  1.00  0.00     0.197 C
HETATM   20  O4  UNL     1      24.333  -1.757   4.162  1.00  0.00    -0.646 OA
HETATM   21  O5  UNL     1      22.161  -1.711   4.671  1.00  0.00    -0.646 OA
ENDBRANCH   8  19
BRANCH   4  22
HETATM   22  N2  UNL     1      21.382   3.504   2.962  1.00  0.00    -0.345 N
HETATM   23  C8  UNL     1      20.976   4.859   2.864  1.00  0.00     0.317 C
HETATM   24  O1  UNL     1      21.819   5.762   2.641  1.00  0.00    -0.262 OA
ATOM     25  H2  UNL     1      20.696   2.771   3.143  1.00  0.00     0.163 HD
BRANCH  23  26
HETATM   26  C9  UNL     1      19.581   5.268   3.012  1.00  0.00     0.351 C
HETATM   27  O2  UNL     1      18.664   4.662   2.391  1.00  0.00    -0.254 OA
BRANCH  26  28
HETATM   28  O3  UNL     1      19.204   6.317   3.824  1.00  0.00    -0.314 OA
BRANCH  28  29
HETATM   29  C10 UNL     1      18.737   7.561   3.363  1.00  0.00     0.175 C
HETATM   30  C11 UNL     1      18.004   8.245   4.471  1.00  0.00     0.034 C
ENDBRANCH  28  29
ENDBRANCH  26  28
ENDBRANCH  23  26
ENDBRANCH   4  22
TORSDOF 9
ENDMDL