MODEL 4
REMARK VINA RESULT: -7.184148318      1.951      2.592
REMARK  9 active torsions:
REMARK  status: ('A' for Active; 'I' for Inactive)
REMARK    1  A    between atoms: C2_2  and  C4_4
REMARK    2  A    between atoms: C4_4  and  S1_5
REMARK    3  A    between atoms: C4_4  and  C7_14
REMARK    4  A    between atoms: S1_5  and  C5_6
REMARK       I    between atoms: C7_14  and  N4_16
REMARK    5  A    between atoms: C11_20  and  C12_21
REMARK       I    between atoms: C12_21  and  N5_23
REMARK    6  A    between atoms: N5_23  and  C13_25
REMARK    7  A    between atoms: C13_25  and  C14_26
REMARK    8  A    between atoms: C13_25  and  C16_30
REMARK    9  A    between atoms: C14_26  and  O3_28
ROOT
HETATM    1  C7  UNL     1      24.603   0.726   0.601  1.00  0.00     0.235 C
HETATM    2  O1  UNL     1      24.807  -0.441   0.126  1.00  0.00    -0.272 OA
HETATM    3  N4  UNL     1      23.984   1.034   1.807  1.00  0.00    -0.338 N
HETATM    4  C8  UNL     1      23.804   2.458   2.214  1.00  0.00     0.127 C
HETATM    5  C9  UNL     1      24.483   2.364   3.570  1.00  0.00     0.022 C
HETATM    6  C10 UNL     1      24.176   0.975   4.079  1.00  0.00     0.037 C
HETATM    7  C11 UNL     1      23.392   0.382   2.890  1.00  0.00     0.179 C
ENDROOT
BRANCH   1   8
HETATM    8  C4  UNL     1      25.124   1.802  -0.312  1.00  0.00     0.151 C
BRANCH   8   9
HETATM    9  C2  UNL     1      24.669   1.610  -1.733  1.00  0.00     0.001 C
HETATM   10  C1  UNL     1      25.733   2.013  -2.732  1.00  0.00     0.011 C
HETATM   11  C3  UNL     1      23.372   2.354  -1.971  1.00  0.00     0.011 C
ENDBRANCH   8   9
BRANCH   8  12
HETATM   12  S1  UNL     1      26.951   1.752  -0.358  1.00  0.00    -0.078 SA
BRANCH  12  13
HETATM   13  C5  UNL     1      27.641   2.508   1.091  1.00  0.00     0.160 A
HETATM   14  N1  UNL     1      27.245   3.647   1.678  1.00  0.00    -0.331 N
HETATM   15  C6  UNL     1      28.022   3.892   2.757  1.00  0.00     0.199 A
ATOM     16  H1  UNL     1      26.476   4.237   1.359  1.00  0.00     0.168 HD
HETATM   17  N2  UNL     1      28.906   2.890   2.830  1.00  0.00    -0.294 N
HETATM   18  N3  UNL     1      28.671   2.051   1.818  1.00  0.00    -0.279 N
ATOM     19  H2  UNL     1      29.633   2.784   3.538  1.00  0.00     0.187 HD
ATOM     20  H3  UNL     1      29.194   1.196   1.627  1.00  0.00     0.189 HD
ENDBRANCH  12  13
ENDBRANCH   8  12
ENDBRANCH   1   8
BRANCH   7  21
HETATM   21  C12 UNL     1      23.326  -1.063   2.985  1.00  0.00     0.241 C
HETATM   22  O2  UNL     1      23.940  -1.700   3.863  1.00  0.00    -0.271 OA
HETATM   23  N5  UNL     1      22.562  -1.864   2.087  1.00  0.00    -0.344 N
ATOM     24  H5  UNL     1      22.043  -1.389   1.349  1.00  0.00     0.163 HD
BRANCH  23  25
HETATM   25  C13 UNL     1      22.476  -3.306   2.154  1.00  0.00     0.220 C
BRANCH  25  26
HETATM   26  C14 UNL     1      22.957  -3.917   0.842  1.00  0.00     0.145 C
HETATM   27  C15 UNL     1      22.029  -3.605  -0.296  1.00  0.00     0.042 C
BRANCH  26  28
HETATM   28  O3  UNL     1      24.265  -3.608   0.562  1.00  0.00    -0.394 OA
ATOM     29  H3  UNL     1      24.350  -3.005  -0.166  1.00  0.00     0.210 HD
ENDBRANCH  26  28
ENDBRANCH  25  26
BRANCH  25  30
HETATM   30  C16 UNL     1      21.086  -3.765   2.479  1.00  0.00     0.409 C
HETATM   31  F1  UNL     1      20.935  -5.081   2.130  1.00  0.00    -0.169 F
HETATM   32  F2  UNL     1      20.952  -3.709   3.870  1.00  0.00    -0.169 F
HETATM   33  F3  UNL     1      20.112  -3.049   1.834  1.00  0.00    -0.169 F
ENDBRANCH  25  30
ENDBRANCH  23  25
ENDBRANCH   7  21
TORSDOF 9
ENDMDL