MODEL 5
REMARK VINA RESULT: -7.612104754      3.567      6.170
REMARK  8 active torsions:
REMARK  status: ('A' for Active; 'I' for Inactive)
REMARK       I    between atoms: N1_2  and  C2_4
REMARK    1  A    between atoms: C2_4  and  C3_6
REMARK    2  A    between atoms: C7_14  and  C8_15
REMARK    3  A    between atoms: C8_15  and  C9_17
REMARK    4  A    between atoms: C9_17  and  N5_18
REMARK    5  A    between atoms: N5_18  and  C10_20
REMARK    6  A    between atoms: C10_20  and  C11_21
REMARK    7  A    between atoms: C10_20  and  C18_31
REMARK       I    between atoms: C11_21  and  N6_23
REMARK    8  A    between atoms: N6_23  and  C12_25
ROOT
HETATM    1  C3  UNL     1      23.041   0.135   5.346  1.00  0.00     0.133 A
HETATM    2  N2  UNL     1      22.935  -0.020   6.677  1.00  0.00    -0.292 N
ATOM      3  H2  UNL     1      23.244   0.656   7.374  1.00  0.00     0.187 HD
HETATM    4  N3  UNL     1      22.371  -1.181   6.941  1.00  0.00    -0.285 N
HETATM    5  C4  UNL     1      22.121  -1.834   8.239  1.00  0.00     0.179 C
HETATM    6  C5  UNL     1      22.080  -1.842   5.767  1.00  0.00     0.147 A
HETATM    7  C6  UNL     1      21.388  -3.088   5.661  1.00  0.00     0.120 C
HETATM    8  N4  UNL     1      20.806  -4.099   5.590  1.00  0.00    -0.190 NA
HETATM    9  C7  UNL     1      22.517  -1.006   4.716  1.00  0.00     0.088 A
ENDROOT
BRANCH   9  10
HETATM   10  C8  UNL     1      22.713  -1.365   3.353  1.00  0.00     0.202 C
HETATM   11  O2  UNL     1      23.798  -1.912   3.011  1.00  0.00    -0.286 OA
BRANCH  10  12
HETATM   12  C9  UNL     1      21.734  -1.185   2.242  1.00  0.00     0.140 C
BRANCH  12  13
HETATM   13  N5  UNL     1      21.555   0.145   1.931  1.00  0.00    -0.376 N
ATOM     14  H5  UNL     1      22.258   0.736   2.376  1.00  0.00     0.160 HD
BRANCH  13  15
HETATM   15  C10 UNL     1      20.689   0.866   1.189  1.00  0.00     0.282 C
BRANCH  15  16
HETATM   16  C11 UNL     1      20.980   1.097  -0.243  1.00  0.00     0.249 C
HETATM   17  O3  UNL     1      22.089   1.646  -0.515  1.00  0.00    -0.271 OA
HETATM   18  N6  UNL     1      20.126   0.753  -1.314  1.00  0.00    -0.354 N
ATOM     19  H6  UNL     1      19.217   0.327  -1.134  1.00  0.00     0.162 HD
BRANCH  18  20
HETATM   20  C12 UNL     1      20.573   1.021  -2.708  1.00  0.00     0.084 C
HETATM   21  C13 UNL     1      21.124  -0.242  -3.300  1.00  0.00     0.025 C
HETATM   22  C14 UNL     1      21.523   0.023  -4.714  1.00  0.00     0.002 C
HETATM   23  C15 UNL     1      20.283   0.419  -5.463  1.00  0.00     0.000 C
HETATM   24  C16 UNL     1      19.770   1.727  -4.875  1.00  0.00     0.002 C
HETATM   25  C17 UNL     1      19.315   1.480  -3.457  1.00  0.00     0.025 C
ENDBRANCH  18  20
ENDBRANCH  15  16
BRANCH  15  26
HETATM   26  C18 UNL     1      20.501   2.216   1.909  1.00  0.00     0.416 C
HETATM   27  F1  UNL     1      19.605   3.036   1.367  1.00  0.00    -0.168 F
HETATM   28  F2  UNL     1      21.762   2.801   2.093  1.00  0.00    -0.168 F
HETATM   29  F3  UNL     1      20.083   1.913   3.196  1.00  0.00    -0.168 F
ENDBRANCH  15  26
ENDBRANCH  13  15
ENDBRANCH  12  13
ENDBRANCH  10  12
ENDBRANCH   9  10
BRANCH   1  30
HETATM   30  C2  UNL     1      23.505   1.335   4.601  1.00  0.00     0.270 C
HETATM   31  N1  UNL     1      24.551   1.094   3.656  1.00  0.00    -0.360 N
HETATM   32  C1  UNL     1      25.171   2.018   2.799  1.00  0.00     0.149 C
ATOM     33  H1  UNL     1      24.889   0.133   3.597  1.00  0.00     0.162 HD
HETATM   34  O1  UNL     1      23.048   2.456   4.758  1.00  0.00    -0.266 OA
ENDBRANCH   1  30
TORSDOF 8
ENDMDL