MODEL 4
REMARK VINA RESULT: -7.231268059      3.771      5.350
REMARK  11 active torsions:
REMARK  status: ('A' for Active; 'I' for Inactive)
REMARK    1  A    between atoms: C2_2  and  C4_4
REMARK    2  A    between atoms: C4_4  and  C5_5
REMARK    3  A    between atoms: C4_4  and  N2_22
REMARK    4  A    between atoms: C5_5  and  C6_6
REMARK    5  A    between atoms: C5_5  and  N1_17
REMARK    6  A    between atoms: C6_6  and  O1_7
REMARK    7  A    between atoms: C6_6  and  C7_9
REMARK    8  A    between atoms: N1_17  and  O2_18
REMARK    9  A    between atoms: N1_17  and  C13_20
REMARK   10  A    between atoms: C16_26  and  C18_28
REMARK   11  A    between atoms: C18_28  and  O4_29
ROOT
HETATM    1  C5  UNL     1      23.415   0.054   1.249  1.00  0.00     0.169 C
ENDROOT
BRANCH   1   2
HETATM    2  C4  UNL     1      22.815   1.071   0.343  1.00  0.00     0.118 C
BRANCH   2   3
HETATM    3  C2  UNL     1      23.820   1.321  -0.801  1.00  0.00     0.003 C
HETATM    4  C1  UNL     1      23.223   1.205  -2.153  1.00  0.00     0.011 C
HETATM    5  C3  UNL     1      25.046   0.454  -0.621  1.00  0.00     0.011 C
ENDBRANCH   2   3
BRANCH   2   6
HETATM    6  N2  UNL     1      22.365   2.290   0.909  1.00  0.00    -0.341 N
HETATM    7  C14 UNL     1      22.998   3.552   1.158  1.00  0.00     0.165 C
HETATM    8  C15 UNL     1      22.049   4.417   1.956  1.00  0.00     0.207 C
HETATM    9  F3  UNL     1      22.233   4.324   3.319  1.00  0.00    -0.246 F
HETATM   10  C16 UNL     1      20.726   3.878   1.585  1.00  0.00     0.091 C
HETATM   11  C17 UNL     1      20.158   4.600   0.415  1.00  0.00     0.031 C
HETATM   12  C19 UNL     1      21.017   2.457   1.348  1.00  0.00     0.233 C
HETATM   13  O5  UNL     1      20.158   1.551   1.525  1.00  0.00    -0.272 OA
BRANCH  10  14
HETATM   14  C18 UNL     1      19.751   4.052   2.751  1.00  0.00     0.186 C
BRANCH  14  15
HETATM   15  O4  UNL     1      18.462   3.829   2.292  1.00  0.00    -0.400 OA
ATOM     16  H4  UNL     1      17.847   4.162   2.934  1.00  0.00     0.209 HD
ENDBRANCH  14  15
ENDBRANCH  10  14
ENDBRANCH   2   6
ENDBRANCH   1   2
BRANCH   1  17
HETATM   17  C6  UNL     1      23.696   0.484   2.646  1.00  0.00     0.149 C
BRANCH  17  18
HETATM   18  O1  UNL     1      25.005   0.326   3.062  1.00  0.00    -0.393 OA
ATOM     19  H1  UNL     1      25.160  -0.406   3.647  1.00  0.00     0.210 HD
ENDBRANCH  17  18
BRANCH  17  20
HETATM   20  C7  UNL     1      22.894  -0.228   3.705  1.00  0.00     0.017 C
HETATM   21  C8  UNL     1      23.637  -1.217   4.525  1.00  0.00     0.013 C
HETATM   22  C9  UNL     1      22.644  -1.832   5.502  1.00  0.00     0.079 C
HETATM   23  C10 UNL     1      22.368  -0.730   6.524  1.00  0.00     0.243 C
HETATM   24  F1  UNL     1      23.602  -0.222   6.890  1.00  0.00    -0.206 F
HETATM   25  F2  UNL     1      21.685  -1.207   7.608  1.00  0.00    -0.206 F
HETATM   26  C11 UNL     1      21.610   0.344   5.780  1.00  0.00     0.079 C
HETATM   27  C12 UNL     1      22.504   0.895   4.691  1.00  0.00     0.013 C
ENDBRANCH  17  20
ENDBRANCH   1  17
BRANCH   1  28
HETATM   28  N1  UNL     1      22.576  -1.137   1.198  1.00  0.00    -0.227 N
BRANCH  28  29
HETATM   29  O2  UNL     1      21.245  -1.142   1.421  1.00  0.00    -0.285 OA
ATOM     30  H2  UNL     1      20.789  -1.800   1.934  1.00  0.00     0.245 HD
ENDBRANCH  28  29
BRANCH  28  31
HETATM   31  C13 UNL     1      23.138  -2.408   0.893  1.00  0.00     0.377 C
HETATM   32  O3  UNL     1      23.543  -3.224   1.761  1.00  0.00    -0.281 OA
ENDBRANCH  28  31
ENDBRANCH   1  28
TORSDOF 11
ENDMDL