MODEL 5
REMARK VINA RESULT: -6.603527676      3.708      6.010
REMARK  11 active torsions:
REMARK  status: ('A' for Active; 'I' for Inactive)
REMARK    1  A    between atoms: C2_2  and  N1_3
REMARK    2  A    between atoms: N2_6  and  C5_7
REMARK    3  A    between atoms: C5_7  and  C6_8
REMARK    4  A    between atoms: C6_8  and  O1_9
REMARK    5  A    between atoms: C6_8  and  C8_14
REMARK    6  A    between atoms: O1_9  and  C7_10
REMARK       I    between atoms: C8_14  and  N3_16
REMARK    7  A    between atoms: C12_20  and  C13_21
REMARK    8  A    between atoms: C13_21  and  O3_22
REMARK    9  A    between atoms: C14_24  and  C15_25
REMARK   10  A    between atoms: C15_25  and  O4_26
REMARK   11  A    between atoms: N4_28  and  O5_30
ROOT
HETATM    1  C8  UNL     1      23.414   0.258   3.174  1.00  0.00     0.251 C
HETATM    2  O2  UNL     1      24.647   0.421   3.318  1.00  0.00    -0.270 OA
HETATM    3  N3  UNL     1      22.564   1.055   2.370  1.00  0.00    -0.337 N
HETATM    4  C9  UNL     1      21.162   0.795   2.347  1.00  0.00     0.127 C
HETATM    5  C10 UNL     1      20.494   1.398   1.104  1.00  0.00     0.020 C
HETATM    6  C11 UNL     1      20.756   2.882   1.264  1.00  0.00     0.011 C
HETATM    7  C12 UNL     1      22.227   3.072   0.952  1.00  0.00     0.040 C
HETATM    8  C14 UNL     1      23.149   2.124   1.588  1.00  0.00     0.169 C
ENDROOT
BRANCH   1   9
HETATM    9  C6  UNL     1      22.836  -0.922   3.967  1.00  0.00     0.251 C
BRANCH   9  10
HETATM   10  C5  UNL     1      22.790  -2.034   2.991  1.00  0.00     0.314 C
BRANCH  10  11
HETATM   11  N2  UNL     1      21.545  -2.604   2.617  1.00  0.00     0.094 N
HETATM   12  C4  UNL     1      21.825  -3.250   1.306  1.00  0.00     0.292 C
HETATM   13  C3  UNL     1      22.323  -4.659   1.552  1.00  0.00     0.147 C
HETATM   14  N1  UNL     1      21.181  -5.427   1.931  1.00  0.00    -0.409 N
HETATM   15  C17 UNL     1      20.409  -4.788   2.936  1.00  0.00     0.147 C
HETATM   16  C16 UNL     1      21.105  -3.589   3.554  1.00  0.00     0.292 C
BRANCH  14  17
HETATM   17  C2  UNL     1      21.328  -6.830   1.992  1.00  0.00     0.112 C
HETATM   18  C1  UNL     1      21.548  -7.364   3.403  1.00  0.00     0.026 C
ENDBRANCH  14  17
ENDBRANCH  10  11
ENDBRANCH   9  10
BRANCH   9  19
HETATM   19  O1  UNL     1      23.789  -1.221   4.936  1.00  0.00    -0.281 OA
BRANCH  19  20
HETATM   20  C7  UNL     1      23.310  -1.007   6.225  1.00  0.00     0.525 C
HETATM   21  F1  UNL     1      24.251  -0.253   6.895  1.00  0.00    -0.144 F
HETATM   22  F2  UNL     1      23.025  -2.117   6.940  1.00  0.00    -0.144 F
HETATM   23  F3  UNL     1      22.162  -0.221   6.207  1.00  0.00    -0.144 F
ENDBRANCH  19  20
ENDBRANCH   9  19
ENDBRANCH   1   9
BRANCH   8  24
HETATM   24  C15 UNL     1      24.251   2.797   2.347  1.00  0.00     0.159 C
HETATM   25  N4  UNL     1      24.147   3.381   3.461  1.00  0.00    -0.249 N
ATOM     26  H4  UNL     1      25.024   3.775   3.802  1.00  0.00     0.196 HD
BRANCH  24  27
HETATM   27  O4  UNL     1      25.548   2.803   1.796  1.00  0.00    -0.347 OA
ATOM     28  H4  UNL     1      26.280   3.040   2.353  1.00  0.00     0.219 HD
ENDBRANCH  24  27
BRANCH  25  29
HETATM   29  O5  UNL     1      23.111   3.585   4.280  1.00  0.00    -0.288 OA
ATOM     30  H5  UNL     1      23.025   4.056   5.101  1.00  0.00     0.244 HD
ENDBRANCH  25  29
ENDBRANCH   8  24
BRANCH   7  31
HETATM   31  C13 UNL     1      22.496   4.542   1.169  1.00  0.00     0.171 C
BRANCH  31  32
HETATM   32  O3  UNL     1      21.755   5.110   2.164  1.00  0.00    -0.400 OA
ATOM     33  H3  UNL     1      21.654   4.569   2.938  1.00  0.00     0.209 HD
ENDBRANCH  31  32
ENDBRANCH   7  31
TORSDOF 11
ENDMDL