MODEL 5
REMARK VINA RESULT: -6.193880123      2.303      6.389
REMARK  6 active torsions:
REMARK  status: ('A' for Active; 'I' for Inactive)
REMARK    1  A    between atoms: C2_2  and  C3_3
REMARK    2  A    between atoms: C3_3  and  N1_4
REMARK       I    between atoms: N1_4  and  C4_6
REMARK    3  A    between atoms: C4_6  and  C5_8
REMARK    4  A    between atoms: C6_11  and  N3_12
REMARK    5  A    between atoms: C6_11  and  C10_19
REMARK       I    between atoms: N3_12  and  C7_14
REMARK    6  A    between atoms: C7_14  and  C8_16
REMARK       I    between atoms: C10_19  and  N4_21
ROOT
HETATM    1  C5  UNL     1     -10.210 -27.083   1.735  1.00  0.00     0.106 C
HETATM    2  N2  UNL     1     -11.334 -26.753   2.268  1.00  0.00    -0.353 N
ATOM      3  H2  UNL     1     -11.908 -27.417   2.786  1.00  0.00     0.162 HD
HETATM    4  C6  UNL     1     -11.715 -25.406   2.084  1.00  0.00     0.192 C
HETATM    5  C12 UNL     1     -10.524 -24.753   1.444  1.00  0.00     0.104 C
HETATM    6  C13 UNL     1      -9.637 -25.896   1.096  1.00  0.00     0.127 C
HETATM    7 BR2  UNL     1      -9.453 -26.143  -0.812  1.00  0.00    -0.066 Br
HETATM    8 BR3  UNL     1      -7.881 -25.588   1.892  1.00  0.00    -0.066 Br
ENDROOT
BRANCH   4   9
HETATM    9  N3  UNL     1     -12.896 -25.266   1.237  1.00  0.00    -0.322 N
HETATM   10  C7  UNL     1     -13.164 -26.047   0.095  1.00  0.00     0.260 C
HETATM   11  O2  UNL     1     -12.371 -26.957  -0.276  1.00  0.00    -0.267 OA
ATOM     12  H3  UNL     1     -13.577 -24.550   1.490  1.00  0.00     0.165 HD
BRANCH  10  13
HETATM   13  C8  UNL     1     -14.365 -25.812  -0.674  1.00  0.00     0.069 C
HETATM   14  C9  UNL     1     -15.502 -25.380  -0.174  1.00  0.00     0.037 C
HETATM   15 BR1  UNL     1     -14.303 -26.152  -2.569  1.00  0.00    -0.046 Br
ENDBRANCH  10  13
ENDBRANCH   4   9
BRANCH   4  16
HETATM   16  C10 UNL     1     -12.035 -24.759   3.391  1.00  0.00     0.266 C
HETATM   17  O3  UNL     1     -13.226 -24.712   3.762  1.00  0.00    -0.269 OA
HETATM   18  N4  UNL     1     -10.977 -24.212   4.185  1.00  0.00    -0.362 N
HETATM   19  C11 UNL     1     -11.308 -23.590   5.446  1.00  0.00     0.149 C
ATOM     20  H4  UNL     1     -10.010 -24.260   3.866  1.00  0.00     0.162 HD
ENDBRANCH   4  16
BRANCH   1  21
HETATM   21  C4  UNL     1      -9.623 -28.439   1.801  1.00  0.00     0.266 C
HETATM   22  N1  UNL     1      -8.892 -28.842   2.916  1.00  0.00    -0.352 N
ATOM     23  H1  UNL     1      -8.765 -28.183   3.683  1.00  0.00     0.163 HD
HETATM   24  O1  UNL     1      -9.801 -29.204   0.837  1.00  0.00    -0.266 OA
BRANCH  22  25
HETATM   25  C3  UNL     1      -8.303 -30.172   3.029  1.00  0.00     0.149 C
BRANCH  25  26
HETATM   26  C2  UNL     1      -6.863 -30.054   3.380  1.00  0.00    -0.018 C
HETATM   27  C1  UNL     1      -6.312 -28.909   3.725  1.00  0.00     0.008 C
ENDBRANCH  25  26
ENDBRANCH  22  25
ENDBRANCH   1  21
TORSDOF 6
ENDMDL