MODEL 4
REMARK VINA RESULT: -6.853240546      2.277      3.176
REMARK  6 active torsions:
REMARK  status: ('A' for Active; 'I' for Inactive)
REMARK    1  A    between atoms: N1_2  and  C3_4
REMARK    2  A    between atoms: C3_4  and  C4_5
REMARK    3  A    between atoms: C4_5  and  C5_6
REMARK    4  A    between atoms: C5_6  and  O1_7
REMARK    5  A    between atoms: O1_7  and  C6_8
REMARK    6  A    between atoms: C7_9  and  C8_10
REMARK       I    between atoms: C8_10  and  N2_12
REMARK       I    between atoms: C9_14  and  N4_16
REMARK       I    between atoms: C10_18  and  N6_20
ROOT
HETATM    1  C6  UNL     1     -12.798 -24.330   4.811  1.00  0.00     0.121 A
HETATM    2  C7  UNL     1     -11.492 -24.229   4.412  1.00  0.00     0.137 A
HETATM    3  N7  UNL     1     -10.828 -23.687   5.484  1.00  0.00    -0.343 N
ATOM      4  H7  UNL     1      -9.829 -23.483   5.506  1.00  0.00     0.167 HD
HETATM    5  C13 UNL     1     -11.675 -23.465   6.497  1.00  0.00     0.100 A
HETATM    6 BR1  UNL     1     -11.255 -22.720   8.222  1.00  0.00    -0.030 Br
HETATM    7  C14 UNL     1     -12.933 -23.852   6.127  1.00  0.00     0.080 A
HETATM    8 BR2  UNL     1     -14.554 -23.779   7.152  1.00  0.00    -0.045 Br
ENDROOT
BRANCH   2   9
HETATM    9  C8  UNL     1     -10.854 -24.620   3.153  1.00  0.00     0.277 C
HETATM   10  O2  UNL     1     -10.737 -23.874   2.171  1.00  0.00    -0.266 OA
HETATM   11  N2  UNL     1     -10.329 -25.932   3.023  1.00  0.00    -0.295 N
HETATM   12  C9  UNL     1      -9.054 -26.171   3.051  1.00  0.00     0.197 C
ATOM     13  H2  UNL     1     -10.975 -26.712   2.902  1.00  0.00     0.171 HD
HETATM   14  N3  UNL     1      -8.189 -25.059   3.221  1.00  0.00    -0.063 NA
HETATM   15  N4  UNL     1      -8.515 -27.465   2.925  1.00  0.00    -0.304 N
HETATM   16  C10 UNL     1      -9.164 -28.400   2.330  1.00  0.00     0.192 C
ATOM     17  H4  UNL     1      -7.593 -27.664   3.313  1.00  0.00     0.171 HD
HETATM   18  N5  UNL     1     -10.453 -28.193   1.768  1.00  0.00    -0.063 NA
HETATM   19  N6  UNL     1      -8.562 -29.700   2.231  1.00  0.00    -0.364 N
HETATM   20  C11 UNL     1      -8.372 -30.527   3.408  1.00  0.00     0.151 C
HETATM   21  C12 UNL     1      -8.161 -30.140   0.918  1.00  0.00     0.151 C
ENDBRANCH   2   9
BRANCH   1  22
HETATM   22  O1  UNL     1     -13.885 -24.801   4.110  1.00  0.00    -0.347 OA
BRANCH  22  23
HETATM   23  C5  UNL     1     -13.922 -25.774   3.129  1.00  0.00     0.177 C
BRANCH  23  24
HETATM   24  C4  UNL     1     -14.385 -25.380   1.764  1.00  0.00     0.057 C
BRANCH  24  25
HETATM   25  C3  UNL     1     -13.357 -25.805   0.746  1.00  0.00     0.273 C
BRANCH  25  26
HETATM   26  N1  UNL     1     -13.917 -26.027  -0.559  1.00  0.00     0.080 N
HETATM   27  C1  UNL     1     -13.102 -25.290  -1.513  1.00  0.00     0.309 C
HETATM   28  C2  UNL     1     -15.268 -25.537  -0.686  1.00  0.00     0.309 C
ENDBRANCH  25  26
ENDBRANCH  24  25
ENDBRANCH  23  24
ENDBRANCH  22  23
ENDBRANCH   1  22
TORSDOF 6
ENDMDL