MODEL 3
REMARK VINA RESULT: -6.931560190      3.543      7.809
REMARK  7 active torsions:
REMARK  status: ('A' for Active; 'I' for Inactive)
REMARK    1  A    between atoms: C3_3  and  C4_4
REMARK    2  A    between atoms: C4_4  and  N1_5
REMARK    3  A    between atoms: C6_10  and  N3_11
REMARK    4  A    between atoms: N3_11  and  C7_13
REMARK    5  A    between atoms: C7_13  and  C8_14
REMARK    6  A    between atoms: C8_14  and  N4_15
REMARK       I    between atoms: N4_15  and  C10_17
REMARK    7  A    between atoms: C10_17  and  C11_19
ROOT
HETATM    1  C1  UNL     1     -14.450 -26.115  -2.476  1.00  0.00     0.012 C
HETATM    2  C2  UNL     1     -14.238 -25.927  -1.303  1.00  0.00    -0.116 C
HETATM    3  C3  UNL     1     -13.970 -25.711   0.143  1.00  0.00     0.112 C
ENDROOT
BRANCH   3   4
HETATM    4  C4  UNL     1     -12.464 -25.453   0.239  1.00  0.00     0.133 C
BRANCH   4   5
HETATM    5  N1  UNL     1     -12.043 -25.091   1.501  1.00  0.00    -0.374 N
HETATM    6  C5  UNL     1     -11.224 -25.394   2.384  1.00  0.00     0.137 A
HETATM    7  N2  UNL     1     -11.197 -24.670   3.559  1.00  0.00    -0.176 N
HETATM    8  C13 UNL     1     -10.310 -26.413   2.307  1.00  0.00     0.089 A
HETATM    9  C6  UNL     1     -10.337 -24.945   4.551  1.00  0.00     0.680 A
ATOM     10  H2  UNL     1     -11.853 -23.898   3.677  1.00  0.00     0.186 HD
HETATM   11  N5  UNL     1      -9.456 -25.957   4.431  1.00  0.00    -0.184 N
HETATM   12  C12 UNL     1      -9.404 -26.721   3.327  1.00  0.00     0.117 A
ATOM     13  H5  UNL     1      -8.812 -26.149   5.198  1.00  0.00     0.185 HD
HETATM   14 BR2  UNL     1      -8.147 -28.152   3.176  1.00  0.00    -0.029 Br
HETATM   15 BR3  UNL     1     -10.187 -27.531   0.766  1.00  0.00    -0.044 Br
ATOM     16  H1  UNL     1     -12.597 -24.296   1.821  1.00  0.00     0.161 HD
BRANCH   9  17
HETATM   17  N3  UNL     1     -10.374 -24.225   5.614  1.00  0.00    -0.224 N
ATOM     18  H3  UNL     1     -10.215 -24.700   6.502  1.00  0.00     0.177 HD
BRANCH  17  19
HETATM   19  C7  UNL     1     -10.618 -22.818   5.663  1.00  0.00     0.158 C
BRANCH  19  20
HETATM   20  C8  UNL     1     -11.444 -22.456   6.879  1.00  0.00     0.145 C
BRANCH  20  21
HETATM   21  N4  UNL     1     -12.831 -22.684   6.591  1.00  0.00    -0.354 N
HETATM   22  C9  UNL     1     -13.577 -21.594   5.994  1.00  0.00     0.152 C
HETATM   23  C10 UNL     1     -13.511 -23.893   6.851  1.00  0.00     0.229 C
HETATM   24  O1  UNL     1     -12.923 -24.894   7.375  1.00  0.00    -0.273 OA
BRANCH  23  25
HETATM   25  C11 UNL     1     -14.938 -24.061   6.532  1.00  0.00     0.188 C
HETATM   26 BR1  UNL     1     -16.080 -23.526   7.996  1.00  0.00    -0.087 Br
ENDBRANCH  23  25
ENDBRANCH  20  21
ENDBRANCH  19  20
ENDBRANCH  17  19
ENDBRANCH   9  17
ENDBRANCH   4   5
ENDBRANCH   3   4
TORSDOF 7
ENDMDL