MODEL 1
REMARK VINA RESULT: -6.514933967      0.000      0.000
REMARK  7 active torsions:
REMARK  status: ('A' for Active; 'I' for Inactive)
REMARK    1  A    between atoms: C2_2  and  N1_3
REMARK    2  A    between atoms: N1_3  and  C3_5
REMARK    3  A    between atoms: N1_3  and  C6_9
REMARK    4  A    between atoms: C3_5  and  C4_6
REMARK    5  A    between atoms: C4_6  and  O1_7
REMARK    6  A    between atoms: C6_9  and  C7_10
REMARK       I    between atoms: C7_10  and  N2_12
REMARK    7  A    between atoms: C9_17  and  N4_18
ROOT
HETATM    1  C7  UNL     1      -9.961 -26.788   1.320  1.00  0.00     0.250 C
HETATM    2  O2  UNL     1      -9.463 -25.905   0.578  1.00  0.00    -0.271 OA
HETATM    3  N2  UNL     1     -10.901 -26.356   2.247  1.00  0.00    -0.310 N
ATOM      4  H2  UNL     1     -10.482 -26.325   3.177  1.00  0.00     0.170 HD
HETATM    5  C8  UNL     1     -12.069 -26.000   2.306  1.00  0.00     0.143 A
HETATM    6  N3  UNL     1     -12.585 -25.643   3.531  1.00  0.00    -0.175 N
ATOM      7  H3  UNL     1     -11.972 -25.688   4.344  1.00  0.00     0.186 HD
HETATM    8  C9  UNL     1     -13.839 -25.242   3.709  1.00  0.00     0.678 A
HETATM    9  N5  UNL     1     -14.665 -25.176   2.651  1.00  0.00    -0.184 N
ATOM     10  H5  UNL     1     -15.627 -24.869   2.793  1.00  0.00     0.185 HD
HETATM   11  C10 UNL     1     -14.263 -25.502   1.416  1.00  0.00     0.117 A
HETATM   12 BR2  UNL     1     -15.439 -25.406  -0.081  1.00  0.00    -0.029 Br
HETATM   13  C11 UNL     1     -12.934 -25.921   1.254  1.00  0.00     0.090 A
HETATM   14 BR3  UNL     1     -12.391 -26.381  -0.525  1.00  0.00    -0.044 Br
ENDROOT
BRANCH   1  15
HETATM   15  C6  UNL     1      -9.643 -28.216   1.303  1.00  0.00     0.354 C
BRANCH  15  16
HETATM   16  N1  UNL     1      -8.495 -28.681   2.003  1.00  0.00    -0.001 N
HETATM   17 BR1  UNL     1      -7.522 -29.633   0.577  1.00  0.00     0.165 Br
BRANCH  16  18
HETATM   18  C2  UNL     1      -8.714 -29.750   2.937  1.00  0.00     0.247 C
HETATM   19  C1  UNL     1      -7.392 -30.407   3.310  1.00  0.00     0.036 C
ENDBRANCH  16  18
BRANCH  16  20
HETATM   20  C3  UNL     1      -7.570 -27.681   2.398  1.00  0.00     0.278 C
BRANCH  20  21
HETATM   21  C4  UNL     1      -6.377 -27.430   1.580  1.00  0.00     0.196 C
BRANCH  21  22
HETATM   22  O1  UNL     1      -5.150 -27.443   2.218  1.00  0.00    -0.394 OA
HETATM   23  C5  UNL     1      -5.261 -27.400   3.623  1.00  0.00     0.201 C
ENDBRANCH  21  22
ENDBRANCH  20  21
ENDBRANCH  16  20
ENDBRANCH  15  16
ENDBRANCH   1  15
BRANCH   8  24
HETATM   24  N4  UNL     1     -14.292 -24.910   4.888  1.00  0.00    -0.234 N
ATOM     25  H42 UNL     1     -15.287 -25.016   5.083  1.00  0.00     0.174 HD
ATOM     26  H41 UNL     1     -13.677 -24.547   5.616  1.00  0.00     0.174 HD
ENDBRANCH   8  24
TORSDOF 7
ENDMDL