MODEL 4
REMARK VINA RESULT: -5.906878983      2.417      2.886
REMARK  8 active torsions:
REMARK  status: ('A' for Active; 'I' for Inactive)
REMARK    1  A    between atoms: C2_2  and  C3_3
REMARK    2  A    between atoms: C3_3  and  C4_4
REMARK       I    between atoms: C4_4  and  N1_6
REMARK    3  A    between atoms: N1_6  and  C6_8
REMARK    4  A    between atoms: C6_8  and  C7_9
REMARK    5  A    between atoms: C6_8  and  C8_11
REMARK    6  A    between atoms: C8_11  and  C9_13
REMARK    7  A    between atoms: C13_19  and  N3_20
REMARK    8  A    between atoms: C13_19  and  C14_24
ROOT
HETATM    1  C9  UNL     1     -10.710 -26.615   1.150  1.00  0.00     0.104 C
HETATM    2 BR1  UNL     1     -11.834 -25.674   2.461  1.00  0.00    -0.075 Br
HETATM    3  C10 UNL     1      -9.285 -26.281   1.461  1.00  0.00     0.092 C
HETATM    4 BR2  UNL     1      -8.067 -26.035   0.018  1.00  0.00    -0.089 Br
HETATM    5  C11 UNL     1      -9.192 -27.619   2.170  1.00  0.00     0.047 A
HETATM    6  C12 UNL     1     -10.555 -28.062   1.542  1.00  0.00     0.059 A
HETATM    7  C13 UNL     1      -9.366 -28.877   1.426  1.00  0.00     0.143 A
ENDROOT
BRANCH   1   8
HETATM    8  C8  UNL     1     -11.222 -26.365  -0.192  1.00  0.00     0.198 C
HETATM    9  O2  UNL     1     -10.777 -27.123  -1.085  1.00  0.00    -0.289 OA
BRANCH   8  10
HETATM   10  C6  UNL     1     -12.174 -25.327  -0.559  1.00  0.00     0.098 C
BRANCH  10  11
HETATM   11  N1  UNL     1     -13.410 -25.691  -1.141  1.00  0.00    -0.318 N
HETATM   12  C4  UNL     1     -13.641 -26.079  -2.488  1.00  0.00     0.224 C
HETATM   13  O1  UNL     1     -12.760 -26.190  -3.377  1.00  0.00    -0.273 OA
HETATM   14  C5  UNL     1     -14.620 -25.657  -0.289  1.00  0.00     0.159 C
BRANCH  12  15
HETATM   15  C3  UNL     1     -15.026 -26.396  -2.951  1.00  0.00     0.103 C
BRANCH  15  16
HETATM   16  C2  UNL     1     -15.019 -27.253  -4.197  1.00  0.00     0.005 C
HETATM   17  C1  UNL     1     -15.720 -26.540  -5.331  1.00  0.00     0.005 C
ENDBRANCH  15  16
ENDBRANCH  12  15
ENDBRANCH  10  11
BRANCH  10  18
HETATM   18  C7  UNL     1     -11.547 -24.133  -1.241  1.00  0.00     0.133 C
HETATM   19  N2  UNL     1     -10.574 -23.417  -0.514  1.00  0.00    -0.113 NA
ENDBRANCH  10  18
ENDBRANCH   8  10
ENDBRANCH   1   8
BRANCH   7  20
HETATM   20  N3  UNL     1      -9.338 -30.058   2.335  1.00  0.00    -0.069 N
ATOM     21  H33 UNL     1      -9.621 -30.910   1.850  1.00  0.00     0.275 HD
ATOM     22  H32 UNL     1      -8.383 -30.322   2.575  1.00  0.00     0.275 HD
ATOM     23  H31 UNL     1      -9.902 -29.900   3.171  1.00  0.00     0.275 HD
ENDBRANCH   7  20
BRANCH   7  24
HETATM   24  C14 UNL     1      -8.634 -29.219   0.170  1.00  0.00     0.124 C
HETATM   25 BR3  UNL     1      -9.684 -30.489  -0.869  1.00  0.00    -0.094 Br
ENDBRANCH   7  24
TORSDOF 8
ENDMDL