MODEL 3
REMARK VINA RESULT: -6.228506573      0.948      1.149
REMARK  6 active torsions:
REMARK  status: ('A' for Active; 'I' for Inactive)
REMARK    1  A    between atoms: C1_2  and  C2_4
REMARK    2  A    between atoms: C2_4  and  C3_5
REMARK    3  A    between atoms: C3_5  and  N1_6
REMARK       I    between atoms: N1_6  and  C4_8
REMARK    4  A    between atoms: C4_8  and  C5_10
REMARK       I    between atoms: N3_17  and  C8_18
REMARK    5  A    between atoms: C8_18  and  C9_20
REMARK    6  A    between atoms: C9_20  and  C10_21
ROOT
HETATM    1  C5  UNL     1      -9.256 -27.383   2.893  1.00  0.00     0.220 C
HETATM    2  C6  UNL     1      -7.835 -27.851   2.691  1.00  0.00     0.189 C
HETATM    3 BR1  UNL     1      -7.559 -29.666   3.241  1.00  0.00    -0.066 Br
HETATM    4  N2  UNL     1      -7.554 -27.636   1.287  1.00  0.00    -0.350 N
ATOM      5  H2  UNL     1      -6.632 -27.670   0.852  1.00  0.00     0.163 HD
HETATM    6  C7  UNL     1      -8.784 -27.367   0.613  1.00  0.00     0.178 C
HETATM    7  S1  UNL     1      -8.877 -27.294  -1.015  1.00  0.00    -0.041 SA
HETATM    8  N3  UNL     1      -9.813 -27.191   1.576  1.00  0.00    -0.278 N
HETATM    9  C8  UNL     1     -11.172 -26.879   1.302  1.00  0.00     0.228 C
HETATM   10  O4  UNL     1     -12.019 -26.743   2.223  1.00  0.00    -0.273 OA
ENDROOT
BRANCH   1  11
HETATM   11  C4  UNL     1      -9.213 -26.132   3.676  1.00  0.00     0.244 C
HETATM   12  N1  UNL     1     -10.339 -25.689   4.400  1.00  0.00    -0.359 N
ATOM     13  H1  UNL     1     -11.194 -26.244   4.380  1.00  0.00     0.162 HD
HETATM   14  O3  UNL     1      -8.159 -25.462   3.691  1.00  0.00    -0.271 OA
BRANCH  12  15
HETATM   15  C3  UNL     1     -10.310 -24.461   5.172  1.00  0.00     0.133 C
BRANCH  15  16
HETATM   16  C2  UNL     1     -11.647 -24.115   5.744  1.00  0.00     0.133 C
BRANCH  16  17
HETATM   17  C1  UNL     1     -11.564 -23.255   6.937  1.00  0.00     0.174 C
HETATM   18  O1  UNL     1     -11.456 -22.022   6.801  1.00  0.00    -0.648 OA
HETATM   19  O2  UNL     1     -11.605 -23.797   8.201  1.00  0.00    -0.648 OA
ENDBRANCH  16  17
ENDBRANCH  15  16
ENDBRANCH  12  15
ENDBRANCH   1  11
BRANCH   9  20
HETATM   20  C9  UNL     1     -11.661 -26.697  -0.089  1.00  0.00     0.130 C
BRANCH  20  21
HETATM   21  C10 UNL     1     -12.357 -25.367  -0.255  1.00  0.00     0.138 C
HETATM   22 BR2  UNL     1     -11.234 -24.082  -1.145  1.00  0.00    -0.079 Br
HETATM   23 BR3  UNL     1     -13.986 -25.699  -1.269  1.00  0.00    -0.079 Br
ENDBRANCH  20  21
ENDBRANCH   9  20
TORSDOF 6
ENDMDL