MODEL 3
REMARK VINA RESULT: -5.308300445      0.953      1.191
REMARK  6 active torsions:
REMARK  status: ('A' for Active; 'I' for Inactive)
REMARK    1  A    between atoms: C2_2  and  C3_3
REMARK    2  A    between atoms: C4_4  and  C5_5
REMARK    3  A    between atoms: C8_13  and  N1_14
REMARK    4  A    between atoms: N1_14  and  C9_15
REMARK    5  A    between atoms: N1_14  and  N2_19
REMARK    6  A    between atoms: C9_15  and  C10_16
ROOT
HETATM    1  C3  UNL     1      -9.440 -25.937   1.266  1.00  0.00     0.071 C
HETATM    2  C4  UNL     1     -10.474 -25.967   0.152  1.00  0.00     0.043 C
HETATM    3  C6  UNL     1     -10.281 -26.977  -0.639  1.00  0.00     0.034 C
HETATM    4 BR1  UNL     1     -11.409 -27.333  -2.163  1.00  0.00    -0.052 Br
HETATM    5  C7  UNL     1      -9.102 -27.743  -0.235  1.00  0.00     0.129 C
HETATM    6 BR2  UNL     1      -7.887 -27.449  -1.684  1.00  0.00    -0.065 Br
HETATM    7 BR3  UNL     1      -9.716 -29.600  -0.224  1.00  0.00    -0.065 Br
HETATM    8  C8  UNL     1      -8.797 -27.233   1.100  1.00  0.00     0.143 C
ENDROOT
BRANCH   8   9
HETATM    9  N1  UNL     1      -7.618 -27.639   1.766  1.00  0.00    -0.075 NA
BRANCH   9  10
HETATM   10  C9  UNL     1      -7.976 -28.341   2.983  1.00  0.00     0.243 C
BRANCH  10  11
HETATM   11  C10 UNL     1      -7.776 -29.809   2.942  1.00  0.00     0.188 C
HETATM   12  O3  UNL     1      -8.602 -30.521   3.579  1.00  0.00    -0.647 OA
HETATM   13  O4  UNL     1      -6.761 -30.382   2.253  1.00  0.00    -0.647 OA
ENDBRANCH  10  11
ENDBRANCH   9  10
BRANCH   9  14
HETATM   14  N2  UNL     1      -6.607 -26.733   1.926  1.00  0.00     0.083 N
HETATM   15  C11 UNL     1      -6.383 -26.193   3.250  1.00  0.00     0.382 C
HETATM   16  C12 UNL     1      -5.336 -27.309   1.525  1.00  0.00     0.382 C
HETATM   17  O5  UNL     1      -6.763 -25.585   1.177  1.00  0.00    -0.048 OA
ENDBRANCH   9  14
ENDBRANCH   8   9
BRANCH   1  18
HETATM   18  C2  UNL     1     -10.283 -25.782   2.484  1.00  0.00    -0.026 C
HETATM   19  C1  UNL     1      -9.958 -25.247   3.623  1.00  0.00     0.007 C
ENDBRANCH   1  18
BRANCH   2  20
HETATM   20  C5  UNL     1     -11.531 -24.934   0.061  1.00  0.00     0.207 C
HETATM   21  O1  UNL     1     -11.279 -23.777  -0.302  1.00  0.00    -0.644 OA
HETATM   22  O2  UNL     1     -12.854 -25.293   0.404  1.00  0.00    -0.644 OA
ENDBRANCH   2  20
TORSDOF 6
ENDMDL