MODEL 3
REMARK VINA RESULT: -9.084289947      1.770      2.249
REMARK  10 active torsions:
REMARK  status: ('A' for Active; 'I' for Inactive)
REMARK    1  A    between atoms: O1_2  and  C2_3
REMARK       I    between atoms: C2_3  and  N1_5
REMARK    2  A    between atoms: C4_7  and  C5_8
REMARK    3  A    between atoms: C5_8  and  C6_9
REMARK    4  A    between atoms: C5_8  and  C12_18
REMARK    5  A    between atoms: C10_13  and  N2_14
REMARK    6  A    between atoms: C12_18  and  C13_19
REMARK    7  A    between atoms: C12_18  and  C15_23
REMARK    8  A    between atoms: C13_19  and  C14_20
REMARK    9  A    between atoms: C18_26  and  C19_27
REMARK   10  A    between atoms: C24_32  and  C25_33
ROOT
HETATM    1  C5  UNL     1       1.535  -0.206  19.340  1.00  0.00     0.015 C
ENDROOT
BRANCH   1   2
HETATM    2  C4  UNL     1       2.680  -0.798  20.073  1.00  0.00     0.079 A
HETATM    3  C3  UNL     1       3.343  -0.308  21.159  1.00  0.00     0.155 A
HETATM    4  N1  UNL     1       4.310  -1.175  21.497  1.00  0.00    -0.194 N
HETATM    5  C2  UNL     1       5.228  -1.041  22.562  1.00  0.00     0.386 C
HETATM    6  N4  UNL     1       4.233  -2.165  20.636  1.00  0.00    -0.232 N
HETATM    7  O2  UNL     1       6.094  -1.961  22.749  1.00  0.00    -0.236 OA
HETATM    8  N3  UNL     1       3.257  -1.959  19.769  1.00  0.00    -0.284 N
ATOM      9  H4  UNL     1       4.844  -2.981  20.637  1.00  0.00     0.209 HD
ATOM     10  H3  UNL     1       2.993  -2.579  19.003  1.00  0.00     0.188 HD
BRANCH   5  11
HETATM   11  O1  UNL     1       5.271   0.026  23.443  1.00  0.00    -0.307 OA
HETATM   12  C1  UNL     1       5.782  -0.125  24.761  1.00  0.00     0.215 C
ENDBRANCH   5  11
ENDBRANCH   1   2
BRANCH   1  13
HETATM   13  C6  UNL     1       1.590   1.273  19.341  1.00  0.00    -0.020 A
HETATM   14  C7  UNL     1       0.739   2.085  20.059  1.00  0.00     0.012 A
HETATM   15  C8  UNL     1       0.775   3.458  20.084  1.00  0.00     0.003 A
HETATM   16  C9  UNL     1       1.739   4.116  19.330  1.00  0.00     0.036 A
HETATM   17  C10 UNL     1       2.617   3.362  18.592  1.00  0.00     0.103 A
HETATM   18  C11 UNL     1       2.541   1.994  18.601  1.00  0.00     0.048 A
BRANCH  17  19
HETATM   19  N2  UNL     1       3.598   4.065  17.817  1.00  0.00    -0.116 N
HETATM   20  O3  UNL     1       3.337   4.427  16.629  1.00  0.00    -0.532 OA
HETATM   21  O4  UNL     1       4.829   4.375  18.308  1.00  0.00    -0.532 OA
ENDBRANCH  17  19
ENDBRANCH   1  13
BRANCH   1  22
HETATM   22  C12 UNL     1       0.257  -0.898  19.581  1.00  0.00    -0.006 C
BRANCH  22  23
HETATM   23  C13 UNL     1       0.154  -2.024  20.515  1.00  0.00     0.097 C
BRANCH  23  24
HETATM   24  C14 UNL     1      -0.044  -3.386  20.159  1.00  0.00     0.199 C
HETATM   25  O5  UNL     1       0.904  -4.032  19.581  1.00  0.00    -0.644 OA
HETATM   26  O6  UNL     1      -1.160  -4.165  20.352  1.00  0.00    -0.644 OA
ENDBRANCH  23  24
ENDBRANCH  22  23
BRANCH  22  27
HETATM   27  C15 UNL     1      -0.741  -0.916  18.465  1.00  0.00    -0.025 A
HETATM   28  C16 UNL     1      -0.406  -0.592  17.141  1.00  0.00     0.013 A
HETATM   29  C17 UNL     1      -1.306  -0.569  16.109  1.00  0.00     0.013 A
HETATM   30  C18 UNL     1      -2.633  -0.871  16.307  1.00  0.00    -0.025 A
HETATM   31  C26 UNL     1      -3.006  -1.198  17.599  1.00  0.00     0.013 A
HETATM   32  C27 UNL     1      -2.074  -1.209  18.603  1.00  0.00     0.013 A
BRANCH  30  33
HETATM   33  C19 UNL     1      -3.609  -0.840  15.231  1.00  0.00    -0.014 A
HETATM   34  C20 UNL     1      -4.604   0.143  15.238  1.00  0.00     0.013 A
HETATM   35  C21 UNL     1      -5.557   0.177  14.251  1.00  0.00     0.001 A
HETATM   36  C22 UNL     1      -5.557  -0.746  13.244  1.00  0.00     0.001 A
HETATM   37  C23 UNL     1      -4.596  -1.711  13.219  1.00  0.00     0.013 A
HETATM   38  C24 UNL     1      -3.611  -1.757  14.226  1.00  0.00     0.017 A
BRANCH  38  39
HETATM   39  C25 UNL     1      -2.609  -2.802  14.081  1.00  0.00     0.387 C
HETATM   40  F1  UNL     1      -3.084  -3.986  14.673  1.00  0.00    -0.209 F
HETATM   41  F2  UNL     1      -2.498  -3.098  12.713  1.00  0.00    -0.209 F
ENDBRANCH  38  39
ENDBRANCH  30  33
ENDBRANCH  22  27
ENDBRANCH   1  22
TORSDOF 10
ENDMDL