MODEL 4
REMARK VINA RESULT: -6.148600959      2.783      6.266
REMARK  14 active torsions:
REMARK  status: ('A' for Active; 'I' for Inactive)
REMARK    1  A    between atoms: C2_2  and  O1_3
REMARK    2  A    between atoms: C2_2  and  C3_5
REMARK    3  A    between atoms: C3_5  and  C4_6
REMARK    4  A    between atoms: C4_6  and  C6_9
REMARK    5  A    between atoms: C6_9  and  O2_10
REMARK    6  A    between atoms: C6_9  and  N1_12
REMARK    7  A    between atoms: N1_12  and  C7_13
REMARK    8  A    between atoms: N1_12  and  C13_21
REMARK    9  A    between atoms: C7_13  and  C8_14
REMARK   10  A    between atoms: C8_14  and  O4_16
REMARK   11  A    between atoms: O4_16  and  C9_17
REMARK   12  A    between atoms: C13_21  and  C14_22
REMARK   13  A    between atoms: N3_25  and  C15_26
REMARK   14  A    between atoms: N4_31  and  C19_32
ROOT
HETATM    1  N1  UNL     1      -0.715  -0.799  18.181  1.00  0.00    -0.347 N
ENDROOT
BRANCH   1   2
HETATM    2  C6  UNL     1       0.208  -1.035  17.148  1.00  0.00     0.138 C
BRANCH   2   3
HETATM    3  C4  UNL     1       1.549  -1.617  17.233  1.00  0.00     0.103 C
HETATM    4  C5  UNL     1       2.257  -1.083  18.491  1.00  0.00     0.042 C
HETATM    5 CL1  UNL     1       2.610  -1.370  15.869  1.00  0.00    -0.110 Cl
BRANCH   3   6
HETATM    6  C3  UNL     1       1.410  -3.135  17.410  1.00  0.00     0.097 C
BRANCH   6   7
HETATM    7  C2  UNL     1       1.523  -3.868  16.136  1.00  0.00     0.036 C
HETATM    8  C1  UNL     1       0.450  -4.073  15.374  1.00  0.00     0.045 C
BRANCH   7   9
HETATM    9  O1  UNL     1       2.745  -4.350  15.723  1.00  0.00    -0.366 OA
ATOM     10  H1  UNL     1       3.213  -4.965  16.275  1.00  0.00     0.217 HD
ENDBRANCH   7   9
ENDBRANCH   6   7
ENDBRANCH   3   6
ENDBRANCH   2   3
BRANCH   2  11
HETATM   11  O2  UNL     1      -0.217  -0.687  15.966  1.00  0.00    -0.348 OA
ATOM     12  H2  UNL     1      -1.023  -1.085  15.660  1.00  0.00     0.219 HD
ENDBRANCH   2  11
ENDBRANCH   1   2
BRANCH   1  13
HETATM   13  C7  UNL     1      -1.677  -1.773  18.556  1.00  0.00     0.236 C
BRANCH  13  14
HETATM   14  C8  UNL     1      -3.035  -1.537  18.064  1.00  0.00     0.277 C
HETATM   15  O3  UNL     1      -4.020  -1.745  18.797  1.00  0.00    -0.263 OA
BRANCH  14  16
HETATM   16  O4  UNL     1      -3.217  -1.083  16.782  1.00  0.00    -0.310 OA
BRANCH  16  17
HETATM   17  C9  UNL     1      -3.767  -1.842  15.729  1.00  0.00     0.060 C
HETATM   18  C10 UNL     1      -3.380  -3.283  15.769  1.00  0.00     0.045 C
HETATM   19  C11 UNL     1      -3.258  -1.246  14.428  1.00  0.00     0.045 C
HETATM   20  C12 UNL     1      -5.276  -1.650  15.781  1.00  0.00     0.045 C
ENDBRANCH  16  17
ENDBRANCH  14  16
ENDBRANCH  13  14
ENDBRANCH   1  13
BRANCH   1  21
HETATM   21  C13 UNL     1      -0.641   0.513  18.859  1.00  0.00     0.203 C
BRANCH  21  22
HETATM   22  C14 UNL     1      -0.999   1.547  17.892  1.00  0.00     0.119 A
HETATM   23  N2  UNL     1      -2.051   1.500  17.066  1.00  0.00    -0.283 N
HETATM   24  N3  UNL     1      -2.111   2.578  16.312  1.00  0.00    -0.262 N
ATOM     25  H2  UNL     1      -2.719   0.730  17.026  1.00  0.00     0.188 HD
HETATM   26  C18 UNL     1      -1.052   3.314  16.693  1.00  0.00     0.197 A
HETATM   27  S1  UNL     1      -0.684   4.767  16.043  1.00  0.00    -0.039 SA
HETATM   28  N4  UNL     1      -0.350   2.705  17.664  1.00  0.00    -0.305 N
BRANCH  24  29
HETATM   29  C15 UNL     1      -3.114   2.873  15.300  1.00  0.00     0.103 C
HETATM   30  C16 UNL     1      -4.425   2.250  15.714  1.00  0.00     0.034 C
HETATM   31  C17 UNL     1      -2.698   2.438  13.932  1.00  0.00     0.034 C
ENDBRANCH  24  29
BRANCH  28  32
HETATM   32  C19 UNL     1       0.844   3.205  18.308  1.00  0.00     0.094 C
HETATM   33  C20 UNL     1       2.094   2.494  17.832  1.00  0.00     0.026 C
HETATM   34  C21 UNL     1       3.191   2.847  18.826  1.00  0.00     0.002 C
HETATM   35  C22 UNL     1       2.962   4.235  19.415  1.00  0.00     0.000 C
HETATM   36  C23 UNL     1       1.743   4.300  20.282  1.00  0.00     0.002 C
HETATM   37  C24 UNL     1       0.785   3.197  19.802  1.00  0.00     0.026 C
ENDBRANCH  28  32
ENDBRANCH  21  22
ENDBRANCH   1  21
TORSDOF 14
ENDMDL