MODEL 2
REMARK VINA RESULT: -7.940925226      2.502      3.950
REMARK  12 active torsions:
REMARK  status: ('A' for Active; 'I' for Inactive)
REMARK    1  A    between atoms: C2_2  and  C3_3
REMARK    2  A    between atoms: C3_3  and  O2_5
REMARK    3  A    between atoms: O2_5  and  C4_6
REMARK    4  A    between atoms: C4_6  and  C5_7
REMARK    5  A    between atoms: C4_6  and  C7_14
REMARK    6  A    between atoms: C5_7  and  O4_12
REMARK    7  A    between atoms: N1_8  and  O3_10
REMARK    8  A    between atoms: C7_14  and  C8_17
REMARK    9  A    between atoms: C13_22  and  O5_23
REMARK   10  A    between atoms: O5_23  and  C14_24
REMARK   11  A    between atoms: C17_27  and  S1_28
REMARK   12  A    between atoms: S1_28  and  C18_31
ROOT
HETATM    1  C8  UNL     1       0.253   0.962  19.351  1.00  0.00     0.033 A
HETATM    2  C9  UNL     1       1.295   0.537  20.117  1.00  0.00     0.015 A
HETATM    3  C10 UNL     1       1.410  -0.806  20.470  1.00  0.00     0.001 A
HETATM    4  C11 UNL     1       0.479  -1.726  20.056  1.00  0.00     0.003 A
HETATM    5  C12 UNL     1      -0.564  -1.281  19.286  1.00  0.00     0.038 A
HETATM    6  C13 UNL     1      -0.702   0.020  18.927  1.00  0.00     0.086 A
ENDROOT
BRANCH   1   7
HETATM    7  C7  UNL     1       0.024   2.347  18.930  1.00  0.00     0.242 C
HETATM    8  F1  UNL     1      -1.214   2.747  19.422  1.00  0.00    -0.216 F
HETATM    9 CL1  UNL     1       1.198   3.345  19.920  1.00  0.00    -0.074 Cl
BRANCH   7  10
HETATM   10  C4  UNL     1       0.251   2.739  17.531  1.00  0.00     0.268 C
BRANCH  10  11
HETATM   11  O2  UNL     1      -0.552   3.792  17.096  1.00  0.00    -0.302 OA
BRANCH  11  12
HETATM   12  C3  UNL     1      -1.338   3.778  15.956  1.00  0.00     0.259 C
HETATM   13  O1  UNL     1      -0.904   4.394  14.949  1.00  0.00    -0.265 OA
BRANCH  12  14
HETATM   14  C2  UNL     1      -2.657   3.055  15.919  1.00  0.00     0.106 C
HETATM   15  C1  UNL     1      -3.003   2.736  14.497  1.00  0.00     0.015 C
ENDBRANCH  12  14
ENDBRANCH  11  12
ENDBRANCH  10  11
BRANCH  10  16
HETATM   16  C5  UNL     1       1.691   2.893  17.136  1.00  0.00     0.172 C
HETATM   17  N1  UNL     1       2.190   4.048  16.885  1.00  0.00    -0.249 N
ATOM     18  H1  UNL     1       1.537   4.825  16.977  1.00  0.00     0.196 HD
BRANCH  17  19
HETATM   19  O3  UNL     1       3.423   4.396  16.523  1.00  0.00    -0.288 OA
ATOM     20  H3  UNL     1       4.199   4.553  17.049  1.00  0.00     0.244 HD
ENDBRANCH  17  19
BRANCH  16  21
HETATM   21  O4  UNL     1       2.560   1.824  17.016  1.00  0.00    -0.341 OA
HETATM   22  C6  UNL     1       2.225   0.562  16.496  1.00  0.00     0.211 C
ENDBRANCH  16  21
ENDBRANCH  10  16
ENDBRANCH   7  10
ENDBRANCH   1   7
BRANCH   6  23
HETATM   23  O5  UNL     1      -1.784   0.461  18.131  1.00  0.00    -0.310 OA
BRANCH  23  24
HETATM   24  C14 UNL     1      -2.255  -0.358  17.126  1.00  0.00     0.076 A
HETATM   25  C15 UNL     1      -3.466  -1.034  17.221  1.00  0.00     0.039 A
HETATM   26  C16 UNL     1      -3.858  -1.832  16.167  1.00  0.00     0.026 A
HETATM   27  C17 UNL     1      -3.075  -1.960  15.044  1.00  0.00     0.064 A
HETATM   28  C24 UNL     1      -1.886  -1.282  14.977  1.00  0.00     0.026 A
HETATM   29  C25 UNL     1      -1.460  -0.483  15.996  1.00  0.00     0.039 A
BRANCH  27  30
HETATM   30  S1  UNL     1      -3.570  -2.980  13.690  1.00  0.00     0.206 S
HETATM   31  O6  UNL     1      -3.730  -4.390  14.221  1.00  0.00    -0.217 OA
HETATM   32  O7  UNL     1      -2.545  -2.983  12.612  1.00  0.00    -0.217 OA
BRANCH  30  33
HETATM   33  C18 UNL     1      -5.122  -2.473  13.067  1.00  0.00     0.064 A
HETATM   34  C19 UNL     1      -6.094  -3.364  12.664  1.00  0.00     0.024 A
HETATM   35  C20 UNL     1      -7.320  -2.982  12.171  1.00  0.00     0.002 A
HETATM   36  C21 UNL     1      -7.552  -1.618  12.092  1.00  0.00     0.000 A
HETATM   37  C22 UNL     1      -6.617  -0.711  12.479  1.00  0.00     0.002 A
HETATM   38  C23 UNL     1      -5.409  -1.113  12.964  1.00  0.00     0.024 A
ENDBRANCH  30  33
ENDBRANCH  27  30
ENDBRANCH  23  24
ENDBRANCH   6  23
TORSDOF 12
ENDMDL