MODEL 3
REMARK VINA RESULT: -8.618548901      3.081      4.105
REMARK  10 active torsions:
REMARK  status: ('A' for Active; 'I' for Inactive)
REMARK    1  A    between atoms: O1_2  and  C2_3
REMARK    2  A    between atoms: C2_3  and  C3_5
REMARK    3  A    between atoms: C3_5  and  C4_6
REMARK    4  A    between atoms: C3_5  and  C11_18
REMARK       I    between atoms: C4_6  and  N1_8
REMARK    5  A    between atoms: N1_8  and  C5_10
REMARK    6  A    between atoms: C14_21  and  O4_22
REMARK    7  A    between atoms: O4_22  and  C15_23
REMARK    8  A    between atoms: C15_23  and  C16_24
REMARK    9  A    between atoms: C20_28  and  C21_29
REMARK   10  A    between atoms: C22_33  and  S1_34
ROOT
HETATM    1  C11 UNL     1      -0.076   3.418  17.191  1.00  0.00     0.008 C
HETATM    2  C12 UNL     1      -1.312   3.091  18.011  1.00  0.00     0.008 C
HETATM    3  C13 UNL     1      -2.131   2.166  17.181  1.00  0.00     0.032 C
HETATM    4  C14 UNL     1      -2.228   2.583  15.737  1.00  0.00     0.121 C
HETATM    5  C25 UNL     1      -1.697   3.938  15.438  1.00  0.00     0.032 C
HETATM    6  C26 UNL     1      -0.541   4.446  16.201  1.00  0.00     0.008 C
ENDROOT
BRANCH   1   7
HETATM    7  C3  UNL     1       1.076   3.825  18.046  1.00  0.00     0.181 C
BRANCH   7   8
HETATM    8  C2  UNL     1       2.353   3.756  17.305  1.00  0.00     0.272 C
HETATM    9  O2  UNL     1       2.696   2.682  16.693  1.00  0.00    -0.264 OA
BRANCH   8  10
HETATM   10  O1  UNL     1       3.271   4.784  17.193  1.00  0.00    -0.326 OA
HETATM   11  C1  UNL     1       4.389   4.917  18.057  1.00  0.00     0.213 C
ENDBRANCH   8  10
ENDBRANCH   7   8
BRANCH   7  12
HETATM   12  C4  UNL     1       1.214   2.979  19.253  1.00  0.00     0.232 C
HETATM   13  O3  UNL     1       0.925   3.434  20.368  1.00  0.00    -0.273 OA
HETATM   14  N1  UNL     1       1.669   1.663  19.124  1.00  0.00    -0.356 N
ATOM     15  H1  UNL     1       1.896   1.326  18.189  1.00  0.00     0.162 HD
BRANCH  14  16
HETATM   16  C5  UNL     1       1.840   0.744  20.235  1.00  0.00     0.084 C
HETATM   17  C6  UNL     1       3.187   0.106  20.099  1.00  0.00     0.031 C
HETATM   18  C7  UNL     1       3.304  -1.225  20.792  1.00  0.00     0.081 C
HETATM   19  C8  UNL     1       2.384  -2.260  20.184  1.00  0.00     0.243 C
HETATM   20  F1  UNL     1       3.053  -2.973  19.189  1.00  0.00    -0.206 F
HETATM   21  F2  UNL     1       1.972  -3.099  21.196  1.00  0.00    -0.206 F
HETATM   22  C9  UNL     1       1.227  -1.554  19.521  1.00  0.00     0.081 C
HETATM   23  C10 UNL     1       0.796  -0.322  20.307  1.00  0.00     0.031 C
ENDBRANCH  14  16
ENDBRANCH   7  12
ENDBRANCH   1   7
BRANCH   4  24
HETATM   24  O4  UNL     1      -3.511   2.489  15.247  1.00  0.00    -0.381 OA
BRANCH  24  25
HETATM   25  C15 UNL     1      -4.325   1.543  15.794  1.00  0.00     0.206 C
BRANCH  25  26
HETATM   26  C16 UNL     1      -4.599   0.359  14.956  1.00  0.00    -0.034 A
HETATM   27  C17 UNL     1      -5.796   0.229  14.300  1.00  0.00     0.009 A
HETATM   28  C18 UNL     1      -5.999  -0.898  13.533  1.00  0.00     0.002 A
HETATM   29  C19 UNL     1      -5.035  -1.875  13.419  1.00  0.00     0.015 A
HETATM   30  C20 UNL     1      -3.818  -1.772  14.069  1.00  0.00     0.010 A
HETATM   31  C24 UNL     1      -3.647  -0.626  14.832  1.00  0.00     0.024 A
BRANCH  30  32
HETATM   32  C21 UNL     1      -2.792  -2.790  13.973  1.00  0.00     0.138 A
HETATM   33  N2  UNL     1      -2.621  -3.715  13.049  1.00  0.00    -0.241 N
HETATM   34  O5  UNL     1      -1.578  -4.456  13.326  1.00  0.00    -0.210 OA
ATOM     35  H2  UNL     1      -3.220  -3.837  12.232  1.00  0.00     0.196 HD
HETATM   36  C22 UNL     1      -1.035  -4.026  14.454  1.00  0.00     0.209 A
HETATM   37  N3  UNL     1      -1.804  -2.973  14.860  1.00  0.00    -0.314 N
ATOM     38  H3  UNL     1      -1.651  -2.416  15.701  1.00  0.00     0.170 HD
BRANCH  36  39
HETATM   39  S1  UNL     1       0.395  -4.692  15.260  1.00  0.00    -0.089 SA
HETATM   40  C23 UNL     1       1.254  -3.394  16.222  1.00  0.00     0.099 C
ENDBRANCH  36  39
ENDBRANCH  30  32
ENDBRANCH  25  26
ENDBRANCH  24  25
ENDBRANCH   4  24
TORSDOF 10
ENDMDL