MODEL 1
REMARK VINA RESULT: -8.349593439      0.000      0.000
REMARK  10 active torsions:
REMARK  status: ('A' for Active; 'I' for Inactive)
REMARK    1  A    between atoms: C5_5  and  S1_6
REMARK    2  A    between atoms: S1_6  and  N1_9
REMARK    3  A    between atoms: N1_9  and  C6_11
REMARK    4  A    between atoms: C11_16  and  C12_17
REMARK    5  A    between atoms: C12_17  and  O3_19
REMARK    6  A    between atoms: O3_19  and  C13_20
REMARK    7  A    between atoms: C13_20  and  C14_21
REMARK    8  A    between atoms: C15_24  and  C16_25
REMARK    9  A    between atoms: C19_28  and  O4_29
REMARK   10  A    between atoms: O4_29  and  C20_30
ROOT
HETATM    1  C12 UNL     1      -3.573  -1.075  14.601  1.00  0.00     0.149 C
HETATM    2  S2  UNL     1      -4.808  -1.409  15.642  1.00  0.00    -0.052 SA
ENDROOT
BRANCH   1   3
HETATM    3  C11 UNL     1      -2.587  -2.170  14.435  1.00  0.00     0.036 A
HETATM    4  C6  UNL     1      -1.358  -2.111  15.054  1.00  0.00     0.056 A
HETATM    5  C7  UNL     1      -0.475  -3.150  14.872  1.00  0.00     0.031 A
HETATM    6  C8  UNL     1      -0.839  -4.218  14.080  1.00  0.00     0.002 A
HETATM    7  C9  UNL     1      -2.060  -4.296  13.454  1.00  0.00     0.001 A
HETATM    8  C10 UNL     1      -2.931  -3.244  13.649  1.00  0.00     0.017 A
BRANCH   4   9
HETATM    9  N1  UNL     1      -1.050  -0.973  15.849  1.00  0.00    -0.280 N
ATOM     10  H1  UNL     1      -0.754  -0.131  15.355  1.00  0.00     0.179 HD
BRANCH   9  11
HETATM   11  S1  UNL     1      -1.126  -0.878  17.544  1.00  0.00     0.263 S
HETATM   12  O1  UNL     1      -1.448  -2.254  18.109  1.00  0.00    -0.200 OA
HETATM   13  O2  UNL     1      -2.306  -0.014  17.970  1.00  0.00    -0.200 OA
BRANCH  11  14
HETATM   14  C5  UNL     1       0.276  -0.238  18.312  1.00  0.00     0.079 A
HETATM   15  C4  UNL     1       0.413  -0.264  19.670  1.00  0.00     0.026 A
HETATM   16  C3  UNL     1       1.539   0.249  20.279  1.00  0.00     0.008 A
HETATM   17  C2  UNL     1       2.549   0.801  19.537  1.00  0.00    -0.062 A
HETATM   18  C1  UNL     1       3.765   1.356  20.214  1.00  0.00     0.048 C
HETATM   19  C24 UNL     1       2.424   0.836  18.164  1.00  0.00     0.008 A
HETATM   20  C23 UNL     1       1.303   0.324  17.545  1.00  0.00     0.026 A
ENDBRANCH  11  14
ENDBRANCH   9  11
ENDBRANCH   4   9
ENDBRANCH   1   3
BRANCH   1  21
HETATM   21  O3  UNL     1      -3.470   0.122  13.943  1.00  0.00    -0.332 OA
BRANCH  21  22
HETATM   22  C13 UNL     1      -4.126   1.307  14.298  1.00  0.00     0.263 C
BRANCH  22  23
HETATM   23  C14 UNL     1      -3.172   2.289  14.930  1.00  0.00     0.172 A
HETATM   24  N2  UNL     1      -2.426   2.102  16.031  1.00  0.00    -0.321 N
HETATM   25  C15 UNL     1      -1.723   3.212  16.252  1.00  0.00     0.137 A
ATOM     26  H2  UNL     1      -2.403   1.257  16.600  1.00  0.00     0.169 HD
HETATM   27  N3  UNL     1      -2.061   4.061  15.266  1.00  0.00    -0.242 N
HETATM   28  O5  UNL     1      -2.928   3.497  14.481  1.00  0.00    -0.220 OA
ATOM     29  H3  UNL     1      -1.692   5.005  15.153  1.00  0.00     0.196 HD
BRANCH  25  30
HETATM   30  C16 UNL     1      -0.767   3.496  17.331  1.00  0.00     0.010 A
HETATM   31  C17 UNL     1      -1.115   3.237  18.625  1.00  0.00     0.018 A
HETATM   32  C18 UNL     1      -0.272   3.480  19.666  1.00  0.00     0.038 A
HETATM   33  C19 UNL     1       0.988   4.007  19.440  1.00  0.00     0.074 A
HETATM   34  C21 UNL     1       1.345   4.271  18.139  1.00  0.00     0.038 A
HETATM   35  C22 UNL     1       0.467   4.015  17.079  1.00  0.00     0.018 A
BRANCH  33  36
HETATM   36  O4  UNL     1       1.778   4.222  20.547  1.00  0.00    -0.290 OA
BRANCH  36  37
HETATM   37  C20 UNL     1       2.835   5.103  20.696  1.00  0.00     0.505 C
HETATM   38  F1  UNL     1       3.809   4.773  19.771  1.00  0.00    -0.184 F
HETATM   39  F2  UNL     1       3.341   5.133  21.980  1.00  0.00    -0.184 F
ENDBRANCH  36  37
ENDBRANCH  33  36
ENDBRANCH  25  30
ENDBRANCH  22  23
ENDBRANCH  21  22
ENDBRANCH   1  21
TORSDOF 10
ENDMDL