MODEL 4
REMARK VINA RESULT: -6.786652405      2.603      5.148
REMARK  11 active torsions:
REMARK  status: ('A' for Active; 'I' for Inactive)
REMARK    1  A    between atoms: C2_2  and  C20_35
REMARK    2  A    between atoms: N1_3  and  O1_5
REMARK    3  A    between atoms: O1_5  and  C3_6
REMARK    4  A    between atoms: N2_7  and  O2_9
REMARK    5  A    between atoms: O2_9  and  C4_10
REMARK    6  A    between atoms: C4_10  and  C5_11
REMARK    7  A    between atoms: C4_10  and  C12_20
REMARK    8  A    between atoms: C4_10  and  C17_28
REMARK    9  A    between atoms: C5_11  and  C6_12
REMARK   10  A    between atoms: C7_14  and  C8_15
REMARK   11  A    between atoms: N4_32  and  O3_33
ROOT
HETATM    1  C4  UNL     1      -2.059  -0.174  16.330  1.00  0.00     0.173 C
ENDROOT
BRANCH   1   2
HETATM    2  O2  UNL     1      -1.553   1.126  15.932  1.00  0.00    -0.255 OA
BRANCH   2   3
HETATM    3  N2  UNL     1      -1.003   1.978  16.856  1.00  0.00    -0.252 N
HETATM    4  C3  UNL     1      -0.755   3.197  16.494  1.00  0.00     0.281 C
ATOM      5  H2  UNL     1      -0.794   1.659  17.802  1.00  0.00     0.195 HD
BRANCH   4   6
HETATM    6  O1  UNL     1      -0.193   4.095  17.415  1.00  0.00    -0.231 OA
BRANCH   6   7
HETATM    7  N1  UNL     1       1.055   4.603  17.190  1.00  0.00    -0.258 N
HETATM    8  C2  UNL     1       2.046   4.166  17.876  1.00  0.00     0.105 C
HETATM    9  C1  UNL     1       3.431   4.685  17.672  1.00  0.00     0.078 C
ATOM     10  H1  UNL     1       1.197   5.324  16.482  1.00  0.00     0.194 HD
BRANCH   8  11
HETATM   11  C20 UNL     1       1.812   3.145  18.873  1.00  0.00     0.224 C
HETATM   12  O4  UNL     1       1.626   3.405  20.088  1.00  0.00    -0.643 OA
HETATM   13  O5  UNL     1       1.790   1.818  18.484  1.00  0.00    -0.643 OA
ENDBRANCH   8  11
ENDBRANCH   6   7
ENDBRANCH   4   6
ENDBRANCH   2   3
ENDBRANCH   1   2
BRANCH   1  14
HETATM   14  C5  UNL     1      -2.035  -0.116  17.815  1.00  0.00     0.104 C
BRANCH  14  15
HETATM   15  C6  UNL     1      -1.546  -1.261  18.566  1.00  0.00     0.017 C
HETATM   16 CL1  UNL     1      -2.446  -2.720  18.863  1.00  0.00    -0.089 Cl
HETATM   17  C7  UNL     1      -0.339  -1.181  19.080  1.00  0.00     0.038 C
BRANCH  17  18
HETATM   18  C8  UNL     1       0.221  -2.295  19.845  1.00  0.00     0.006 A
HETATM   19  C9  UNL     1       0.206  -2.571  21.187  1.00  0.00     0.019 A
HETATM   20  C10 UNL     1       0.826  -3.679  21.607  1.00  0.00     0.008 A
HETATM   21  C11 UNL     1       1.435  -4.463  20.665  1.00  0.00     0.050 A
HETATM   22  S1  UNL     1       1.125  -3.630  19.214  1.00  0.00    -0.102 SA
ENDBRANCH  17  18
ENDBRANCH  14  15
ENDBRANCH   1  14
BRANCH   1  23
HETATM   23  C12 UNL     1      -3.379  -0.280  15.727  1.00  0.00     0.001 A
HETATM   24  C13 UNL     1      -4.393  -1.097  16.213  1.00  0.00     0.015 A
HETATM   25  C14 UNL     1      -5.618  -1.192  15.614  1.00  0.00     0.043 A
HETATM   26  C15 UNL     1      -5.885  -0.471  14.497  1.00  0.00     0.103 A
HETATM   27 CL2  UNL     1      -7.460  -0.591  13.725  1.00  0.00    -0.065 Cl
HETATM   28  N3  UNL     1      -4.922   0.328  14.005  1.00  0.00    -0.356 N
HETATM   29  C16 UNL     1      -3.693   0.432  14.595  1.00  0.00     0.099 A
ATOM     30  H3  UNL     1      -5.114   0.875  13.165  1.00  0.00     0.166 HD
ENDBRANCH   1  23
BRANCH   1  31
HETATM   31  C17 UNL     1      -1.098  -1.185  15.809  1.00  0.00     0.122 A
HETATM   32  S2  UNL     1      -1.417  -2.721  15.151  1.00  0.00    -0.081 SA
HETATM   33  C18 UNL     1       0.175  -3.206  14.799  1.00  0.00     0.071 A
HETATM   34  C19 UNL     1       0.890  -2.118  15.222  1.00  0.00     0.131 A
HETATM   35  N4  UNL     1       0.237  -1.108  15.728  1.00  0.00    -0.229 N
BRANCH  35  36
HETATM   36  O3  UNL     1       0.920   0.059  16.173  1.00  0.00    -0.283 OA
ATOM     37  H3  UNL     1       1.870   0.077  16.208  1.00  0.00     0.245 HD
ENDBRANCH  35  36
ENDBRANCH   1  31
TORSDOF 11
ENDMDL