MODEL 1
REMARK VINA RESULT: -8.363044472      0.000      0.000
REMARK  12 active torsions:
REMARK  status: ('A' for Active; 'I' for Inactive)
REMARK    1  A    between atoms: C1_2  and  O2_3
REMARK    2  A    between atoms: C1_2  and  C19_32
REMARK    3  A    between atoms: O2_3  and  C2_4
REMARK    4  A    between atoms: C3_6  and  C4_7
REMARK    5  A    between atoms: C5_10  and  C6_11
REMARK    6  A    between atoms: C10_16  and  C11_17
REMARK    7  A    between atoms: C11_17  and  N1_18
REMARK    8  A    between atoms: N1_18  and  S2_19
REMARK    9  A    between atoms: S2_19  and  C12_22
REMARK   10  A    between atoms: C17_27  and  O6_28
REMARK   11  A    between atoms: O6_28  and  C18_29
REMARK   12  A    between atoms: C18_29  and  O7_30
ROOT
HETATM    1  C2  UNL     1      -0.764  -1.474  16.895  1.00  0.00     0.134 A
HETATM    2  S1  UNL     1      -1.357  -2.408  15.613  1.00  0.00    -0.062 SA
HETATM    3  C3  UNL     1      -2.391  -1.222  14.884  1.00  0.00     0.063 A
HETATM    4  C5  UNL     1      -2.234  -0.131  15.670  1.00  0.00     0.032 A
HETATM    5  C10 UNL     1      -1.364  -0.272  16.744  1.00  0.00     0.049 A
ENDROOT
BRANCH   5   6
HETATM    6  C11 UNL     1      -1.045   0.825  17.733  1.00  0.00     0.213 C
BRANCH   6   7
HETATM    7  N1  UNL     1      -0.577   1.878  17.571  1.00  0.00    -0.331 NA
BRANCH   7   8
HETATM    8  S2  UNL     1       0.064   3.331  17.240  1.00  0.00     0.327 S
HETATM    9  O4  UNL     1       0.983   3.363  16.014  1.00  0.00    -0.186 OA
HETATM   10  O5  UNL     1      -0.985   4.426  17.107  1.00  0.00    -0.186 OA
BRANCH   8  11
HETATM   11  C12 UNL     1       1.107   3.899  18.549  1.00  0.00     0.126 A
HETATM   12  C13 UNL     1       2.366   4.369  18.280  1.00  0.00     0.029 A
HETATM   13  C14 UNL     1       3.180   4.824  19.331  1.00  0.00     0.002 A
HETATM   14  C15 UNL     1       2.723   4.801  20.634  1.00  0.00     0.003 A
HETATM   15  C16 UNL     1       1.465   4.328  20.889  1.00  0.00     0.038 A
HETATM   16  C17 UNL     1       0.650   3.874  19.843  1.00  0.00     0.096 A
BRANCH  16  17
HETATM   17  O6  UNL     1      -0.606   3.405  20.125  1.00  0.00    -0.325 OA
BRANCH  17  18
HETATM   18  C18 UNL     1      -1.726   4.167  20.483  1.00  0.00     0.341 C
BRANCH  18  19
HETATM   19  O7  UNL     1      -1.395   5.459  20.910  1.00  0.00    -0.377 OA
ATOM     20  H7  UNL     1      -1.764   6.138  20.358  1.00  0.00     0.212 HD
ENDBRANCH  18  19
ENDBRANCH  17  18
ENDBRANCH  16  17
ENDBRANCH   8  11
ENDBRANCH   7   8
ENDBRANCH   6   7
ENDBRANCH   5   6
BRANCH   1  21
HETATM   21  O2  UNL     1       0.170  -1.936  17.884  1.00  0.00    -0.266 OA
BRANCH  21  22
HETATM   22  C1  UNL     1       1.491  -1.453  17.772  1.00  0.00     0.299 C
HETATM   23  O1  UNL     1       2.013  -1.587  16.609  1.00  0.00    -0.259 OA
BRANCH  22  24
HETATM   24  C19 UNL     1       2.256  -0.846  18.824  1.00  0.00     0.040 A
HETATM   25  C20 UNL     1       2.738  -1.595  19.864  1.00  0.00     0.017 A
HETATM   26  C21 UNL     1       3.485  -0.995  20.886  1.00  0.00     0.001 A
HETATM   27  C22 UNL     1       3.749   0.356  20.865  1.00  0.00     0.000 A
HETATM   28  C23 UNL     1       3.270   1.103  19.832  1.00  0.00     0.001 A
HETATM   29  C24 UNL     1       2.534   0.502  18.828  1.00  0.00     0.017 A
ENDBRANCH  22  24
ENDBRANCH  21  22
ENDBRANCH   1  21
BRANCH   4  30
HETATM   30  C6  UNL     1      -2.982   1.136  15.404  1.00  0.00     0.087 A
HETATM   31  C7  UNL     1      -4.244   1.522  15.660  1.00  0.00     0.040 A
HETATM   32  C8  UNL     1      -4.425   2.837  15.199  1.00  0.00     0.027 A
HETATM   33  C9  UNL     1      -3.214   3.182  14.672  1.00  0.00     0.142 A
HETATM   34  O3  UNL     1      -2.409   2.183  14.806  1.00  0.00    -0.322 OA
ENDBRANCH   4  30
BRANCH   3  35
HETATM   35  C4  UNL     1      -3.221  -1.528  13.662  1.00  0.00     0.394 C
HETATM   36  F1  UNL     1      -4.535  -1.552  14.044  1.00  0.00    -0.208 F
HETATM   37  F2  UNL     1      -2.914  -0.666  12.680  1.00  0.00    -0.208 F
ENDBRANCH   3  35
TORSDOF 12
ENDMDL