MODEL 1
REMARK VINA RESULT: -9.458340507      0.000      0.000
REMARK  11 active torsions:
REMARK  status: ('A' for Active; 'I' for Inactive)
REMARK    1  A    between atoms: C2_2  and  N1_3
REMARK    2  A    between atoms: C2_2  and  O3_20
REMARK    3  A    between atoms: C2_2  and  C14_24
REMARK    4  A    between atoms: C3_5  and  O1_6
REMARK    5  A    between atoms: C3_5  and  C4_8
REMARK    6  A    between atoms: C6_13  and  C7_14
REMARK    7  A    between atoms: O3_20  and  C13_21
REMARK    8  A    between atoms: C15_29  and  C16_30
REMARK    9  A    between atoms: C16_30  and  O4_31
REMARK   10  A    between atoms: O4_31  and  C17_32
REMARK   11  A    between atoms: C20_35  and  C21_36
ROOT
HETATM    1  C1  UNL     1       0.490   3.898  20.651  1.00  0.00     0.081 C
HETATM    2  C2  UNL     1       1.650   3.289  19.970  1.00  0.00     0.205 C
ENDROOT
BRANCH   2   3
HETATM    3  N1  UNL     1       1.650   1.853  20.043  1.00  0.00    -0.331 N
HETATM    4  C3  UNL     1       2.578   0.918  20.010  1.00  0.00     0.168 C
ATOM      5  H1  UNL     1       0.711   1.468  20.144  1.00  0.00     0.165 HD
BRANCH   4   6
HETATM    6  O1  UNL     1       3.861   1.589  19.817  1.00  0.00    -0.344 OA
ATOM      7  H1  UNL     1       3.997   1.670  18.881  1.00  0.00     0.219 HD
ENDBRANCH   4   6
BRANCH   4   8
HETATM    8  C4  UNL     1       2.903  -0.457  20.075  1.00  0.00     0.118 A
HETATM    9  N2  UNL     1       3.766  -1.073  20.973  1.00  0.00    -0.257 N
HETATM   10  O2  UNL     1       3.790  -2.320  20.710  1.00  0.00    -0.249 OA
ATOM     11  H2  UNL     1       4.289  -0.608  21.715  1.00  0.00     0.195 HD
HETATM   12  C5  UNL     1       3.045  -2.656  19.731  1.00  0.00     0.182 A
HETATM   13  C6  UNL     1       2.449  -1.491  19.281  1.00  0.00     0.031 A
BRANCH  13  14
HETATM   14  C7  UNL     1       1.525  -1.424  18.139  1.00  0.00    -0.022 A
HETATM   15  C8  UNL     1       2.070  -1.168  16.882  1.00  0.00     0.012 A
HETATM   16  C9  UNL     1       1.175  -1.076  15.854  1.00  0.00     0.001 A
HETATM   17  C10 UNL     1      -0.193  -1.223  16.014  1.00  0.00     0.000 A
HETATM   18  C11 UNL     1      -0.669  -1.472  17.286  1.00  0.00     0.001 A
HETATM   19  C12 UNL     1       0.214  -1.568  18.347  1.00  0.00     0.012 A
ENDBRANCH  13  14
ENDBRANCH   4   8
ENDBRANCH   2   3
BRANCH   2  20
HETATM   20  O3  UNL     1       2.803   3.779  20.628  1.00  0.00    -0.293 OA
BRANCH  20  21
HETATM   21  C13 UNL     1       2.761   5.021  21.112  1.00  0.00     0.502 C
HETATM   22  F1  UNL     1       3.576   5.143  22.229  1.00  0.00    -0.184 F
HETATM   23  F2  UNL     1       3.244   5.972  20.185  1.00  0.00    -0.184 F
ENDBRANCH  20  21
ENDBRANCH   2  20
BRANCH   2  24
HETATM   24  C14 UNL     1       1.761   3.674  18.509  1.00  0.00     0.196 A
HETATM   25  N3  UNL     1       2.843   3.848  17.761  1.00  0.00    -0.277 N
HETATM   26  N4  UNL     1       2.450   4.199  16.518  1.00  0.00    -0.280 N
ATOM     27  H3  UNL     1       3.808   3.736  18.072  1.00  0.00     0.189 HD
HETATM   28  C15 UNL     1       1.147   4.229  16.531  1.00  0.00     0.164 A
ATOM     29  H4  UNL     1       3.055   4.402  15.723  1.00  0.00     0.189 HD
HETATM   30  O5  UNL     1       0.719   3.904  17.765  1.00  0.00    -0.275 OA
BRANCH  28  31
HETATM   31  C16 UNL     1       0.102   4.546  15.481  1.00  0.00     0.261 C
BRANCH  31  32
HETATM   32  O4  UNL     1      -1.169   4.515  16.150  1.00  0.00    -0.343 OA
BRANCH  32  33
HETATM   33  C17 UNL     1      -2.047   3.446  15.903  1.00  0.00     0.069 A
HETATM   34  C18 UNL     1      -2.843   3.365  14.807  1.00  0.00     0.037 A
HETATM   35  C19 UNL     1      -3.693   2.266  14.628  1.00  0.00     0.015 A
HETATM   36  C20 UNL     1      -3.750   1.248  15.526  1.00  0.00    -0.026 A
HETATM   37  C27 UNL     1      -2.940   1.322  16.643  1.00  0.00     0.015 A
HETATM   38  C28 UNL     1      -2.096   2.403  16.844  1.00  0.00     0.037 A
BRANCH  36  39
HETATM   39  C21 UNL     1      -4.665   0.104  15.347  1.00  0.00    -0.026 A
HETATM   40  C22 UNL     1      -4.486  -1.081  16.000  1.00  0.00     0.012 A
HETATM   41  C23 UNL     1      -5.368  -2.113  15.885  1.00  0.00     0.001 A
HETATM   42  C24 UNL     1      -6.462  -1.922  15.073  1.00  0.00     0.000 A
HETATM   43  C25 UNL     1      -6.648  -0.743  14.412  1.00  0.00     0.001 A
HETATM   44  C26 UNL     1      -5.762   0.270  14.543  1.00  0.00     0.012 A
ENDBRANCH  36  39
ENDBRANCH  32  33
ENDBRANCH  31  32
ENDBRANCH  28  31
ENDBRANCH   2  24
TORSDOF 11
ENDMDL