MODEL 4
REMARK VINA RESULT: -6.781631686      2.438      5.649
REMARK  13 active torsions:
REMARK  status: ('A' for Active; 'I' for Inactive)
REMARK    1  A    between atoms: C3_3  and  C4_4
REMARK    2  A    between atoms: C4_4  and  O2_6
REMARK    3  A    between atoms: O2_6  and  C5_7
REMARK    4  A    between atoms: C5_7  and  O3_9
REMARK    5  A    between atoms: O3_9  and  C7_10
REMARK    6  A    between atoms: C7_10  and  C8_11
REMARK    7  A    between atoms: C7_10  and  O4_17
REMARK    8  A    between atoms: C8_11  and  C9_12
REMARK    9  A    between atoms: C9_12  and  C10_13
REMARK   10  A    between atoms: C10_13  and  C11_14
REMARK   11  A    between atoms: C11_14  and  C12_15
REMARK   12  A    between atoms: O4_17  and  C14_18
REMARK   13  A    between atoms: C25_34  and  O8_35
ROOT
HETATM    1  C1  UNL     1       0.610  -0.039  15.895  1.00  0.00     0.016 C
HETATM    2  C2  UNL     1      -0.264  -0.881  16.448  1.00  0.00    -0.062 C
HETATM    3  C3  UNL     1       0.179  -1.459  17.726  1.00  0.00     0.142 C
HETATM    4  C16 UNL     1      -0.900  -1.446  18.767  1.00  0.00     0.199 C
HETATM    5 CL1  UNL     1      -0.321  -2.421  20.171  1.00  0.00    -0.113 Cl
HETATM    6  C17 UNL     1      -2.170  -2.073  18.348  1.00  0.00     0.279 C
HETATM    7  O6  UNL     1      -2.484  -3.217  18.821  1.00  0.00    -0.263 OA
HETATM    8  O7  UNL     1      -3.051  -1.485  17.463  1.00  0.00    -0.305 OA
HETATM    9  C18 UNL     1      -2.766  -0.699  16.322  1.00  0.00     0.105 C
HETATM   10  C19 UNL     1      -2.676   0.793  16.657  1.00  0.00     0.050 C
HETATM   11  C20 UNL     1      -1.499  -1.079  15.644  1.00  0.00     0.080 C
HETATM   12  C21 UNL     1      -1.616  -2.461  15.090  1.00  0.00    -0.075 C
HETATM   13  C22 UNL     1      -0.568  -3.519  15.334  1.00  0.00     0.044 C
HETATM   14  C23 UNL     1      -2.694  -2.716  14.360  1.00  0.00    -0.001 C
HETATM   15  C24 UNL     1      -3.680  -1.630  14.152  1.00  0.00     0.137 C
HETATM   16 CL2  UNL     1      -3.253  -0.599  12.771  1.00  0.00    -0.118 Cl
HETATM   17  C25 UNL     1      -3.951  -0.862  15.393  1.00  0.00     0.176 C
ENDROOT
BRANCH   3  18
HETATM   18  C4  UNL     1       1.357  -0.757  18.303  1.00  0.00     0.271 C
HETATM   19  O1  UNL     1       2.528  -1.152  18.077  1.00  0.00    -0.264 OA
BRANCH  18  20
HETATM   20  O2  UNL     1       1.243   0.369  19.121  1.00  0.00    -0.289 OA
BRANCH  20  21
HETATM   21  C5  UNL     1       2.066   1.492  19.001  1.00  0.00     0.268 C
HETATM   22  C6  UNL     1       3.319   1.266  19.832  1.00  0.00     0.071 C
BRANCH  21  23
HETATM   23  O3  UNL     1       2.372   1.834  17.694  1.00  0.00    -0.331 OA
BRANCH  23  24
HETATM   24  C7  UNL     1       2.161   3.180  17.440  1.00  0.00     0.272 C
BRANCH  24  25
HETATM   25  C8  UNL     1       1.223   3.374  16.273  1.00  0.00     0.061 C
BRANCH  25  26
HETATM   26  C9  UNL     1      -0.196   3.473  16.778  1.00  0.00     0.005 C
BRANCH  26  27
HETATM   27  C10 UNL     1      -0.272   4.050  18.155  1.00  0.00     0.000 C
BRANCH  27  28
HETATM   28  C11 UNL     1      -1.204   3.254  19.061  1.00  0.00    -0.000 C
BRANCH  28  29
HETATM   29  C12 UNL     1      -1.409   4.130  20.303  1.00  0.00    -0.005 C
HETATM   30  C13 UNL     1      -0.045   4.489  20.829  1.00  0.00     0.005 C
ENDBRANCH  28  29
ENDBRANCH  27  28
ENDBRANCH  26  27
ENDBRANCH  25  26
ENDBRANCH  24  25
BRANCH  24  31
HETATM   31  O4  UNL     1       3.388   3.854  17.253  1.00  0.00    -0.290 OA
BRANCH  31  32
HETATM   32  C14 UNL     1       4.054   4.469  18.293  1.00  0.00     0.257 C
HETATM   33  C15 UNL     1       3.296   5.008  19.472  1.00  0.00     0.126 C
HETATM   34  O5  UNL     1       5.305   4.588  18.273  1.00  0.00    -0.266 OA
ENDBRANCH  31  32
ENDBRANCH  24  31
ENDBRANCH  23  24
ENDBRANCH  21  23
ENDBRANCH  20  21
ENDBRANCH  18  20
ENDBRANCH   3  18
BRANCH  17  35
HETATM   35  O8  UNL     1      -4.489   0.394  15.019  1.00  0.00    -0.391 OA
ATOM     36  H8  UNL     1      -4.192   0.654  14.155  1.00  0.00     0.210 HD
ENDBRANCH  17  35
TORSDOF 13
ENDMDL