MODEL 2
REMARK VINA RESULT: -7.573644461      2.132      6.728
REMARK  12 active torsions:
REMARK  status: ('A' for Active; 'I' for Inactive)
REMARK    1  A    between atoms: O1_2  and  C2_3
REMARK       I    between atoms: C2_3  and  N1_5
REMARK    2  A    between atoms: N1_5  and  C3_6
REMARK    3  A    between atoms: N1_5  and  C11_20
REMARK    4  A    between atoms: C3_6  and  C4_7
REMARK    5  A    between atoms: C6_9  and  O3_10
REMARK    6  A    between atoms: O3_10  and  C7_11
REMARK    7  A    between atoms: C10_17  and  O4_18
REMARK    8  A    between atoms: C14_23  and  C15_24
REMARK    9  A    between atoms: C15_24  and  C16_25
REMARK   10  A    between atoms: C20_31  and  C21_32
REMARK   11  A    between atoms: C21_32  and  O7_35
REMARK   12  A    between atoms: O7_35  and  C24_36
ROOT
HETATM    1  C11 UNL     1      -2.830  -0.838  16.848  1.00  0.00     0.044 A
HETATM    2  C12 UNL     1      -3.150  -1.316  18.131  1.00  0.00     0.031 A
HETATM    3  C13 UNL     1      -2.362  -2.244  18.772  1.00  0.00     0.009 A
HETATM    4  C14 UNL     1      -1.215  -2.750  18.180  1.00  0.00    -0.056 A
HETATM    5  C26 UNL     1      -0.896  -2.287  16.922  1.00  0.00     0.009 A
HETATM    6  C27 UNL     1      -1.691  -1.350  16.272  1.00  0.00     0.031 A
ENDROOT
BRANCH   1   7
HETATM    7  N1  UNL     1      -3.661   0.158  16.275  1.00  0.00    -0.268 N
HETATM    8  C2  UNL     1      -4.531  -0.337  15.244  1.00  0.00     0.371 C
HETATM    9  O2  UNL     1      -5.210   0.443  14.504  1.00  0.00    -0.238 OA
BRANCH   8  10
HETATM   10  O1  UNL     1      -4.697  -1.681  14.979  1.00  0.00    -0.308 OA
HETATM   11  C1  UNL     1      -4.447  -2.198  13.690  1.00  0.00     0.215 C
ENDBRANCH   8  10
BRANCH   7  12
HETATM   12  C3  UNL     1      -3.712   1.502  16.680  1.00  0.00     0.117 C
BRANCH  12  13
HETATM   13  C4  UNL     1      -2.772   2.493  16.216  1.00  0.00     0.016 A
HETATM   14  C5  UNL     1      -1.644   2.787  17.024  1.00  0.00     0.052 A
HETATM   15  C6  UNL     1      -0.651   3.630  16.666  1.00  0.00     0.079 A
HETATM   16  C8  UNL     1      -0.731   4.252  15.435  1.00  0.00     0.040 A
HETATM   17  C9  UNL     1      -1.796   4.019  14.593  1.00  0.00     0.040 A
HETATM   18  C10 UNL     1      -2.791   3.135  15.024  1.00  0.00     0.077 A
BRANCH  15  19
HETATM   19  O3  UNL     1       0.476   3.928  17.446  1.00  0.00    -0.255 OA
BRANCH  19  20
HETATM   20  C7  UNL     1       1.705   3.250  17.162  1.00  0.00     0.530 C
HETATM   21  F1  UNL     1       1.501   2.104  16.419  1.00  0.00    -0.144 F
HETATM   22  F2  UNL     1       2.459   4.112  16.379  1.00  0.00    -0.144 F
HETATM   23  F3  UNL     1       2.418   2.999  18.309  1.00  0.00    -0.144 F
ENDBRANCH  19  20
ENDBRANCH  15  19
BRANCH  18  24
HETATM   24  O4  UNL     1      -3.819   2.960  14.130  1.00  0.00    -0.360 OA
ATOM     25  H4  UNL     1      -4.042   3.628  13.492  1.00  0.00     0.217 HD
ENDBRANCH  18  24
ENDBRANCH  12  13
ENDBRANCH   7  12
ENDBRANCH   1   7
BRANCH   4  26
HETATM   26  C15 UNL     1      -0.355  -3.735  18.926  1.00  0.00     0.073 C
BRANCH  26  27
HETATM   27  C16 UNL     1       0.976  -3.774  18.307  1.00  0.00     0.161 C
HETATM   28  O5  UNL     1       1.335  -5.147  18.206  1.00  0.00    -0.348 OA
HETATM   29  C17 UNL     1       2.720  -5.143  18.149  1.00  0.00     0.158 C
HETATM   30  C18 UNL     1       3.364  -6.389  18.700  1.00  0.00     0.078 C
HETATM   31  C19 UNL     1       3.209  -4.955  16.707  1.00  0.00     0.078 C
HETATM   32  O6  UNL     1       3.154  -4.062  18.866  1.00  0.00    -0.345 OA
HETATM   33  C20 UNL     1       2.118  -3.131  18.946  1.00  0.00     0.189 C
BRANCH  33  34
HETATM   34  C21 UNL     1       2.030  -2.632  20.334  1.00  0.00     0.092 C
HETATM   35  C22 UNL     1       1.222  -3.565  21.254  1.00  0.00     0.049 C
HETATM   36  C23 UNL     1       3.473  -2.721  20.878  1.00  0.00     0.049 C
BRANCH  34  37
HETATM   37  O7  UNL     1       1.495  -1.368  20.533  1.00  0.00    -0.308 OA
BRANCH  37  38
HETATM   38  C24 UNL     1       1.607  -0.301  19.660  1.00  0.00     0.255 C
HETATM   39  C25 UNL     1       0.384   0.351  19.096  1.00  0.00     0.126 C
HETATM   40  O8  UNL     1       2.762   0.079  19.380  1.00  0.00    -0.266 OA
ENDBRANCH  37  38
ENDBRANCH  34  37
ENDBRANCH  33  34
ENDBRANCH  26  27
ENDBRANCH   4  26
TORSDOF 12
ENDMDL