MODEL 3
REMARK VINA RESULT: -6.554304178      2.026      4.033
REMARK  8 active torsions:
REMARK  status: ('A' for Active; 'I' for Inactive)
REMARK    1  A    between atoms: O1_3  and  C3_4
REMARK    2  A    between atoms: C3_4  and  C4_5
REMARK    3  A    between atoms: C4_5  and  N1_6
REMARK    4  A    between atoms: N1_6  and  N2_8
REMARK    5  A    between atoms: N2_8  and  C5_10
REMARK    6  A    between atoms: C8_15  and  N4_16
REMARK    7  A    between atoms: N4_16  and  C9_18
REMARK    8  A    between atoms: C9_18  and  C10_19
ROOT
HETATM    1  C1  UNL     1      -5.672  87.434 134.296  1.00  0.00     0.044 C
HETATM    2  C2  UNL     1      -4.796  87.053 133.584  1.00  0.00     0.043 C
HETATM    3  O1  UNL     1      -3.792  86.639 132.763  1.00  0.00    -0.303 OA
ENDROOT
BRANCH   3   4
HETATM    4  C3  UNL     1      -2.894  85.589 133.098  1.00  0.00     0.209 C
BRANCH   4   5
HETATM    5  C4  UNL     1      -1.933  86.133 134.134  1.00  0.00     0.167 C
BRANCH   5   6
HETATM    6  N1  UNL     1      -0.685  86.436 133.447  1.00  0.00    -0.320 N
ATOM      7  H1  UNL     1       0.189  86.409 133.972  1.00  0.00     0.180 HD
BRANCH   6   8
HETATM    8  N2  UNL     1      -0.655  86.763 132.091  1.00  0.00    -0.136 N
ATOM      9  H2  UNL     1      -0.661  86.014 131.399  1.00  0.00     0.205 HD
BRANCH   8  10
HETATM   10  C5  UNL     1      -0.620  87.987 131.694  1.00  0.00     0.697 A
HETATM   11  N3  UNL     1      -0.598  88.239 130.377  1.00  0.00    -0.200 N
HETATM   12  C6  UNL     1      -0.561  89.499 129.904  1.00  0.00     0.110 A
ATOM     13  H3  UNL     1      -0.610  87.459 129.720  1.00  0.00     0.183 HD
HETATM   14  C7  UNL     1      -0.546  90.550 130.828  1.00  0.00     0.066 A
HETATM   15  C8  UNL     1      -0.570  90.282 132.179  1.00  0.00     0.118 A
HETATM   16  N5  UNL     1      -0.606  88.997 132.581  1.00  0.00    -0.176 N
ATOM     17  H5  UNL     1      -0.622  88.786 133.579  1.00  0.00     0.186 HD
BRANCH  15  18
HETATM   18  N4  UNL     1      -0.556  91.246 133.033  1.00  0.00    -0.372 N
ATOM     19  H4  UNL     1       0.134  91.992 132.951  1.00  0.00     0.161 HD
BRANCH  18  20
HETATM   20  C9  UNL     1      -1.521  91.268 134.108  1.00  0.00     0.159 C
BRANCH  20  21
HETATM   21  C10 UNL     1      -2.869  91.613 133.631  1.00  0.00    -0.041 A
HETATM   22  C11 UNL     1      -3.794  90.580 133.501  1.00  0.00     0.009 A
HETATM   23  C12 UNL     1      -5.071  90.846 133.058  1.00  0.00     0.001 A
HETATM   24  C13 UNL     1      -5.409  92.143 132.752  1.00  0.00     0.000 A
HETATM   25  C14 UNL     1      -4.484  93.178 132.882  1.00  0.00     0.001 A
HETATM   26  C15 UNL     1      -3.202  92.911 133.326  1.00  0.00     0.009 A
ENDBRANCH  20  21
ENDBRANCH  18  20
ENDBRANCH  15  18
ENDBRANCH   8  10
ENDBRANCH   6   8
ENDBRANCH   5   6
ENDBRANCH   4   5
ENDBRANCH   3   4
TORSDOF 8
ENDMDL