MODEL 1
REMARK VINA RESULT: -7.359005377      0.000      0.000
REMARK  6 active torsions:
REMARK  status: ('A' for Active; 'I' for Inactive)
REMARK       I    between atoms: C2_5  and  N3_6
REMARK       I    between atoms: C2_5  and  N6_17
REMARK    1  A    between atoms: N3_6  and  C3_8
REMARK    2  A    between atoms: C3_8  and  C4_9
REMARK    3  A    between atoms: C4_9  and  C5_10
REMARK    4  A    between atoms: C5_10  and  N4_11
REMARK    5  A    between atoms: N6_17  and  C9_19
REMARK    6  A    between atoms: C9_19  and  C10_20
ROOT
HETATM    1  N1  UNL     1       2.005  87.938 130.524  1.00  0.00    -0.171 NA
HETATM    2  C1  UNL     1       1.020  88.527 130.365  1.00  0.00     0.196 C
HETATM    3  N2  UNL     1      -0.165  89.233 130.157  1.00  0.00    -0.126 N
ATOM      4  H2  UNL     1      -0.156  90.090 129.604  1.00  0.00     0.197 HD
HETATM    5  C2  UNL     1      -1.256  88.810 130.654  1.00  0.00     0.683 C
HETATM    6  N3  UNL     1      -2.474  89.493 130.468  1.00  0.00    -0.226 N
ATOM      7  H3  UNL     1      -3.288  89.005 130.094  1.00  0.00     0.177 HD
HETATM    8  N6  UNL     1      -1.250  87.622 131.416  1.00  0.00    -0.222 N
ATOM      9  H6  UNL     1      -1.195  86.708 130.965  1.00  0.00     0.178 HD
ENDROOT
BRANCH   6  10
HETATM   10  C3  UNL     1      -2.552  90.892 130.813  1.00  0.00     0.139 C
BRANCH  10  11
HETATM   11  C4  UNL     1      -3.608  91.165 131.859  1.00  0.00     0.040 C
BRANCH  11  12
HETATM   12  C5  UNL     1      -3.294  92.552 132.433  1.00  0.00     0.131 C
BRANCH  12  13
HETATM   13  N4  UNL     1      -2.199  92.473 133.374  1.00  0.00    -0.352 N
HETATM   14  C6  UNL     1      -1.056  93.166 133.261  1.00  0.00     0.108 A
HETATM   15  C7  UNL     1      -0.281  92.828 134.326  1.00  0.00     0.106 A
HETATM   16  N5  UNL     1      -0.972  91.938 135.060  1.00  0.00    -0.361 N
HETATM   17  C8  UNL     1      -2.158  91.706 134.489  1.00  0.00     0.182 A
ATOM     18  H5  UNL     1      -0.641  91.506 135.923  1.00  0.00     0.166 HD
ENDBRANCH  12  13
ENDBRANCH  11  12
ENDBRANCH  10  11
ENDBRANCH   6  10
BRANCH   8  19
HETATM   19  C9  UNL     1      -1.326  87.739 132.861  1.00  0.00     0.176 C
BRANCH  19  20
HETATM   20  C10 UNL     1      -2.715  87.640 133.353  1.00  0.00    -0.040 A
HETATM   21  C11 UNL     1      -3.663  86.881 132.701  1.00  0.00     0.009 A
HETATM   22  C12 UNL     1      -4.941  86.825 133.202  1.00  0.00     0.001 A
HETATM   23  C13 UNL     1      -5.276  87.513 134.336  1.00  0.00     0.000 A
HETATM   24  C14 UNL     1      -4.331  88.272 134.988  1.00  0.00     0.001 A
HETATM   25  C15 UNL     1      -3.053  88.335 134.497  1.00  0.00     0.009 A
ENDBRANCH  19  20
ENDBRANCH   8  19
TORSDOF 6
ENDMDL