MODEL 1
REMARK VINA RESULT: -6.877499425      0.000      0.000
REMARK  8 active torsions:
REMARK  status: ('A' for Active; 'I' for Inactive)
REMARK    1  A    between atoms: N1_5  and  C5_7
REMARK    2  A    between atoms: C5_7  and  C6_8
REMARK    3  A    between atoms: C6_8  and  C7_9
REMARK    4  A    between atoms: C7_9  and  O1_10
REMARK    5  A    between atoms: C8_14  and  N3_15
REMARK    6  A    between atoms: N3_15  and  C9_17
REMARK    7  A    between atoms: C9_17  and  C10_18
REMARK    8  A    between atoms: C10_18  and  C11_19
ROOT
HETATM    1  C1  UNL     1      -0.635  89.305 128.563  1.00  0.00     0.069 C
HETATM    2  C2  UNL     1      -0.628  89.156 130.042  1.00  0.00     0.026 A
HETATM    3  C3  UNL     1      -0.649  90.289 130.819  1.00  0.00     0.073 A
HETATM    4  C4  UNL     1      -0.644  90.188 132.189  1.00  0.00     0.118 A
HETATM    5  N1  UNL     1      -0.664  91.230 132.921  1.00  0.00    -0.376 N
ATOM      6  H1  UNL     1      -0.660  91.079 133.930  1.00  0.00     0.161 HD
HETATM    7  N2  UNL     1      -0.620  88.938 132.742  1.00  0.00    -0.177 N
ATOM      8  H2  UNL     1      -0.616  88.846 133.758  1.00  0.00     0.185 HD
HETATM    9  C8  UNL     1      -0.600  87.835 131.990  1.00  0.00     0.679 A
HETATM   10  N5  UNL     1      -0.604  87.961 130.659  1.00  0.00    -0.196 N
ATOM     11  H5  UNL     1      -0.589  87.117 130.088  1.00  0.00     0.184 HD
ENDROOT
BRANCH   9  12
HETATM   12  N3  UNL     1      -0.577  86.690 132.521  1.00  0.00    -0.226 N
ATOM     13  H3  UNL     1      -0.158  85.941 131.971  1.00  0.00     0.177 HD
BRANCH  12  14
HETATM   14  C9  UNL     1      -1.078  86.334 133.813  1.00  0.00     0.144 C
BRANCH  14  15
HETATM   15  C10 UNL     1      -2.455  85.741 133.778  1.00  0.00     0.077 C
BRANCH  15  16
HETATM   16  C11 UNL     1      -3.463  86.794 134.090  1.00  0.00     0.010 A
HETATM   17  C12 UNL     1      -4.702  86.821 133.487  1.00  0.00     0.025 A
HETATM   18  C13 UNL     1      -5.650  87.792 133.765  1.00  0.00     0.003 A
HETATM   19  C14 UNL     1      -5.331  88.755 134.675  1.00  0.00     0.017 A
HETATM   20  C15 UNL     1      -4.089  88.710 135.265  1.00  0.00     0.088 A
HETATM   21  N4  UNL     1      -3.173  87.771 134.996  1.00  0.00    -0.369 N
ATOM     22  H4  UNL     1      -2.268  87.786 135.465  1.00  0.00     0.165 HD
ENDBRANCH  15  16
ENDBRANCH  14  15
ENDBRANCH  12  14
ENDBRANCH   9  12
BRANCH   5  23
HETATM   23  C5  UNL     1      -0.691  92.588 132.479  1.00  0.00     0.123 C
BRANCH  23  24
HETATM   24  C6  UNL     1      -1.453  93.485 133.452  1.00  0.00     0.045 C
BRANCH  24  25
HETATM   25  C7  UNL     1      -2.663  92.732 133.988  1.00  0.00     0.165 C
BRANCH  25  26
HETATM   26  O1  UNL     1      -2.317  91.958 135.094  1.00  0.00    -0.401 OA
ATOM     27  H1  UNL     1      -2.949  92.068 135.796  1.00  0.00     0.209 HD
ENDBRANCH  25  26
ENDBRANCH  24  25
ENDBRANCH  23  24
ENDBRANCH   5  23
TORSDOF 8
ENDMDL