MODEL 2
REMARK VINA RESULT: -6.818632930      0.605      1.731
REMARK  7 active torsions:
REMARK  status: ('A' for Active; 'I' for Inactive)
REMARK    1  A    between atoms: C3_4  and  C4_5
REMARK    2  A    between atoms: C5_6  and  C6_7
REMARK    3  A    between atoms: C6_7  and  C7_8
REMARK    4  A    between atoms: C7_8  and  C8_9
REMARK    5  A    between atoms: C8_9  and  C9_10
REMARK    6  A    between atoms: C9_10  and  N1_11
REMARK    7  A    between atoms: N1_11  and  C10_13
ROOT
HETATM    1  C6  UNL     1      -1.706  92.810 132.391  1.00  0.00     0.027 C
ENDROOT
BRANCH   1   2
HETATM    2  C5  UNL     1      -1.188  92.774 131.038  1.00  0.00    -0.024 C
HETATM    3  C4  UNL     1      -0.665  91.841 130.365  1.00  0.00     0.025 C
BRANCH   3   4
HETATM    4  C3  UNL     1      -0.361  90.462 130.650  1.00  0.00     0.041 A
HETATM    5  C2  UNL     1       0.822  89.818 130.384  1.00  0.00     0.104 A
HETATM    6  C1  UNL     1       1.022  88.496 130.760  1.00  0.00     0.251 A
HETATM    7  O1  UNL     1       2.132  87.980 130.482  1.00  0.00    -0.268 OA
HETATM    8  N5  UNL     1       0.033  87.854 131.391  1.00  0.00    -0.275 N
HETATM    9  C14 UNL     1      -1.134  88.456 131.664  1.00  0.00     0.327 A
ATOM     10  H5  UNL     1       0.170  86.884 131.671  1.00  0.00     0.173 HD
HETATM   11  N4  UNL     1      -1.323  89.714 131.306  1.00  0.00    -0.308 N
HETATM   12  O2  UNL     1      -2.001  87.766 132.260  1.00  0.00    -0.247 OA
ATOM     13  H4  UNL     1      -2.218  90.153 131.523  1.00  0.00     0.170 HD
ENDBRANCH   3   4
ENDBRANCH   1   2
BRANCH   1  14
HETATM   14  C7  UNL     1      -0.660  93.062 133.439  1.00  0.00     0.005 C
BRANCH  14  15
HETATM   15  C8  UNL     1      -0.744  92.019 134.510  1.00  0.00     0.020 C
BRANCH  15  16
HETATM   16  C9  UNL     1      -2.160  91.541 134.653  1.00  0.00     0.138 C
BRANCH  16  17
HETATM   17  N1  UNL     1      -2.101  90.157 135.081  1.00  0.00    -0.226 N
ATOM     18  H1  UNL     1      -1.313  89.795 135.619  1.00  0.00     0.177 HD
BRANCH  17  19
HETATM   19  C10 UNL     1      -3.112  89.396 134.742  1.00  0.00     0.677 A
HETATM   20  N2  UNL     1      -4.000  89.794 133.827  1.00  0.00    -0.202 N
HETATM   21  C11 UNL     1      -5.045  89.050 133.452  1.00  0.00     0.107 A
ATOM     22  H2  UNL     1      -3.875  90.709 133.393  1.00  0.00     0.183 HD
HETATM   23  C12 UNL     1      -5.246  87.808 134.020  1.00  0.00     0.035 A
HETATM   24  C13 UNL     1      -4.309  87.427 134.963  1.00  0.00     0.107 A
HETATM   25  N3  UNL     1      -3.273  88.194 135.318  1.00  0.00    -0.202 N
ATOM     26  H3  UNL     1      -2.610  87.868 136.020  1.00  0.00     0.183 HD
ENDBRANCH  17  19
ENDBRANCH  16  17
ENDBRANCH  15  16
ENDBRANCH  14  15
ENDBRANCH   1  14
TORSDOF 7
ENDMDL