MODEL 4
REMARK VINA RESULT: -6.590639338      2.273      4.134
REMARK  9 active torsions:
REMARK  status: ('A' for Active; 'I' for Inactive)
REMARK    1  A    between atoms: C5_5  and  C6_6
REMARK    2  A    between atoms: C6_6  and  C7_7
REMARK    3  A    between atoms: C7_7  and  N1_8
REMARK    4  A    between atoms: N1_8  and  C8_10
REMARK    5  A    between atoms: C11_15  and  N3_16
REMARK    6  A    between atoms: N3_16  and  C12_18
REMARK    7  A    between atoms: C12_18  and  C13_19
REMARK    8  A    between atoms: C13_19  and  C14_20
REMARK    9  A    between atoms: C14_20  and  O1_21
ROOT
HETATM    1  C8  UNL     1      -0.417  90.093 131.889  1.00  0.00     0.118 A
HETATM    2  C9  UNL     1       0.378  89.927 130.779  1.00  0.00     0.066 A
HETATM    3  C10 UNL     1       0.742  88.644 130.345  1.00  0.00     0.110 A
HETATM    4  N2  UNL     1       0.292  87.589 131.045  1.00  0.00    -0.202 N
ATOM      5  H2  UNL     1       0.545  86.648 130.745  1.00  0.00     0.183 HD
HETATM    6  C11 UNL     1      -0.498  87.748 132.150  1.00  0.00     0.679 A
HETATM    7  N4  UNL     1      -0.824  88.984 132.532  1.00  0.00    -0.177 N
ATOM      8  H4  UNL     1      -1.413  89.094 133.357  1.00  0.00     0.185 HD
ENDROOT
BRANCH   1   9
HETATM    9  N1  UNL     1      -0.726  91.278 132.251  1.00  0.00    -0.376 N
ATOM     10  H1  UNL     1      -1.017  91.925 131.519  1.00  0.00     0.161 HD
BRANCH   9  11
HETATM   11  C7  UNL     1      -0.702  91.778 133.590  1.00  0.00     0.128 C
BRANCH  11  12
HETATM   12  C6  UNL     1      -1.855  92.707 133.894  1.00  0.00     0.084 C
BRANCH  12  13
HETATM   13  C5  UNL     1      -3.106  91.939 133.557  1.00  0.00     0.054 A
HETATM   14  C4  UNL     1      -4.231  92.413 132.942  1.00  0.00     0.035 A
HETATM   15  C3  UNL     1      -5.116  91.362 132.840  1.00  0.00     0.035 A
HETATM   16  C2  UNL     1      -4.493  90.286 133.399  1.00  0.00     0.049 A
HETATM   17  C1  UNL     1      -4.978  88.886 133.564  1.00  0.00     0.076 C
HETATM   18  O2  UNL     1      -3.317  90.674 133.806  1.00  0.00    -0.320 OA
ENDBRANCH  12  13
ENDBRANCH  11  12
ENDBRANCH   9  11
ENDBRANCH   1   9
BRANCH   6  19
HETATM   19  N3  UNL     1      -0.852  86.655 132.716  1.00  0.00    -0.226 N
ATOM     20  H3  UNL     1      -0.653  85.757 132.273  1.00  0.00     0.177 HD
BRANCH  19  21
HETATM   21  C12 UNL     1      -1.532  86.703 133.986  1.00  0.00     0.140 C
BRANCH  21  22
HETATM   22  C13 UNL     1      -2.632  85.673 134.112  1.00  0.00     0.046 C
BRANCH  22  23
HETATM   23  C14 UNL     1      -3.425  85.530 132.852  1.00  0.00     0.165 C
BRANCH  23  24
HETATM   24  O1  UNL     1      -2.800  84.584 132.042  1.00  0.00    -0.401 OA
ATOM     25  H1  UNL     1      -2.751  84.930 131.158  1.00  0.00     0.209 HD
ENDBRANCH  23  24
ENDBRANCH  22  23
ENDBRANCH  21  22
ENDBRANCH  19  21
ENDBRANCH   6  19
TORSDOF 9
ENDMDL