MODEL 5
REMARK VINA RESULT: -6.577357420      2.446      3.973
REMARK  6 active torsions:
REMARK  status: ('A' for Active; 'I' for Inactive)
REMARK    1  A    between atoms: N1_2  and  C2_5
REMARK    2  A    between atoms: C2_5  and  C3_6
REMARK    3  A    between atoms: C3_6  and  N2_7
REMARK       I    between atoms: N2_7  and  C4_9
REMARK       I    between atoms: C4_9  and  N5_14
REMARK    4  A    between atoms: N5_14  and  C6_16
REMARK    5  A    between atoms: C6_16  and  C7_17
REMARK    6  A    between atoms: C7_17  and  N6_18
ROOT
HETATM    1  N2  UNL     1      -0.547  88.031 128.388  1.00  0.00    -0.224 N
ATOM      2  H2  UNL     1      -0.779  87.145 128.838  1.00  0.00     0.177 HD
HETATM    3  C4  UNL     1      -0.645  89.191 129.168  1.00  0.00     0.683 C
HETATM    4  N3  UNL     1       0.252  89.436 130.042  1.00  0.00    -0.126 N
ATOM      5  H3  UNL     1       0.170  90.284 130.603  1.00  0.00     0.197 HD
HETATM    6  C5  UNL     1       1.344  88.590 130.263  1.00  0.00     0.196 C
HETATM    7  N4  UNL     1       2.261  87.887 130.466  1.00  0.00    -0.171 NA
HETATM    8  N5  UNL     1      -1.716  90.079 128.999  1.00  0.00    -0.224 N
ATOM      9  H5  UNL     1      -1.761  90.697 128.189  1.00  0.00     0.177 HD
ENDROOT
BRANCH   1  10
HETATM   10  C3  UNL     1      -0.145  87.979 126.997  1.00  0.00     0.165 C
BRANCH  10  11
HETATM   11  C2  UNL     1      -0.476  86.658 126.365  1.00  0.00     0.252 C
BRANCH  11  12
HETATM   12  N1  UNL     1      -1.787  86.677 125.775  1.00  0.00    -0.077 N
HETATM   13  C1  UNL     1      -1.952  87.702 124.791  1.00  0.00     0.267 C
ATOM     14  H12 UNL     1      -2.506  86.748 126.495  1.00  0.00     0.276 HD
ATOM     15  H11 UNL     1      -2.023  85.763 125.389  1.00  0.00     0.276 HD
ENDBRANCH  11  12
ENDBRANCH  10  11
ENDBRANCH   1  10
BRANCH   8  16
HETATM   16  C6  UNL     1      -2.751  90.094 129.999  1.00  0.00     0.158 C
BRANCH  16  17
HETATM   17  C7  UNL     1      -2.307  90.636 131.316  1.00  0.00     0.143 C
BRANCH  17  18
HETATM   18  N6  UNL     1      -2.774  89.795 132.359  1.00  0.00    -0.379 N
HETATM   19  C8  UNL     1      -3.718  88.766 131.867  1.00  0.00     0.202 C
HETATM   20  C9  UNL     1      -4.278  88.182 133.017  1.00  0.00    -0.163 C
HETATM   21  C10 UNL     1      -4.981  87.397 133.933  1.00  0.00     0.085 C
HETATM   22  C11 UNL     1      -4.634  88.023 135.327  1.00  0.00     0.038 C
HETATM   23  C12 UNL     1      -3.313  88.633 135.446  1.00  0.00    -0.024 C
HETATM   24  C13 UNL     1      -2.841  89.890 134.918  1.00  0.00     0.013 C
HETATM   25  C14 UNL     1      -3.046  90.424 133.575  1.00  0.00     0.086 C
ENDBRANCH  17  18
ENDBRANCH  16  17
ENDBRANCH   8  16
TORSDOF 6
ENDMDL