MODEL 5
REMARK VINA RESULT: -6.644185883      2.243      3.666
REMARK  8 active torsions:
REMARK  status: ('A' for Active; 'I' for Inactive)
REMARK    1  A    between atoms: O1_1  and  N1_3
REMARK    2  A    between atoms: N1_3  and  N2_5
REMARK    3  A    between atoms: N2_5  and  C1_7
REMARK    4  A    between atoms: C2_10  and  C3_11
REMARK    5  A    between atoms: C3_11  and  C4_12
REMARK    6  A    between atoms: C4_12  and  C5_13
REMARK    7  A    between atoms: C5_13  and  C6_14
REMARK    8  A    between atoms: C6_14  and  C7_15
ROOT
HETATM    1  C1  UNL     1      -0.635  87.389 131.965  1.00  0.00     0.701 A
HETATM    2  N3  UNL     1      -1.076  88.640 132.225  1.00  0.00    -0.194 N
ATOM      3  H3  UNL     1      -1.870  88.757 132.854  1.00  0.00     0.184 HD
HETATM    4  C2  UNL     1      -0.517  89.727 131.692  1.00  0.00     0.032 A
HETATM    5  C13 UNL     1       0.553  89.556 130.841  1.00  0.00     0.100 A
HETATM    6  C14 UNL     1       1.033  88.297 130.551  1.00  0.00     0.261 A
HETATM    7  O2  UNL     1       2.019  88.153 129.767  1.00  0.00    -0.268 OA
HETATM    8  N4  UNL     1       0.418  87.249 131.126  1.00  0.00    -0.155 N
ATOM      9  H4  UNL     1       0.759  86.310 130.922  1.00  0.00     0.187 HD
ENDROOT
BRANCH   4  10
HETATM   10  C3  UNL     1      -0.989  91.114 131.969  1.00  0.00     0.058 C
BRANCH  10  11
HETATM   11  C4  UNL     1      -0.695  91.547 133.362  1.00  0.00     0.006 C
BRANCH  11  12
HETATM   12  C5  UNL     1      -1.970  91.814 134.104  1.00  0.00     0.005 C
BRANCH  12  13
HETATM   13  C6  UNL     1      -2.162  90.782 135.165  1.00  0.00     0.038 C
BRANCH  13  14
HETATM   14  C7  UNL     1      -3.266  89.818 134.785  1.00  0.00    -0.058 A
HETATM   15  C8  UNL     1      -3.445  88.714 135.571  1.00  0.00     0.007 A
HETATM   16  C9  UNL     1      -4.439  87.815 135.254  1.00  0.00     0.001 A
HETATM   17  C10 UNL     1      -5.237  88.033 134.161  1.00  0.00     0.000 A
HETATM   18  C11 UNL     1      -5.063  89.138 133.368  1.00  0.00     0.001 A
HETATM   19  C12 UNL     1      -4.066  90.032 133.692  1.00  0.00     0.007 A
ENDBRANCH  13  14
ENDBRANCH  12  13
ENDBRANCH  11  12
ENDBRANCH  10  11
ENDBRANCH   4  10
BRANCH   1  20
HETATM   20  N2  UNL     1      -1.145  86.333 132.456  1.00  0.00    -0.112 N
ATOM     21  H2  UNL     1      -0.499  85.656 132.861  1.00  0.00     0.207 HD
BRANCH  20  22
HETATM   22  N1  UNL     1      -2.482  86.011 132.496  1.00  0.00    -0.196 N
ATOM     23  H1  UNL     1      -3.150  86.733 132.768  1.00  0.00     0.216 HD
BRANCH  22  24
HETATM   24  O1  UNL     1      -2.911  84.889 132.218  1.00  0.00    -0.274 OA
ATOM     25  H1  UNL     1      -3.488  84.398 132.792  1.00  0.00     0.246 HD
ENDBRANCH  22  24
ENDBRANCH  20  22
ENDBRANCH   1  20
TORSDOF 8
ENDMDL