MODEL 2
REMARK VINA RESULT: -6.219878600      1.559      1.928
REMARK  8 active torsions:
REMARK  status: ('A' for Active; 'I' for Inactive)
REMARK    1  A    between atoms: N1_1  and  C1_4
REMARK    2  A    between atoms: C1_4  and  C2_5
REMARK    3  A    between atoms: C2_5  and  C3_6
REMARK    4  A    between atoms: C3_6  and  N2_7
REMARK    5  A    between atoms: N2_7  and  S1_9
REMARK    6  A    between atoms: S1_9  and  C4_12
REMARK    7  A    between atoms: C7_15  and  N3_16
REMARK    8  A    between atoms: N3_16  and  C8_18
ROOT
HETATM    1  C4  UNL     1      -0.006  89.237 131.109  1.00  0.00     0.079 A
HETATM    2  C5  UNL     1      -0.247  90.485 131.631  1.00  0.00     0.027 A
HETATM    3  C6  UNL     1      -1.219  90.709 132.620  1.00  0.00     0.031 A
HETATM    4  C7  UNL     1      -1.983  89.683 133.116  1.00  0.00     0.033 A
HETATM    5  C11 UNL     1      -1.723  88.413 132.571  1.00  0.00     0.031 A
HETATM    6  C12 UNL     1      -0.770  88.204 131.604  1.00  0.00     0.027 A
ENDROOT
BRANCH   1   7
HETATM    7  S1  UNL     1       1.206  88.960 129.876  1.00  0.00     0.258 S
HETATM    8  O1  UNL     1       1.982  90.216 129.583  1.00  0.00    -0.201 OA
HETATM    9  O2  UNL     1       2.188  87.949 130.389  1.00  0.00    -0.201 OA
BRANCH   7  10
HETATM   10  N2  UNL     1       0.499  88.372 128.418  1.00  0.00    -0.315 N
ATOM     11  H2  UNL     1      -0.501  88.223 128.283  1.00  0.00     0.172 HD
BRANCH  10  12
HETATM   12  C3  UNL     1       1.497  88.120 127.419  1.00  0.00     0.145 C
BRANCH  12  13
HETATM   13  C2  UNL     1       0.928  87.163 126.438  1.00  0.00     0.124 C
BRANCH  13  14
HETATM   14  C1  UNL     1      -0.044  86.354 126.748  1.00  0.00    -0.076 C
BRANCH  14  15
HETATM   15  N1  UNL     1      -0.687  85.312 127.082  1.00  0.00    -0.370 N
ATOM     16  H12 UNL     1      -0.120  85.107 127.904  1.00  0.00     0.165 HD
ATOM     17  H11 UNL     1      -1.370  84.555 127.089  1.00  0.00     0.165 HD
ENDBRANCH  14  15
ENDBRANCH  13  14
ENDBRANCH  12  13
ENDBRANCH  10  12
ENDBRANCH   7  10
ENDBRANCH   1   7
BRANCH   4  18
HETATM   18  N3  UNL     1      -2.989  89.841 134.099  1.00  0.00    -0.341 N
ATOM     19  H3  UNL     1      -2.971  90.720 134.615  1.00  0.00     0.167 HD
BRANCH  18  20
HETATM   20  C8  UNL     1      -4.003  88.950 134.453  1.00  0.00     0.122 A
HETATM   21  C9  UNL     1      -5.170  88.755 133.726  1.00  0.00     0.137 A
HETATM   22  N4  UNL     1      -5.914  87.848 134.355  1.00  0.00    -0.358 N
HETATM   23  C10 UNL     1      -5.239  87.485 135.437  1.00  0.00     0.182 A
ATOM     24  H4  UNL     1      -6.826  87.500 134.062  1.00  0.00     0.166 HD
HETATM   25  N5  UNL     1      -4.074  88.150 135.506  1.00  0.00    -0.337 N
ATOM     26  H5  UNL     1      -3.370  88.055 136.238  1.00  0.00     0.168 HD
ENDBRANCH  18  20
ENDBRANCH   4  18
TORSDOF 8
ENDMDL