MODEL 3
REMARK VINA RESULT: -6.683272348      1.398      2.065
REMARK  8 active torsions:
REMARK  status: ('A' for Active; 'I' for Inactive)
REMARK    1  A    between atoms: C3_3  and  O1_4
REMARK    2  A    between atoms: O1_4  and  C4_5
REMARK    3  A    between atoms: C4_5  and  C5_6
REMARK    4  A    between atoms: C5_6  and  C6_7
REMARK    5  A    between atoms: C8_11  and  N2_12
REMARK    6  A    between atoms: N2_12  and  C9_14
REMARK    7  A    between atoms: C9_14  and  C10_15
REMARK    8  A    between atoms: C14_19  and  O2_20
ROOT
HETATM    1  C1  UNL     1      -0.454  92.329 134.548  1.00  0.00     0.014 C
HETATM    2  C2  UNL     1      -0.903  92.700 133.494  1.00  0.00    -0.091 C
HETATM    3  C3  UNL     1      -1.470  93.162 132.225  1.00  0.00     0.260 C
ENDROOT
BRANCH   3   4
HETATM    4  O1  UNL     1      -0.488  93.185 131.242  1.00  0.00    -0.379 OA
BRANCH   4   5
HETATM    5  C4  UNL     1      -1.052  92.704 130.057  1.00  0.00     0.173 C
BRANCH   5   6
HETATM    6  C5  UNL     1      -0.114  91.682 129.426  1.00  0.00     0.067 C
BRANCH   6   7
HETATM    7  C6  UNL     1      -0.392  90.387 130.094  1.00  0.00    -0.024 A
HETATM    8  C7  UNL     1      -1.647  89.825 130.180  1.00  0.00     0.114 A
HETATM    9  N1  UNL     1      -1.850  88.627 130.807  1.00  0.00    -0.201 N
HETATM   10  C8  UNL     1      -0.806  87.983 131.354  1.00  0.00     0.677 A
ATOM     11  H1  UNL     1      -2.787  88.226 130.859  1.00  0.00     0.183 HD
HETATM   12  N3  UNL     1       0.424  88.502 131.288  1.00  0.00    -0.201 N
HETATM   13  C16 UNL     1       0.644  89.676 130.676  1.00  0.00     0.114 A
ATOM     14  H3  UNL     1       1.205  88.000 131.709  1.00  0.00     0.183 HD
BRANCH  10  15
HETATM   15  N2  UNL     1      -1.026  86.860 131.937  1.00  0.00    -0.222 N
ATOM     16  H2  UNL     1      -1.194  86.016 131.390  1.00  0.00     0.178 HD
BRANCH  15  17
HETATM   17  C9  UNL     1      -1.034  86.810 133.378  1.00  0.00     0.176 C
BRANCH  17  18
HETATM   18  C10 UNL     1      -2.292  87.329 133.951  1.00  0.00    -0.037 A
HETATM   19  C11 UNL     1      -2.299  88.436 134.772  1.00  0.00     0.009 A
HETATM   20  C12 UNL     1      -3.478  88.935 135.318  1.00  0.00     0.003 A
HETATM   21  C13 UNL     1      -4.666  88.326 135.047  1.00  0.00     0.036 A
HETATM   22  C14 UNL     1      -4.692  87.216 134.230  1.00  0.00     0.066 A
HETATM   23  C15 UNL     1      -3.502  86.722 133.685  1.00  0.00     0.045 A
BRANCH  22  24
HETATM   24  O2  UNL     1      -5.856  86.540 133.906  1.00  0.00    -0.361 OA
ATOM     25  H2  UNL     1      -6.483  86.860 133.267  1.00  0.00     0.217 HD
ENDBRANCH  22  24
ENDBRANCH  17  18
ENDBRANCH  15  17
ENDBRANCH  10  15
ENDBRANCH   6   7
ENDBRANCH   5   6
ENDBRANCH   4   5
ENDBRANCH   3   4
TORSDOF 8
ENDMDL