MODEL 4
REMARK VINA RESULT: -6.007816545      1.888      3.612
REMARK  8 active torsions:
REMARK  status: ('A' for Active; 'I' for Inactive)
REMARK    1  A    between atoms: C3_3  and  N1_4
REMARK    2  A    between atoms: N1_4  and  C4_6
REMARK    3  A    between atoms: N3_12  and  C8_13
REMARK    4  A    between atoms: C8_13  and  C9_14
REMARK    5  A    between atoms: C9_14  and  C10_15
REMARK    6  A    between atoms: C10_15  and  C11_16
REMARK    7  A    between atoms: C11_16  and  C12_17
REMARK    8  A    between atoms: C15_24  and  N6_25
ROOT
HETATM    1  C1  UNL     1      -3.328  85.232 132.844  1.00  0.00     0.014 C
HETATM    2  C2  UNL     1      -2.459  86.073 132.891  1.00  0.00    -0.098 C
HETATM    3  C3  UNL     1      -1.395  87.074 132.940  1.00  0.00     0.215 C
ENDROOT
BRANCH   3   4
HETATM    4  N1  UNL     1      -1.234  87.741 131.690  1.00  0.00    -0.363 N
ATOM      5  H1  UNL     1      -0.662  87.307 130.966  1.00  0.00     0.162 HD
BRANCH   4   6
HETATM    6  C4  UNL     1      -1.791  88.874 131.449  1.00  0.00     0.146 A
HETATM    7  N2  UNL     1      -3.029  88.888 130.925  1.00  0.00    -0.348 N
HETATM    8  C5  UNL     1      -3.576  90.092 130.688  1.00  0.00     0.114 A
ATOM      9  H2  UNL     1      -3.530  88.025 130.716  1.00  0.00     0.167 HD
HETATM   10  C6  UNL     1      -2.936  91.287 130.957  1.00  0.00     0.025 A
HETATM   11  C7  UNL     1      -3.623  92.575 130.661  1.00  0.00     0.070 C
HETATM   12  N3  UNL     1      -1.696  91.273 131.483  1.00  0.00    -0.333 N
HETATM   13  C15 UNL     1      -1.122  90.071 131.729  1.00  0.00     0.146 A
BRANCH  12  14
HETATM   14  C8  UNL     1      -0.972  92.472 131.788  1.00  0.00     0.131 C
BRANCH  14  15
HETATM   15  C9  UNL     1      -0.884  92.755 133.267  1.00  0.00     0.021 C
BRANCH  15  16
HETATM   16  C10 UNL     1      -2.066  92.293 134.024  1.00  0.00     0.008 C
BRANCH  16  17
HETATM   17  C11 UNL     1      -1.857  91.320 135.118  1.00  0.00     0.058 C
BRANCH  17  18
HETATM   18  C12 UNL     1      -2.780  90.164 135.094  1.00  0.00     0.025 A
HETATM   19  C13 UNL     1      -2.755  89.158 136.068  1.00  0.00     0.113 A
HETATM   20  N4  UNL     1      -3.704  88.256 135.766  1.00  0.00    -0.360 N
HETATM   21  C14 UNL     1      -4.329  88.649 134.641  1.00  0.00     0.180 A
ATOM     22  H4  UNL     1      -3.916  87.414 136.300  1.00  0.00     0.166 HD
HETATM   23  N5  UNL     1      -3.748  89.802 134.263  1.00  0.00    -0.355 N
ATOM     24  H5  UNL     1      -4.019  90.334 133.436  1.00  0.00     0.166 HD
ENDBRANCH  17  18
ENDBRANCH  16  17
ENDBRANCH  15  16
ENDBRANCH  14  15
ENDBRANCH  12  14
BRANCH  13  25
HETATM   25  N6  UNL     1       0.055  89.927 132.231  1.00  0.00    -0.382 N
ATOM     26  H62 UNL     1       0.912  89.921 131.677  1.00  0.00     0.157 HD
ATOM     27  H61 UNL     1       0.078  89.818 133.244  1.00  0.00     0.157 HD
ENDBRANCH  13  25
ENDBRANCH   4   6
ENDBRANCH   3   4
TORSDOF 8
ENDMDL