MODEL 3
REMARK VINA RESULT: -7.628923819      4.208      9.373
REMARK  9 active torsions:
REMARK  status: ('A' for Active; 'I' for Inactive)
REMARK       I    between atoms: C1_2  and  N1_3
REMARK       I    between atoms: C1_2  and  N2_13
REMARK    1  A    between atoms: N1_3  and  C2_5
REMARK    2  A    between atoms: C12_16  and  N3_17
REMARK    3  A    between atoms: N3_17  and  C13_18
REMARK    4  A    between atoms: N3_17  and  C21_26
REMARK    5  A    between atoms: C13_18  and  C14_19
REMARK    6  A    between atoms: C14_19  and  C15_20
REMARK    7  A    between atoms: C15_20  and  C16_21
REMARK    8  A    between atoms: C21_26  and  O2_27
REMARK    9  A    between atoms: C21_26  and  C22_29
ROOT
HETATM    1  O1  UNL     1      21.198  30.565  -4.593  1.00  0.00    -0.247 OA
HETATM    2  C1  UNL     1      21.536  29.415  -4.943  1.00  0.00     0.318 C
HETATM    3  N1  UNL     1      22.602  29.267  -5.845  1.00  0.00    -0.338 N
ATOM      4  H1  UNL     1      22.861  28.320  -6.119  1.00  0.00     0.164 HD
HETATM    5  N2  UNL     1      20.842  28.296  -4.430  1.00  0.00    -0.334 N
HETATM    6  C10 UNL     1      19.773  28.522  -3.524  1.00  0.00     0.129 C
HETATM    7  C11 UNL     1      18.841  27.415  -3.230  1.00  0.00     0.045 C
HETATM    8  C12 UNL     1      19.284  26.091  -3.831  1.00  0.00     0.089 C
HETATM    9  C25 UNL     1      20.759  25.990  -3.781  1.00  0.00     0.045 C
HETATM   10  C26 UNL     1      21.260  26.986  -4.851  1.00  0.00     0.129 C
ENDROOT
BRANCH   8  11
HETATM   11  N3  UNL     1      18.521  24.951  -3.326  1.00  0.00    -0.360 N
BRANCH  11  12
HETATM   12  C13 UNL     1      19.221  24.046  -2.467  1.00  0.00     0.125 C
BRANCH  12  13
HETATM   13  C14 UNL     1      18.867  22.610  -2.435  1.00  0.00     0.020 C
BRANCH  13  14
HETATM   14  C15 UNL     1      17.956  22.203  -1.320  1.00  0.00     0.006 C
BRANCH  14  15
HETATM   15  C16 UNL     1      18.328  22.850  -0.001  1.00  0.00    -0.014 C
HETATM   16  C17 UNL     1      17.215  22.827   0.994  1.00  0.00     0.004 C
HETATM   17  C18 UNL     1      17.093  21.352   1.307  1.00  0.00     0.000 C
HETATM   18  C19 UNL     1      18.475  20.793   1.138  1.00  0.00     0.000 C
HETATM   19  C20 UNL     1      19.351  21.938   0.646  1.00  0.00     0.004 C
ENDBRANCH  14  15
ENDBRANCH  13  14
ENDBRANCH  12  13
ENDBRANCH  11  12
BRANCH  11  20
HETATM   20  C21 UNL     1      17.198  24.820  -3.804  1.00  0.00     0.118 C
BRANCH  20  21
HETATM   21  O2  UNL     1      17.075  24.743  -5.099  1.00  0.00    -0.349 OA
ATOM     22  H2  UNL     1      17.397  25.492  -5.585  1.00  0.00     0.219 HD
ENDBRANCH  20  21
BRANCH  20  23
HETATM   23  C22 UNL     1      15.918  24.749  -3.114  1.00  0.00     0.060 A
HETATM   24  C23 UNL     1      15.547  25.051  -1.753  1.00  0.00     0.013 A
HETATM   25  C24 UNL     1      15.373  26.141  -2.751  1.00  0.00     0.013 A
ENDBRANCH  20  23
ENDBRANCH  11  20
ENDBRANCH   8  11
BRANCH   3  26
HETATM   26  C2  UNL     1      23.358  30.356  -6.411  1.00  0.00     0.090 C
HETATM   27  C3  UNL     1      22.994  30.644  -7.849  1.00  0.00     0.030 C
HETATM   28  C4  UNL     1      24.281  30.581  -8.652  1.00  0.00    -0.013 C
HETATM   29  C5  UNL     1      25.204  31.653  -8.150  1.00  0.00     0.005 C
HETATM   30  C9  UNL     1      24.843  29.189  -8.472  1.00  0.00     0.005 C
HETATM   31  C6  UNL     1      25.456  31.550  -6.658  1.00  0.00     0.007 C
HETATM   32  C7  UNL     1      24.847  30.228  -6.206  1.00  0.00     0.008 C
HETATM   33  C8  UNL     1      25.462  29.158  -7.072  1.00  0.00     0.007 C
ENDBRANCH   3  26
TORSDOF 9
ENDMDL