MODEL 3
REMARK VINA RESULT: -6.885512995      3.851      9.565
REMARK  7 active torsions:
REMARK  status: ('A' for Active; 'I' for Inactive)
REMARK    1  A    between atoms: C2_2  and  N1_3
REMARK    2  A    between atoms: N1_3  and  C3_4
REMARK    3  A    between atoms: N1_3  and  C5_6
REMARK    4  A    between atoms: C5_6  and  C6_7
REMARK    5  A    between atoms: C6_7  and  N2_8
REMARK       I    between atoms: N2_8  and  C7_10
REMARK    6  A    between atoms: C7_10  and  C8_12
REMARK    7  A    between atoms: C17_21  and  C18_22
ROOT
HETATM    1  C8  UNL     1      15.518  26.564  -1.167  1.00  0.00     0.086 C
HETATM    2  C9  UNL     1      16.176  25.255  -1.565  1.00  0.00     0.015 C
HETATM    3  C10 UNL     1      15.273  24.690  -2.683  1.00  0.00     0.007 C
HETATM    4  C11 UNL     1      14.832  25.982  -3.290  1.00  0.00    -0.001 C
HETATM    5  C12 UNL     1      14.013  25.978  -4.476  1.00  0.00    -0.001 C
HETATM    6  C13 UNL     1      13.185  24.762  -4.798  1.00  0.00     0.033 C
HETATM    7  C14 UNL     1      12.915  24.878  -6.262  1.00  0.00    -0.023 C
HETATM    8  C15 UNL     1      12.634  26.103  -6.755  1.00  0.00    -0.074 C
HETATM    9  C16 UNL     1      12.363  26.253  -8.214  1.00  0.00     0.044 C
HETATM   10  C17 UNL     1      12.038  27.627  -8.632  1.00  0.00     0.027 C
HETATM   11  C19 UNL     1      12.896  28.652  -7.991  1.00  0.00     0.011 C
HETATM   12  C20 UNL     1      13.440  28.345  -6.644  1.00  0.00     0.015 C
HETATM   13  C21 UNL     1      12.578  27.326  -5.914  1.00  0.00    -0.017 C
HETATM   14  C22 UNL     1      11.139  27.860  -5.866  1.00  0.00     0.020 C
HETATM   15  C23 UNL     1      13.050  27.152  -4.521  1.00  0.00     0.003 C
HETATM   16  C24 UNL     1      13.793  28.325  -3.936  1.00  0.00     0.007 C
HETATM   17  C25 UNL     1      14.045  28.142  -2.478  1.00  0.00     0.011 C
HETATM   18  C26 UNL     1      14.315  26.712  -2.065  1.00  0.00    -0.028 C
HETATM   19  C27 UNL     1      13.085  26.117  -1.459  1.00  0.00     0.016 C
ENDROOT
BRANCH   1  20
HETATM   20  C7  UNL     1      15.185  26.517   0.277  1.00  0.00     0.222 C
HETATM   21  N2  UNL     1      14.825  27.643   1.050  1.00  0.00    -0.356 N
ATOM     22  H2  UNL     1      14.795  28.559   0.605  1.00  0.00     0.162 HD
HETATM   23  O1  UNL     1      15.234  25.401   0.824  1.00  0.00    -0.273 OA
BRANCH  21  24
HETATM   24  C6  UNL     1      14.499  27.536   2.450  1.00  0.00     0.167 C
BRANCH  24  25
HETATM   25  C5  UNL     1      14.898  28.735   3.269  1.00  0.00     0.087 C
BRANCH  25  26
HETATM   26  N1  UNL     1      15.671  28.512   4.388  1.00  0.00    -0.353 N
BRANCH  26  27
HETATM   27  C2  UNL     1      16.071  29.634   5.107  1.00  0.00     0.064 C
HETATM   28  C1  UNL     1      17.065  30.557   4.421  1.00  0.00     0.055 C
ENDBRANCH  26  27
BRANCH  26  29
HETATM   29  C3  UNL     1      15.965  27.236   4.811  1.00  0.00     0.064 C
HETATM   30  C4  UNL     1      17.023  27.169   5.914  1.00  0.00     0.055 C
ENDBRANCH  26  29
ENDBRANCH  25  26
ENDBRANCH  24  25
ENDBRANCH  21  24
ENDBRANCH   1  20
BRANCH  10  31
HETATM   31  C18 UNL     1      12.296  27.708 -10.127  1.00  0.00     0.057 C
HETATM   32  N3  UNL     1      13.451  27.586 -10.603  1.00  0.00    -0.411 N
ATOM     33  H32 UNL     1      14.224  27.429  -9.956  1.00  0.00     0.155 HD
ATOM     34  H31 UNL     1      13.624  27.639 -11.606  1.00  0.00     0.155 HD
ENDBRANCH  10  31
TORSDOF 7
ENDMDL