MODEL 5
REMARK VINA RESULT: -7.872716363      1.421      1.767
REMARK  7 active torsions:
REMARK  status: ('A' for Active; 'I' for Inactive)
REMARK    1  A    between atoms: C6_7  and  C7_8
REMARK    2  A    between atoms: C7_8  and  C8_9
REMARK    3  A    between atoms: C8_9  and  C9_10
REMARK    4  A    between atoms: C9_10  and  C10_11
REMARK    5  A    between atoms: C10_11  and  N2_12
REMARK    6  A    between atoms: N3_15  and  C12_16
REMARK    7  A    between atoms: C12_16  and  C13_17
ROOT
HETATM    1  N2  UNL     1      15.542  24.922   0.483  1.00  0.00    -0.309 N
HETATM    2  C11 UNL     1      15.119  25.511  -0.725  1.00  0.00     0.183 A
HETATM    3  S1  UNL     1      14.162  26.780  -1.179  1.00  0.00    -0.040 SA
HETATM    4  N3  UNL     1      15.907  24.551  -1.466  1.00  0.00    -0.309 N
HETATM    5  C18 UNL     1      16.331  23.962  -0.273  1.00  0.00     0.116 A
HETATM    6  C19 UNL     1      17.105  22.956   0.029  1.00  0.00    -0.035 C
HETATM    7  C20 UNL     1      17.334  22.574   1.476  1.00  0.00     0.038 C
HETATM    8  C21 UNL     1      18.044  21.213   1.508  1.00  0.00     0.004 C
HETATM    9  C22 UNL     1      19.366  21.239   0.814  1.00  0.00     0.001 C
HETATM   10  C23 UNL     1      19.306  22.028  -0.467  1.00  0.00     0.004 C
HETATM   11  C24 UNL     1      17.830  22.085  -0.895  1.00  0.00     0.038 C
ENDROOT
BRANCH   1  12
HETATM   12  C10 UNL     1      15.323  25.092   1.890  1.00  0.00     0.133 C
BRANCH  12  13
HETATM   13  C9  UNL     1      14.250  25.985   2.321  1.00  0.00     0.020 C
BRANCH  13  14
HETATM   14  C8  UNL     1      14.533  27.237   3.060  1.00  0.00     0.004 C
BRANCH  14  15
HETATM   15  C7  UNL     1      15.512  27.099   4.164  1.00  0.00     0.036 C
BRANCH  15  16
HETATM   16  C6  UNL     1      15.856  28.404   4.807  1.00  0.00     0.222 C
HETATM   17  N1  UNL     1      16.314  29.450   3.983  1.00  0.00     0.088 N
HETATM   18  C1  UNL     1      15.268  30.248   3.353  1.00  0.00     0.310 C
HETATM   19  C2  UNL     1      17.230  30.310   4.701  1.00  0.00     0.272 C
HETATM   20  C3  UNL     1      18.552  29.579   4.843  1.00  0.00     0.030 C
HETATM   21  C4  UNL     1      18.300  28.172   5.378  1.00  0.00     0.004 C
HETATM   22  C5  UNL     1      16.878  28.170   5.936  1.00  0.00     0.036 C
ENDBRANCH  15  16
ENDBRANCH  14  15
ENDBRANCH  13  14
ENDBRANCH  12  13
ENDBRANCH   1  12
BRANCH   4  23
HETATM   23  C12 UNL     1      16.018  24.470  -2.905  1.00  0.00     0.137 C
BRANCH  23  24
HETATM   24  C13 UNL     1      16.836  25.624  -3.456  1.00  0.00     0.007 C
HETATM   25  C14 UNL     1      17.158  25.419  -4.909  1.00  0.00     0.025 C
HETATM   26  C15 UNL     1      18.448  24.698  -5.128  1.00  0.00     0.114 C
HETATM   27  N4  UNL     1      18.928  23.938  -4.024  1.00  0.00    -0.421 N
HETATM   28  C16 UNL     1      19.039  24.658  -2.794  1.00  0.00     0.114 C
ATOM     29  H4  UNL     1      19.176  22.952  -4.105  1.00  0.00     0.153 HD
HETATM   30  C17 UNL     1      18.111  25.828  -2.700  1.00  0.00     0.025 C
ENDBRANCH  23  24
ENDBRANCH   4  23
TORSDOF 7
ENDMDL