MODEL 1
REMARK VINA RESULT: -8.032581132      0.000      0.000
REMARK  11 active torsions:
REMARK  status: ('A' for Active; 'I' for Inactive)
REMARK    1  A    between atoms: C2_2  and  C3_3
REMARK    2  A    between atoms: C3_3  and  C5_5
REMARK    3  A    between atoms: C6_6  and  C7_7
REMARK    4  A    between atoms: C7_7  and  C8_8
REMARK    5  A    between atoms: C7_7  and  N1_10
REMARK       I    between atoms: N1_10  and  C10_12
REMARK    6  A    between atoms: C10_12  and  C11_14
REMARK    7  A    between atoms: N2_18  and  C15_19
REMARK    8  A    between atoms: C15_19  and  O2_20
REMARK    9  A    between atoms: C15_19  and  N3_22
REMARK       I    between atoms: N3_22  and  C16_23
REMARK   10  A    between atoms: N3_22  and  C21_31
REMARK       I    between atoms: C16_23  and  N4_25
REMARK   11  A    between atoms: N4_25  and  C17_27
ROOT
HETATM    1  C11 UNL     1      14.529  25.830  -1.904  1.00  0.00     0.179 C
HETATM    2  C12 UNL     1      14.745  26.736  -3.091  1.00  0.00     0.037 C
HETATM    3  C13 UNL     1      16.123  27.260  -2.759  1.00  0.00     0.022 C
HETATM    4  C14 UNL     1      16.021  27.523  -1.272  1.00  0.00     0.127 C
HETATM    5  N2  UNL     1      15.016  26.659  -0.754  1.00  0.00    -0.334 N
ENDROOT
BRANCH   5   6
HETATM    6  C15 UNL     1      14.438  26.471   0.504  1.00  0.00     0.226 C
BRANCH   6   7
HETATM    7  O2  UNL     1      13.271  25.814   0.377  1.00  0.00    -0.332 OA
ATOM      8  H2  UNL     1      12.791  25.848   1.196  1.00  0.00     0.221 HD
ENDBRANCH   6   7
BRANCH   6   9
HETATM    9  N3  UNL     1      14.713  26.763   1.825  1.00  0.00    -0.261 N
HETATM   10  C16 UNL     1      14.962  27.985   2.416  1.00  0.00     0.326 C
HETATM   11  O3  UNL     1      14.953  29.062   1.718  1.00  0.00    -0.247 OA
HETATM   12  N4  UNL     1      15.247  28.178   3.814  1.00  0.00    -0.335 N
ATOM     13  H4  UNL     1      15.268  27.371   4.438  1.00  0.00     0.165 HD
BRANCH  12  14
HETATM   14  C17 UNL     1      15.506  29.506   4.351  1.00  0.00     0.023 C
HETATM   15  C18 UNL     1      16.145  29.425   5.718  1.00  0.00     0.037 C
HETATM   16  C19 UNL     1      16.524  30.232   3.460  1.00  0.00     0.037 C
HETATM   17  C20 UNL     1      14.290  30.373   4.431  1.00  0.00     0.037 C
ENDBRANCH  12  14
BRANCH   9  18
HETATM   18  C21 UNL     1      14.767  25.580   2.742  1.00  0.00     0.090 C
HETATM   19  C22 UNL     1      15.492  24.443   2.039  1.00  0.00     0.032 C
HETATM   20  C23 UNL     1      15.520  26.002   4.010  1.00  0.00     0.032 C
ENDBRANCH   9  18
ENDBRANCH   6   9
ENDBRANCH   5   6
BRANCH   1  21
HETATM   21  C10 UNL     1      15.330  24.624  -2.054  1.00  0.00     0.241 C
HETATM   22  N1  UNL     1      16.410  24.265  -1.214  1.00  0.00    -0.351 N
ATOM     23  H1  UNL     1      16.660  24.888  -0.446  1.00  0.00     0.163 HD
HETATM   24  O1  UNL     1      15.050  23.817  -3.008  1.00  0.00    -0.271 OA
BRANCH  22  25
HETATM   25  C7  UNL     1      17.193  23.025  -1.404  1.00  0.00     0.107 C
BRANCH  25  26
HETATM   26  C6  UNL     1      18.626  23.329  -1.509  1.00  0.00    -0.006 C
HETATM   27  C5  UNL     1      19.298  24.123  -2.253  1.00  0.00    -0.024 C
BRANCH  27  28
HETATM   28  C3  UNL     1      19.002  25.069  -3.314  1.00  0.00     0.003 C
HETATM   29  C4  UNL     1      18.203  24.650  -4.481  1.00  0.00     0.014 C
BRANCH  28  30
HETATM   30  C2  UNL     1      20.321  25.639  -3.884  1.00  0.00     0.003 C
HETATM   31  C1  UNL     1      21.440  25.478  -2.879  1.00  0.00     0.006 C
ENDBRANCH  28  30
ENDBRANCH  27  28
ENDBRANCH  25  26
BRANCH  25  32
HETATM   32  C8  UNL     1      16.899  22.082  -0.241  1.00  0.00     0.025 C
HETATM   33  C9  UNL     1      18.100  21.854   0.643  1.00  0.00     0.007 C
ENDBRANCH  25  32
ENDBRANCH  22  25
ENDBRANCH   1  21
TORSDOF 11
ENDMDL