MODEL 5
REMARK VINA RESULT: -8.309184744      1.588      2.900
REMARK  8 active torsions:
REMARK  status: ('A' for Active; 'I' for Inactive)
REMARK    1  A    between atoms: C4_4  and  N1_5
REMARK       I    between atoms: N1_5  and  C5_7
REMARK    2  A    between atoms: C5_7  and  C6_9
REMARK    3  A    between atoms: C6_9  and  C7_10
REMARK    4  A    between atoms: C7_10  and  C8_11
REMARK    5  A    between atoms: C8_11  and  C9_12
REMARK    6  A    between atoms: C9_12  and  C10_13
REMARK    7  A    between atoms: C10_13  and  C11_14
REMARK    8  A    between atoms: C11_14  and  C12_15
REMARK       I    between atoms: C12_15  and  N2_17
ROOT
HETATM    1  C10 UNL     1      17.552  22.464  -1.097  1.00  0.00     0.009 C
ENDROOT
BRANCH   1   2
HETATM    2  C9  UNL     1      18.794  22.145  -0.353  1.00  0.00     0.000 C
BRANCH   2   3
HETATM    3  C8  UNL     1      18.500  21.625   1.019  1.00  0.00     0.000 C
BRANCH   3   4
HETATM    4  C7  UNL     1      17.091  21.932   1.406  1.00  0.00     0.009 C
BRANCH   4   5
HETATM    5  C6  UNL     1      17.020  23.074   2.416  1.00  0.00     0.103 C
BRANCH   5   6
HETATM    6  C5  UNL     1      15.752  23.018   3.168  1.00  0.00     0.223 C
HETATM    7  N1  UNL     1      14.762  23.954   3.227  1.00  0.00    -0.312 N
ATOM      8  H1  UNL     1      13.943  23.656   3.757  1.00  0.00     0.170 HD
HETATM    9  O1  UNL     1      15.581  21.935   3.849  1.00  0.00    -0.273 OA
BRANCH   7  10
HETATM   10  C4  UNL     1      14.668  25.115   2.754  1.00  0.00     0.124 A
HETATM   11  C3  UNL     1      15.049  26.311   3.290  1.00  0.00     0.076 A
HETATM   12  C2  UNL     1      14.717  27.287   2.345  1.00  0.00     0.025 A
HETATM   13  C1  UNL     1      14.971  28.730   2.553  1.00  0.00     0.070 C
HETATM   14  N4  UNL     1      14.163  26.673   1.295  1.00  0.00    -0.304 N
HETATM   15  N3  UNL     1      14.125  25.398   1.514  1.00  0.00    -0.285 N
ATOM     16  H4  UNL     1      13.824  27.136   0.453  1.00  0.00     0.186 HD
ATOM     17  H3  UNL     1      13.749  24.705   0.867  1.00  0.00     0.188 HD
ENDBRANCH   7  10
ENDBRANCH   5   6
ENDBRANCH   4   5
ENDBRANCH   3   4
ENDBRANCH   2   3
ENDBRANCH   1   2
BRANCH   1  18
HETATM   18  C11 UNL     1      17.674  23.777  -1.837  1.00  0.00     0.103 C
BRANCH  18  19
HETATM   19  C12 UNL     1      16.451  24.608  -1.568  1.00  0.00     0.219 C
HETATM   20  O2  UNL     1      16.087  24.790  -0.380  1.00  0.00    -0.273 OA
HETATM   21  N2  UNL     1      15.737  25.170  -2.655  1.00  0.00    -0.351 N
HETATM   22  C13 UNL     1      16.181  24.939  -4.017  1.00  0.00     0.131 C
HETATM   23  C20 UNL     1      14.566  25.969  -2.381  1.00  0.00     0.135 C
HETATM   24  C14 UNL     1      16.005  26.128  -4.898  1.00  0.00     0.013 C
HETATM   25  C15 UNL     1      15.006  25.774  -5.987  1.00  0.00     0.007 C
HETATM   26  C21 UNL     1      15.554  27.354  -4.129  1.00  0.00    -0.026 C
HETATM   27  C16 UNL     1      13.628  25.553  -5.404  1.00  0.00     0.001 C
HETATM   28  C17 UNL     1      13.225  26.563  -4.393  1.00  0.00     0.011 C
HETATM   29  C18 UNL     1      14.271  26.999  -3.430  1.00  0.00    -0.020 C
HETATM   30  C19 UNL     1      13.701  28.216  -2.688  1.00  0.00     0.018 C
HETATM   31  C22 UNL     1      16.647  27.764  -3.208  1.00  0.00     0.011 C
HETATM   32  C25 UNL     1      15.390  28.504  -5.080  1.00  0.00     0.011 C
HETATM   33  C23 UNL     1      17.177  29.104  -3.666  1.00  0.00     0.001 C
HETATM   34  C24 UNL     1      15.985  29.702  -4.372  1.00  0.00     0.001 C
ENDBRANCH  18  19
ENDBRANCH   1  18
TORSDOF 8
ENDMDL