MODEL 1
REMARK VINA RESULT: -7.826602997      0.000      0.000
REMARK  6 active torsions:
REMARK  status: ('A' for Active; 'I' for Inactive)
REMARK    1  A    between atoms: N1_6  and  C6_7
REMARK    2  A    between atoms: C6_7  and  C7_8
REMARK    3  A    between atoms: C7_8  and  C8_9
REMARK    4  A    between atoms: C8_9  and  N2_10
REMARK       I    between atoms: N2_10  and  C9_12
REMARK       I    between atoms: C9_12  and  N3_14
REMARK    5  A    between atoms: N3_14  and  C10_16
REMARK    6  A    between atoms: C21_27  and  N4_28
ROOT
HETATM    1  C8  UNL     1      13.123  27.839  -3.275  1.00  0.00     0.126 C
ENDROOT
BRANCH   1   2
HETATM    2  C7  UNL     1      14.355  27.587  -2.434  1.00  0.00     0.048 C
BRANCH   2   3
HETATM    3  C6  UNL     1      14.357  26.204  -1.884  1.00  0.00     0.239 C
BRANCH   3   4
HETATM    4  N1  UNL     1      15.530  25.464  -2.029  1.00  0.00    -0.061 N
HETATM    5  C2  UNL     1      15.640  24.623  -3.192  1.00  0.00     0.192 C
HETATM    6  C1  UNL     1      15.668  25.381  -4.487  1.00  0.00     0.041 C
HETATM    7  C3  UNL     1      17.034  24.046  -2.865  1.00  0.00     0.053 C
HETATM    8  C4  UNL     1      17.805  25.338  -2.735  1.00  0.00     0.037 C
HETATM    9  C21 UNL     1      16.695  23.448  -1.525  1.00  0.00     0.255 C
HETATM   10  C5  UNL     1      16.751  26.264  -2.146  1.00  0.00     0.238 C
HETATM   11  C20 UNL     1      15.791  24.515  -0.939  1.00  0.00     0.274 C
BRANCH   9  12
HETATM   12  N4  UNL     1      17.846  23.191  -0.703  1.00  0.00     0.095 N
HETATM   13  C22 UNL     1      17.369  22.845   0.623  1.00  0.00     0.273 C
HETATM   14  C23 UNL     1      17.919  21.542   1.115  1.00  0.00     0.030 C
HETATM   15  C24 UNL     1      19.402  21.416   1.001  1.00  0.00     0.003 C
HETATM   16  C25 UNL     1      19.853  21.968  -0.329  1.00  0.00     0.030 C
HETATM   17  C26 UNL     1      18.603  22.092  -1.203  1.00  0.00     0.273 C
ENDBRANCH   9  12
ENDBRANCH   3   4
ENDBRANCH   2   3
ENDBRANCH   1   2
BRANCH   1  18
HETATM   18  N2  UNL     1      12.155  26.756  -3.160  1.00  0.00    -0.343 N
HETATM   19  C9  UNL     1      11.740  26.089  -4.333  1.00  0.00     0.316 C
HETATM   20  O1  UNL     1      12.202  26.428  -5.462  1.00  0.00    -0.247 OA
HETATM   21  N3  UNL     1      10.798  25.034  -4.231  1.00  0.00    -0.338 N
ATOM     22  H3  UNL     1      10.426  24.759  -3.322  1.00  0.00     0.164 HD
ATOM     23  H2  UNL     1      11.783  26.485  -2.250  1.00  0.00     0.164 HD
BRANCH  21  24
HETATM   24  C10 UNL     1      10.378  24.357  -5.426  1.00  0.00     0.094 C
HETATM   25  C11 UNL     1      10.751  22.891  -5.359  1.00  0.00     0.009 C
HETATM   26  C12 UNL     1      10.037  22.173  -4.248  1.00  0.00     0.011 C
HETATM   27  C16 UNL     1      10.370  22.253  -6.673  1.00  0.00     0.011 C
HETATM   28  C13 UNL     1       8.546  22.265  -4.456  1.00  0.00    -0.013 C
HETATM   29  C14 UNL     1       8.164  21.636  -5.760  1.00  0.00     0.009 C
HETATM   30  C19 UNL     1       8.168  23.729  -4.462  1.00  0.00     0.011 C
HETATM   31  C15 UNL     1       8.886  22.355  -6.886  1.00  0.00    -0.013 C
HETATM   32  C17 UNL     1       8.488  23.806  -6.888  1.00  0.00     0.011 C
HETATM   33  C18 UNL     1       8.890  24.443  -5.594  1.00  0.00     0.009 C
ENDBRANCH  21  24
ENDBRANCH   1  18
TORSDOF 6
ENDMDL