MODEL 2
REMARK VINA RESULT: -6.411404658      4.460      8.421
REMARK  10 active torsions:
REMARK  status: ('A' for Active; 'I' for Inactive)
REMARK    1  A    between atoms: C2_2  and  C3_3
REMARK    2  A    between atoms: C4_4  and  C5_5
REMARK    3  A    between atoms: C5_5  and  C6_6
REMARK    4  A    between atoms: C6_6  and  C7_7
REMARK    5  A    between atoms: C7_7  and  C8_8
REMARK    6  A    between atoms: C11_11  and  C12_12
REMARK    7  A    between atoms: C12_12  and  C13_13
REMARK    8  A    between atoms: C13_13  and  C14_14
REMARK       I    between atoms: N2_20  and  C16_22
REMARK    9  A    between atoms: C16_22  and  C17_24
REMARK   10  A    between atoms: C17_24  and  C18_25
ROOT
HETATM    1  C3  UNL     1      17.730  23.152  -2.396  1.00  0.00     0.014 A
HETATM    2  C4  UNL     1      19.047  23.186  -1.952  1.00  0.00    -0.041 A
HETATM    3  C10 UNL     1      19.772  24.346  -2.074  1.00  0.00     0.047 A
HETATM    4  C11 UNL     1      19.206  25.470  -2.632  1.00  0.00     0.089 A
HETATM    5  N1  UNL     1      17.932  25.399  -3.050  1.00  0.00    -0.335 N
ATOM      6  H1  UNL     1      17.509  26.231  -3.463  1.00  0.00     0.168 HD
HETATM    7  C15 UNL     1      17.188  24.287  -2.949  1.00  0.00     0.119 A
HETATM    8  N2  UNL     1      15.963  24.325  -3.360  1.00  0.00    -0.312 N
ATOM      9  H2  UNL     1      15.360  23.505  -3.283  1.00  0.00     0.170 HD
HETATM   10  C16 UNL     1      15.479  25.533  -3.920  1.00  0.00     0.224 C
HETATM   11  O3  UNL     1      15.529  25.707  -5.166  1.00  0.00    -0.273 OA
ENDROOT
BRANCH   1  12
HETATM   12  C2  UNL     1      16.955  21.906  -2.229  1.00  0.00     0.005 C
HETATM   13  C1  UNL     1      15.980  21.675  -1.425  1.00  0.00     0.012 C
ENDBRANCH   1  12
BRANCH   2  14
HETATM   14  C5  UNL     1      19.683  21.958  -1.360  1.00  0.00     0.040 C
BRANCH  14  15
HETATM   15  C6  UNL     1      19.936  22.193   0.097  1.00  0.00     0.005 C
BRANCH  15  16
HETATM   16  C7  UNL     1      18.892  21.496   0.917  1.00  0.00    -0.000 C
BRANCH  16  17
HETATM   17  C8  UNL     1      18.025  22.504   1.610  1.00  0.00    -0.005 C
HETATM   18  C9  UNL     1      16.746  21.758   2.003  1.00  0.00     0.005 C
ENDBRANCH  16  17
ENDBRANCH  15  16
ENDBRANCH  14  15
ENDBRANCH   2  14
BRANCH   4  19
HETATM   19  C12 UNL     1      19.956  26.683  -2.764  1.00  0.00    -0.037 C
BRANCH  19  20
HETATM   20  C13 UNL     1      20.578  27.708  -2.892  1.00  0.00     0.012 C
BRANCH  20  21
HETATM   21  C14 UNL     1      21.318  28.932  -3.069  1.00  0.00     0.258 C
HETATM   22  O1  UNL     1      21.315  29.522  -4.178  1.00  0.00    -0.637 OA
HETATM   23  O2  UNL     1      22.052  29.481  -2.001  1.00  0.00    -0.637 OA
ENDBRANCH  20  21
ENDBRANCH  19  20
ENDBRANCH   4  19
BRANCH  10  24
HETATM   24  C17 UNL     1      14.927  26.571  -3.059  1.00  0.00     0.112 C
BRANCH  24  25
HETATM   25  C18 UNL     1      15.137  27.928  -3.682  1.00  0.00    -0.031 C
HETATM   26  C19 UNL     1      16.528  28.064  -4.222  1.00  0.00     0.014 C
HETATM   27  C20 UNL     1      16.735  29.490  -4.735  1.00  0.00    -0.013 C
HETATM   28  C21 UNL     1      16.554  30.439  -3.597  1.00  0.00     0.009 C
HETATM   29  C25 UNL     1      15.736  29.687  -5.847  1.00  0.00     0.009 C
HETATM   30  C22 UNL     1      15.140  30.304  -3.073  1.00  0.00    -0.013 C
HETATM   31  C23 UNL     1      14.179  30.579  -4.181  1.00  0.00     0.009 C
HETATM   32  C27 UNL     1      14.953  28.927  -2.539  1.00  0.00     0.014 C
HETATM   33  C24 UNL     1      14.328  29.581  -5.302  1.00  0.00    -0.013 C
HETATM   34  C26 UNL     1      14.096  28.200  -4.727  1.00  0.00     0.014 C
ENDBRANCH  24  25
ENDBRANCH  10  24
TORSDOF 10
ENDMDL