MODEL 4
REMARK VINA RESULT: -8.884703142      3.842      8.258
REMARK  7 active torsions:
REMARK  status: ('A' for Active; 'I' for Inactive)
REMARK    1  A    between atoms: C3_3  and  C4_4
REMARK    2  A    between atoms: C7_7  and  C8_8
REMARK    3  A    between atoms: C8_8  and  C9_9
REMARK    4  A    between atoms: C9_9  and  N1_10
REMARK    5  A    between atoms: C12_13  and  C13_14
REMARK    6  A    between atoms: C13_14  and  N2_15
REMARK       I    between atoms: N2_15  and  C14_17
REMARK       I    between atoms: C14_17  and  N3_19
REMARK    7  A    between atoms: N3_19  and  C15_21
ROOT
HETATM    1  C1  UNL     1      16.379  30.231   4.467  1.00  0.00     0.012 C
HETATM    2  C2  UNL     1      16.527  29.335   5.270  1.00  0.00    -0.113 C
HETATM    3  C3  UNL     1      16.733  28.243   6.237  1.00  0.00     0.131 C
ENDROOT
BRANCH   3   4
HETATM    4  C4  UNL     1      17.000  27.008   5.435  1.00  0.00    -0.047 A
HETATM    5  C5  UNL     1      16.024  26.444   4.642  1.00  0.00     0.008 A
HETATM    6  C6  UNL     1      16.257  25.303   3.891  1.00  0.00     0.007 A
HETATM    7  C7  UNL     1      17.478  24.684   3.907  1.00  0.00    -0.057 A
HETATM    8  C27 UNL     1      18.464  25.253   4.708  1.00  0.00     0.007 A
HETATM    9  C28 UNL     1      18.238  26.390   5.457  1.00  0.00     0.008 A
BRANCH   7  10
HETATM   10  C8  UNL     1      17.844  23.470   3.161  1.00  0.00     0.058 C
BRANCH  10  11
HETATM   11  C9  UNL     1      16.656  22.744   2.580  1.00  0.00     0.126 C
BRANCH  11  12
HETATM   12  N1  UNL     1      17.137  21.921   1.500  1.00  0.00    -0.393 N
HETATM   13  C10 UNL     1      18.544  21.998   1.402  1.00  0.00     0.122 C
HETATM   14  C11 UNL     1      19.090  21.952  -0.013  1.00  0.00     0.026 C
HETATM   15  C12 UNL     1      18.336  22.932  -0.860  1.00  0.00     0.010 C
HETATM   16  C25 UNL     1      16.863  22.673  -0.844  1.00  0.00     0.050 C
HETATM   17  C26 UNL     1      16.364  21.895   0.324  1.00  0.00     0.058 C
BRANCH  15  18
HETATM   18  C13 UNL     1      18.905  22.938  -2.255  1.00  0.00     0.129 C
BRANCH  18  19
HETATM   19  N2  UNL     1      17.931  23.445  -3.178  1.00  0.00    -0.343 N
HETATM   20  C14 UNL     1      17.533  24.811  -3.144  1.00  0.00     0.316 C
HETATM   21  O1  UNL     1      18.045  25.549  -2.284  1.00  0.00    -0.247 OA
HETATM   22  N3  UNL     1      16.583  25.283  -4.074  1.00  0.00    -0.334 N
ATOM     23  H3  UNL     1      16.209  24.616  -4.749  1.00  0.00     0.165 HD
ATOM     24  H2  UNL     1      17.519  22.817  -3.869  1.00  0.00     0.164 HD
BRANCH  22  25
HETATM   25  C15 UNL     1      16.102  26.649  -4.140  1.00  0.00     0.035 C
HETATM   26  C16 UNL     1      17.212  27.650  -3.954  1.00  0.00     0.035 C
HETATM   27  C17 UNL     1      16.610  29.052  -3.987  1.00  0.00    -0.012 C
HETATM   28  C18 UNL     1      16.000  29.265  -5.336  1.00  0.00     0.009 C
HETATM   29  C22 UNL     1      15.603  29.183  -2.855  1.00  0.00     0.009 C
HETATM   30  C19 UNL     1      14.891  28.262  -5.558  1.00  0.00    -0.012 C
HETATM   31  C20 UNL     1      13.845  28.488  -4.494  1.00  0.00     0.009 C
HETATM   32  C24 UNL     1      15.406  26.866  -5.489  1.00  0.00     0.035 C
HETATM   33  C21 UNL     1      14.467  28.251  -3.151  1.00  0.00    -0.012 C
HETATM   34  C23 UNL     1      15.027  26.826  -3.102  1.00  0.00     0.035 C
ENDBRANCH  22  25
ENDBRANCH  18  19
ENDBRANCH  15  18
ENDBRANCH  11  12
ENDBRANCH  10  11
ENDBRANCH   7  10
ENDBRANCH   3   4
TORSDOF 7
ENDMDL