MODEL 3
REMARK VINA RESULT: -7.687847009      3.697      6.301
REMARK  7 active torsions:
REMARK  status: ('A' for Active; 'I' for Inactive)
REMARK    1  A    between atoms: C12_15  and  C13_16
REMARK    2  A    between atoms: C13_16  and  C14_17
REMARK       I    between atoms: C14_17  and  N2_19
REMARK    3  A    between atoms: N2_19  and  C15_21
REMARK    4  A    between atoms: C15_21  and  C16_22
REMARK    5  A    between atoms: C16_22  and  C17_23
REMARK    6  A    between atoms: C17_23  and  C18_24
REMARK    7  A    between atoms: C18_24  and  N3_25
ROOT
HETATM    1  C1  UNL     1      16.579  31.375  -6.860  1.00  0.00     0.040 C
HETATM    2  C2  UNL     1      15.185  30.950  -6.567  1.00  0.00     0.189 C
HETATM    3  N1  UNL     1      14.952  29.496  -6.599  1.00  0.00    -0.061 N
ATOM      4  H11 UNL     1      15.724  28.833  -6.519  1.00  0.00     0.278 HD
ATOM      5  H12 UNL     1      14.671  29.022  -7.457  1.00  0.00     0.278 HD
HETATM    6  C3  UNL     1      14.026  29.700  -5.517  1.00  0.00     0.132 C
HETATM    7  C4  UNL     1      12.626  30.084  -5.949  1.00  0.00     0.047 C
HETATM    8  C5  UNL     1      14.832  30.870  -5.081  1.00  0.00     0.052 C
HETATM    9  C6  UNL     1      15.951  30.583  -4.163  1.00  0.00     0.010 C
HETATM   10  C7  UNL     1      16.384  29.173  -4.064  1.00  0.00     0.006 C
HETATM   11  C8  UNL     1      15.333  28.146  -4.042  1.00  0.00    -0.003 C
HETATM   12  C9  UNL     1      15.181  27.440  -2.728  1.00  0.00    -0.002 C
HETATM   13  C10 UNL     1      14.951  28.370  -1.576  1.00  0.00     0.006 C
HETATM   14  C11 UNL     1      15.337  27.576  -0.320  1.00  0.00     0.005 C
HETATM   15  C12 UNL     1      14.584  26.299  -0.253  1.00  0.00    -0.005 C
HETATM   16  C22 UNL     1      13.595  26.079  -1.346  1.00  0.00     0.014 C
HETATM   17  C23 UNL     1      14.114  26.403  -2.729  1.00  0.00    -0.040 C
HETATM   18  C24 UNL     1      14.721  25.116  -3.289  1.00  0.00     0.015 C
HETATM   19  C25 UNL     1      12.912  26.708  -3.557  1.00  0.00     0.010 C
HETATM   20  C26 UNL     1      13.163  27.453  -4.811  1.00  0.00     0.008 C
HETATM   21  C27 UNL     1      13.990  28.683  -4.444  1.00  0.00     0.026 C
ENDROOT
BRANCH  15  22
HETATM   22  C13 UNL     1      13.845  26.262   1.070  1.00  0.00     0.107 C
BRANCH  22  23
HETATM   23  C14 UNL     1      14.649  25.610   2.144  1.00  0.00     0.217 C
HETATM   24  O1  UNL     1      15.356  26.300   2.924  1.00  0.00    -0.274 OA
HETATM   25  N2  UNL     1      14.597  24.220   2.262  1.00  0.00    -0.361 N
ATOM     26  H2  UNL     1      14.006  23.702   1.611  1.00  0.00     0.162 HD
BRANCH  25  27
HETATM   27  C15 UNL     1      15.321  23.486   3.240  1.00  0.00     0.122 C
BRANCH  27  28
HETATM   28  C16 UNL     1      15.967  22.265   2.655  1.00  0.00     0.021 C
BRANCH  28  29
HETATM   29  C17 UNL     1      17.044  22.635   1.647  1.00  0.00     0.029 C
BRANCH  29  30
HETATM   30  C18 UNL     1      16.860  21.748   0.418  1.00  0.00     0.236 C
BRANCH  30  31
HETATM   31  N3  UNL     1      17.196  22.462  -0.792  1.00  0.00    -0.079 N
HETATM   32  C19 UNL     1      18.575  22.262  -1.142  1.00  0.00     0.271 C
HETATM   33  C20 UNL     1      16.957  23.882  -0.651  1.00  0.00     0.271 C
HETATM   34  C21 UNL     1      16.332  21.927  -1.853  1.00  0.00     0.271 C
ENDBRANCH  30  31
ENDBRANCH  29  30
ENDBRANCH  28  29
ENDBRANCH  27  28
ENDBRANCH  25  27
ENDBRANCH  22  23
ENDBRANCH  15  22
TORSDOF 7
ENDMDL