MODEL 2
REMARK VINA RESULT: -3.623703641      2.971      3.456
REMARK  0 active torsions:
REMARK  status: ('A' for Active; 'I' for Inactive)
ROOT
HETATM    1  N1  UNL     1     -15.059 -37.056 -30.197  1.00  0.00    -0.388 N
ATOM      2  H11 UNL     1     -15.487 -36.194 -30.533  1.00  0.00     0.157 HD
ATOM      3  H12 UNL     1     -14.305 -37.484 -30.736  1.00  0.00     0.157 HD
HETATM    4  C1  UNL     1     -15.474 -37.579 -29.109  1.00  0.00     0.101 C
HETATM    5  S1  UNL     1     -14.725 -39.086 -28.521  1.00  0.00    -0.104 SA
HETATM    6  C2  UNL     1     -15.523 -39.440 -26.906  1.00  0.00     0.102 C
HETATM    7  C3  UNL     1     -17.000 -39.320 -26.964  1.00  0.00     0.101 C
HETATM    8 CL1  UNL     1     -17.656 -40.123 -25.494  1.00  0.00    -0.123 Cl
HETATM    9  C4  UNL     1     -17.525 -37.920 -26.968  1.00  0.00     0.102 C
HETATM   10  S2  UNL     1     -16.773 -36.842 -28.180  1.00  0.00    -0.104 SA
ENDROOT
TORSDOF 0
ENDMDL