MODEL 3
REMARK VINA RESULT: -3.719764228      3.064      3.417
REMARK  0 active torsions:
REMARK  status: ('A' for Active; 'I' for Inactive)
ROOT
HETATM    1  N1  UNL     1     -17.350 -32.672 -28.235  1.00  0.00    -0.379 N
ATOM      2  H11 UNL     1     -17.233 -32.545 -29.240  1.00  0.00     0.158 HD
ATOM      3  H12 UNL     1     -17.547 -31.884 -27.617  1.00  0.00     0.158 HD
HETATM    4  C1  UNL     1     -17.242 -33.863 -27.760  1.00  0.00     0.145 C
HETATM    5  N2  UNL     1     -17.404 -34.039 -26.355  1.00  0.00    -0.352 N
ATOM      6  H2  UNL     1     -17.620 -33.251 -25.744  1.00  0.00     0.163 HD
HETATM    7  C2  UNL     1     -17.252 -35.380 -25.827  1.00  0.00     0.191 C
HETATM    8 CL1  UNL     1     -18.280 -36.443 -26.841  1.00  0.00    -0.102 Cl
HETATM    9  C3  UNL     1     -15.779 -35.779 -25.986  1.00  0.00     0.127 C
HETATM   10  S1  UNL     1     -15.692 -36.577 -27.641  1.00  0.00    -0.086 SA
HETATM   11  S2  UNL     1     -16.894 -35.255 -28.853  1.00  0.00    -0.022 SA
ENDROOT
TORSDOF 0
ENDMDL