MODEL 2
REMARK VINA RESULT: -4.338517959      2.613      2.893
REMARK  1 active torsions:
REMARK  status: ('A' for Active; 'I' for Inactive)
REMARK    1  A    between atoms: O1_1  and  N1_3
ROOT
HETATM    1  N1  UNL     1     -17.930 -36.731 -28.766  1.00  0.00    -0.275 N
ATOM      2  H1  UNL     1     -18.165 -37.615 -29.216  1.00  0.00     0.193 HD
HETATM    3  C1  UNL     1     -17.558 -36.800 -27.560  1.00  0.00     0.038 C
HETATM    4  C2  UNL     1     -17.502 -38.141 -26.929  1.00  0.00     0.058 C
HETATM    5  C3  UNL     1     -16.167 -38.495 -26.356  1.00  0.00     0.016 C
HETATM    6  C4  UNL     1     -15.586 -37.469 -25.442  1.00  0.00     0.076 C
HETATM    7  S1  UNL     1     -15.466 -35.844 -26.263  1.00  0.00    -0.143 SA
HETATM    8  C5  UNL     1     -17.199 -35.566 -26.827  1.00  0.00     0.190 C
HETATM    9 CL1  UNL     1     -17.320 -34.104 -27.754  1.00  0.00    -0.107 Cl
ENDROOT
BRANCH   1  10
HETATM   10  O1  UNL     1     -18.051 -35.630 -29.526  1.00  0.00    -0.290 OA
ATOM     11  H1  UNL     1     -17.503 -35.364 -30.255  1.00  0.00     0.244 HD
ENDBRANCH   1  10
TORSDOF 1
ENDMDL