MODEL 2
REMARK VINA RESULT: -4.416608560      1.638      2.260
REMARK  1 active torsions:
REMARK  status: ('A' for Active; 'I' for Inactive)
REMARK    1  A    between atoms: O1_1  and  N1_3
ROOT
HETATM    1  N1  UNL     1     -17.322 -33.561 -27.006  1.00  0.00    -0.267 N
ATOM      2  H1  UNL     1     -17.403 -33.118 -26.090  1.00  0.00     0.194 HD
HETATM    3  C1  UNL     1     -16.939 -34.785 -27.103  1.00  0.00     0.069 C
HETATM    4  C2  UNL     1     -16.621 -35.529 -25.865  1.00  0.00     0.086 C
HETATM    5  C3  UNL     1     -16.682 -36.999 -25.990  1.00  0.00     0.089 C
HETATM    6 CL1  UNL     1     -15.042 -37.728 -26.041  1.00  0.00    -0.125 Cl
HETATM    7  C4  UNL     1     -17.486 -37.524 -27.126  1.00  0.00     0.031 C
HETATM    8  C5  UNL     1     -16.733 -37.316 -28.448  1.00  0.00     0.082 C
HETATM    9  S1  UNL     1     -16.812 -35.521 -28.727  1.00  0.00    -0.115 SA
ENDROOT
BRANCH   1  10
HETATM   10  O1  UNL     1     -17.618 -32.865 -28.130  1.00  0.00    -0.289 OA
ATOM     11  H1  UNL     1     -18.524 -32.777 -28.401  1.00  0.00     0.244 HD
ENDBRANCH   1  10
TORSDOF 1
ENDMDL