MODEL 1
REMARK VINA RESULT: -4.451578420      0.000      0.000
REMARK  1 active torsions:
REMARK  status: ('A' for Active; 'I' for Inactive)
REMARK    1  A    between atoms: N1_8  and  O1_10
ROOT
HETATM    1  C1  UNL     1     -17.348 -39.556 -28.160  1.00  0.00     0.028 C
HETATM    2  C2  UNL     1     -17.406 -38.487 -27.134  1.00  0.00     0.092 C
HETATM    3  S1  UNL     1     -15.781 -38.213 -26.326  1.00  0.00    -0.138 SA
HETATM    4  C3  UNL     1     -15.946 -36.395 -26.120  1.00  0.00     0.149 C
HETATM    5 CL1  UNL     1     -16.067 -36.102 -24.359  1.00  0.00    -0.113 Cl
HETATM    6  C4  UNL     1     -17.290 -36.088 -26.742  1.00  0.00     0.086 C
HETATM    7  C5  UNL     1     -17.588 -37.129 -27.720  1.00  0.00     0.025 C
HETATM    8  N1  UNL     1     -17.964 -36.938 -28.943  1.00  0.00    -0.276 N
ATOM      9  H1  UNL     1     -18.146 -37.745 -29.539  1.00  0.00     0.193 HD
ENDROOT
BRANCH   8  10
HETATM   10  O1  UNL     1     -18.123 -35.669 -29.460  1.00  0.00    -0.290 OA
ATOM     11  H1  UNL     1     -18.264 -34.918 -28.896  1.00  0.00     0.244 HD
ENDBRANCH   8  10
TORSDOF 1
ENDMDL