MODEL 5
REMARK VINA RESULT: -4.484274247      2.988      3.545
REMARK  0 active torsions:
REMARK  status: ('A' for Active; 'I' for Inactive)
ROOT
HETATM    1  N1  UNL     1     -14.131 -39.240 -28.004  1.00  0.00    -0.393 N
ATOM      2  H11 UNL     1     -13.838 -39.644 -27.114  1.00  0.00     0.156 HD
ATOM      3  H12 UNL     1     -13.923 -39.712 -28.883  1.00  0.00     0.156 HD
HETATM    4  C1  UNL     1     -14.742 -38.174 -28.049  1.00  0.00     0.072 C
HETATM    5  C2  UNL     1     -15.180 -37.571 -29.378  1.00  0.00     0.087 C
HETATM    6  C3  UNL     1     -15.999 -36.467 -29.037  1.00  0.00    -0.153 C
HETATM    7  C4  UNL     1     -16.792 -35.357 -28.818  1.00  0.00     0.087 C
HETATM    8  C5  UNL     1     -16.840 -35.151 -27.266  1.00  0.00     0.043 C
HETATM    9  C6  UNL     1     -16.549 -36.348 -26.460  1.00  0.00     0.150 C
HETATM   10 CL1  UNL     1     -16.703 -35.778 -24.745  1.00  0.00    -0.113 Cl
HETATM   11  S1  UNL     1     -15.112 -37.335 -26.487  1.00  0.00    -0.092 SA
ENDROOT
TORSDOF 0
ENDMDL