MODEL 3
REMARK VINA RESULT: -3.209353992      2.220      2.862
REMARK  0 active torsions:
REMARK  status: ('A' for Active; 'I' for Inactive)
ROOT
HETATM    1  C1  UNL     1     -17.481 -34.650 -26.126  1.00  0.00     0.012 C
HETATM    2  C2  UNL     1     -16.240 -34.879 -25.332  1.00  0.00     0.012 C
HETATM    3  C3  UNL     1     -16.244 -36.308 -24.811  1.00  0.00     0.087 C
HETATM    4  S1  UNL     1     -16.127 -37.527 -26.114  1.00  0.00    -0.086 SA
HETATM    5  S2  UNL     1     -17.522 -37.336 -27.642  1.00  0.00    -0.025 SA
HETATM    6  S3  UNL     1     -17.346 -35.513 -28.725  1.00  0.00    -0.086 SA
HETATM    7  C4  UNL     1     -17.182 -34.152 -27.531  1.00  0.00     0.087 C
ENDROOT
TORSDOF 0
ENDMDL