MODEL 3
REMARK VINA RESULT: -4.712238192      2.896      4.305
REMARK  3 active torsions:
REMARK  status: ('A' for Active; 'I' for Inactive)
REMARK    1  A    between atoms: N1_8  and  C6_9
REMARK    2  A    between atoms: C6_9  and  C7_10
REMARK    3  A    between atoms: C7_10  and  C8_11
ROOT
HETATM    1  C1  UNL     1     -17.544 -34.995 -26.097  1.00  0.00     0.074 C
HETATM    2  C2  UNL     1     -17.264 -35.938 -27.160  1.00  0.00     0.169 C
HETATM    3  C3  UNL     1     -16.415 -35.447 -28.312  1.00  0.00     0.068 C
HETATM    4  C4  UNL     1     -15.860 -36.738 -28.917  1.00  0.00     0.062 C
HETATM    5  C5  UNL     1     -16.618 -37.787 -28.109  1.00  0.00     0.264 C
HETATM    6  O1  UNL     1     -17.961 -37.600 -28.405  1.00  0.00    -0.212 OA
HETATM    7  O2  UNL     1     -18.385 -36.534 -27.770  1.00  0.00    -0.206 OA
HETATM    8  N1  UNL     1     -16.551 -37.143 -26.812  1.00  0.00    -0.320 N
ENDROOT
BRANCH   8   9
HETATM    9  C6  UNL     1     -15.953 -37.661 -25.696  1.00  0.00     0.149 C
BRANCH   9  10
HETATM   10  C7  UNL     1     -16.402 -38.791 -25.234  1.00  0.00    -0.082 C
BRANCH  10  11
HETATM   11  C8  UNL     1     -16.912 -39.946 -24.880  1.00  0.00     0.245 C
HETATM   12  F1  UNL     1     -18.048 -40.288 -25.479  1.00  0.00    -0.211 F
ENDBRANCH  10  11
ENDBRANCH   9  10
ENDBRANCH   8   9
TORSDOF 3
ENDMDL