MODEL 5
REMARK VINA RESULT: -4.187364286      2.071      2.739
REMARK  1 active torsions:
REMARK  status: ('A' for Active; 'I' for Inactive)
REMARK    1  A    between atoms: N2_6  and  C4_7
ROOT
HETATM    1  C1  UNL     1     -15.030 -37.817 -29.422  1.00  0.00     0.039 C
HETATM    2  C2  UNL     1     -15.972 -37.790 -28.206  1.00  0.00     0.136 C
HETATM    3  S1  UNL     1     -15.081 -38.788 -26.941  1.00  0.00    -0.131 SA
HETATM    4  C3  UNL     1     -14.370 -37.271 -26.166  1.00  0.00     0.204 C
HETATM    5  N1  UNL     1     -15.484 -36.412 -26.414  1.00  0.00    -0.152 NA
HETATM    6  N2  UNL     1     -15.922 -36.477 -27.682  1.00  0.00    -0.197 NA
ENDROOT
BRANCH   6   7
HETATM    7  C4  UNL     1     -17.190 -35.769 -27.767  1.00  0.00     0.099 C
HETATM    8  C5  UNL     1     -17.110 -34.598 -28.697  1.00  0.00     0.051 C
HETATM    9  C6  UNL     1     -18.327 -36.659 -28.150  1.00  0.00     0.051 C
HETATM   10 CL1  UNL     1     -17.514 -35.123 -26.127  1.00  0.00    -0.101 Cl
ENDBRANCH   6   7
TORSDOF 1
ENDMDL