MODEL 2
REMARK VINA RESULT: -6.956328678      1.469      1.780
REMARK  10 active torsions:
REMARK  status: ('A' for Active; 'I' for Inactive)
REMARK    1  A    between atoms: O1_2  and  C2_3
REMARK    2  A    between atoms: C2_3  and  C3_4
REMARK    3  A    between atoms: C3_4  and  N1_5
REMARK       I    between atoms: N2_8  and  C6_9
REMARK       I    between atoms: C6_9  and  N3_11
REMARK    4  A    between atoms: N3_11  and  C7_13
REMARK       I    between atoms: N4_16  and  C10_17
REMARK       I    between atoms: C10_17  and  N5_19
REMARK    5  A    between atoms: N5_19  and  C11_21
REMARK    6  A    between atoms: C11_21  and  C12_22
REMARK    7  A    between atoms: C12_22  and  N6_23
REMARK    8  A    between atoms: N6_23  and  N7_24
REMARK       I    between atoms: N7_24  and  C13_26
REMARK    9  A    between atoms: C14_31  and  O4_32
REMARK   10  A    between atoms: C15_34  and  C16_35
ROOT
HETATM    1  C7  UNL     1      20.746  20.320  44.878  1.00  0.00     0.136 C
HETATM    2  C8  UNL     1      21.462  20.621  46.194  1.00  0.00     0.049 C
HETATM    3  C9  UNL     1      22.220  21.872  45.905  1.00  0.00     0.132 C
HETATM    4  N4  UNL     1      21.527  22.519  44.829  1.00  0.00    -0.305 N
HETATM    5  C10 UNL     1      21.810  23.842  44.339  1.00  0.00     0.320 C
HETATM    6  O3  UNL     1      22.740  24.497  44.877  1.00  0.00    -0.247 OA
HETATM    7  N5  UNL     1      21.034  24.361  43.270  1.00  0.00    -0.342 N
ATOM      8  H5  UNL     1      20.287  23.803  42.856  1.00  0.00     0.164 HD
HETATM    9  C14 UNL     1      20.507  21.667  44.304  1.00  0.00     0.247 C
ENDROOT
BRANCH   1  10
HETATM   10  N3  UNL     1      21.635  19.500  44.089  1.00  0.00    -0.334 N
HETATM   11  C6  UNL     1      21.408  18.104  43.996  1.00  0.00     0.319 C
HETATM   12  N2  UNL     1      22.235  17.267  43.248  1.00  0.00    -0.318 N
HETATM   13  O2  UNL     1      20.389  17.707  44.658  1.00  0.00    -0.247 OA
HETATM   14  C5  UNL     1      23.337  17.863  42.451  1.00  0.00     0.158 C
HETATM   15  C15 UNL     1      22.171  15.853  43.103  1.00  0.00     0.206 C
HETATM   16  C4  UNL     1      23.551  16.990  41.217  1.00  0.00     0.292 C
HETATM   17  N1  UNL     1      22.360  16.409  40.741  1.00  0.00     0.094 N
HETATM   18  C17 UNL     1      21.641  15.602  41.702  1.00  0.00     0.307 C
ATOM     19  H3  UNL     1      22.423  19.924  43.599  1.00  0.00     0.164 HD
BRANCH  17  20
HETATM   20  C3  UNL     1      22.389  15.765  39.493  1.00  0.00     0.298 C
BRANCH  20  21
HETATM   21  C2  UNL     1      22.847  16.538  38.312  1.00  0.00     0.197 C
BRANCH  21  22
HETATM   22  O1  UNL     1      21.949  17.388  37.732  1.00  0.00    -0.394 OA
HETATM   23  C1  UNL     1      22.448  18.576  37.260  1.00  0.00     0.201 C
ENDBRANCH  21  22
ENDBRANCH  20  21
ENDBRANCH  17  20
BRANCH  15  24
HETATM   24  C16 UNL     1      21.481  15.016  44.060  1.00  0.00     0.256 C
HETATM   25  N10 UNL     1      22.042  14.796  45.390  1.00  0.00    -0.060 NA
HETATM   26  O5  UNL     1      20.403  14.438  43.849  1.00  0.00    -0.275 OA
ENDBRANCH  15  24
ENDBRANCH   1  10
BRANCH   9  27
HETATM   27  O4  UNL     1      19.228  22.160  44.581  1.00  0.00    -0.374 OA
ATOM     28  H4  UNL     1      18.991  22.903  44.039  1.00  0.00     0.212 HD
ENDBRANCH   9  27
BRANCH   7  29
HETATM   29  C11 UNL     1      21.313  25.688  42.777  1.00  0.00     0.142 C
BRANCH  29  30
HETATM   30  C12 UNL     1      20.040  26.375  42.416  1.00  0.00     0.154 C
BRANCH  30  31
HETATM   31  N6  UNL     1      19.107  26.510  43.491  1.00  0.00    -0.137 NA
BRANCH  31  32
HETATM   32  N7  UNL     1      17.808  26.189  43.109  1.00  0.00    -0.278 N
HETATM   33  C13 UNL     1      17.172  24.950  43.318  1.00  0.00     0.197 C
HETATM   34  N8  UNL     1      16.049  24.882  43.971  1.00  0.00    -0.373 N
HETATM   35  N9  UNL     1      17.782  23.786  42.798  1.00  0.00    -0.063 NA
ATOM     36  H82 UNL     1      15.609  25.723  44.346  1.00  0.00     0.158 HD
ATOM     37  H81 UNL     1      15.588  23.984  44.123  1.00  0.00     0.158 HD
ATOM     38  H7  UNL     1      17.268  26.915  42.637  1.00  0.00     0.185 HD
ENDBRANCH  31  32
ENDBRANCH  30  31
ENDBRANCH  29  30
ENDBRANCH   7  29
TORSDOF 10
ENDMDL