MODEL 1
REMARK VINA RESULT: -7.430723144      0.000      0.000
REMARK  12 active torsions:
REMARK  status: ('A' for Active; 'I' for Inactive)
REMARK       I    between atoms: C1_4  and  N3_6
REMARK    1  A    between atoms: N4_9  and  S1_10
REMARK    2  A    between atoms: S1_10  and  C4_13
REMARK    3  A    between atoms: C4_13  and  C5_14
REMARK    4  A    between atoms: C5_14  and  N5_15
REMARK    5  A    between atoms: N5_15  and  C6_17
REMARK    6  A    between atoms: C6_17  and  C7_22
REMARK    7  A    between atoms: N6_18  and  O3_20
REMARK    8  A    between atoms: N7_26  and  C11_27
REMARK    9  A    between atoms: C11_27  and  C12_28
REMARK   10  A    between atoms: C12_28  and  C13_29
REMARK   11  A    between atoms: C13_29  and  N8_30
REMARK   12  A    between atoms: C15_35  and  O4_36
ROOT
HETATM    1  N5  UNL     1      20.789  19.705  44.378  1.00  0.00    -0.376 N
ATOM      2  H5  UNL     1      21.059  19.982  43.434  1.00  0.00     0.160 HD
ENDROOT
BRANCH   1   3
HETATM    3  C5  UNL     1      21.069  18.365  44.808  1.00  0.00     0.137 C
BRANCH   3   4
HETATM    4  C4  UNL     1      20.023  17.357  44.401  1.00  0.00     0.177 C
BRANCH   4   5
HETATM    5  S1  UNL     1      20.681  15.706  44.436  1.00  0.00     0.216 S
HETATM    6  O1  UNL     1      19.774  14.724  43.748  1.00  0.00    -0.211 OA
HETATM    7  O2  UNL     1      20.809  15.210  45.865  1.00  0.00    -0.211 OA
BRANCH   5   8
HETATM    8  N4  UNL     1      22.242  15.600  43.738  1.00  0.00    -0.163 NA
HETATM    9  C3  UNL     1      22.314  16.075  42.380  1.00  0.00     0.132 C
HETATM   10  C2  UNL     1      22.841  14.918  41.561  1.00  0.00     0.145 C
HETATM   11  N3  UNL     1      23.582  14.157  42.538  1.00  0.00    -0.315 N
HETATM   12  C1  UNL     1      24.798  13.466  42.338  1.00  0.00     0.187 C
HETATM   13  C15 UNL     1      22.801  14.264  43.757  1.00  0.00     0.318 C
HETATM   14  N1  UNL     1      25.951  13.948  42.719  1.00  0.00    -0.374 N
HETATM   15  N2  UNL     1      24.860  12.193  41.706  1.00  0.00    -0.064 NA
ATOM     16  H12 UNL     1      26.828  13.449  42.574  1.00  0.00     0.158 HD
ATOM     17  H11 UNL     1      25.906  14.861  43.172  1.00  0.00     0.158 HD
BRANCH  13  18
HETATM   18  O4  UNL     1      23.611  14.190  44.886  1.00  0.00    -0.363 OA
ATOM     19  H4  UNL     1      24.312  14.830  44.851  1.00  0.00     0.213 HD
ENDBRANCH  13  18
ENDBRANCH   5   8
ENDBRANCH   4   5
ENDBRANCH   3   4
ENDBRANCH   1   3
BRANCH   1  20
HETATM   20  C6  UNL     1      20.153  20.658  45.210  1.00  0.00     0.120 C
HETATM   21  N6  UNL     1      18.865  20.647  45.246  1.00  0.00    -0.255 N
ATOM     22  H6  UNL     1      18.378  19.956  44.674  1.00  0.00     0.195 HD
BRANCH  21  23
HETATM   23  O3  UNL     1      18.106  21.504  46.002  1.00  0.00    -0.288 OA
ATOM     24  H3  UNL     1      17.776  21.302  46.869  1.00  0.00     0.244 HD
ENDBRANCH  21  23
BRANCH  20  25
HETATM   25  C7  UNL     1      20.877  21.651  46.016  1.00  0.00     0.157 C
HETATM   26  C8  UNL     1      21.777  21.071  47.070  1.00  0.00     0.038 C
HETATM   27  C9  UNL     1      23.157  21.351  46.542  1.00  0.00     0.047 C
HETATM   28  C10 UNL     1      22.974  22.632  45.769  1.00  0.00     0.064 C
HETATM   29  N7  UNL     1      21.650  22.592  45.295  1.00  0.00    -0.362 N
BRANCH  29  30
HETATM   30  C11 UNL     1      21.385  22.738  43.927  1.00  0.00     0.069 C
BRANCH  30  31
HETATM   31  C12 UNL     1      20.647  24.019  43.538  1.00  0.00     0.089 C
BRANCH  31  32
HETATM   32  C13 UNL     1      19.346  23.588  42.907  1.00  0.00     0.068 C
BRANCH  32  33
HETATM   33  N8  UNL     1      18.271  23.669  43.814  1.00  0.00    -0.346 N
HETATM   34  C14 UNL     1      17.072  24.044  43.742  1.00  0.00     0.200 C
HETATM   35  N9  UNL     1      16.420  24.537  42.585  1.00  0.00    -0.067 NA
HETATM   36  N10 UNL     1      16.296  23.952  44.972  1.00  0.00    -0.067 NA
ATOM     37  H8  UNL     1      18.525  23.350  44.749  1.00  0.00     0.167 HD
ENDBRANCH  32  33
ENDBRANCH  31  32
ENDBRANCH  30  31
ENDBRANCH  29  30
ENDBRANCH  20  25
ENDBRANCH   1  20
TORSDOF 12
ENDMDL