MODEL 4
REMARK VINA RESULT: -7.296164889      1.860      3.809
REMARK  14 active torsions:
REMARK  status: ('A' for Active; 'I' for Inactive)
REMARK    1  A    between atoms: C6_7  and  C7_8
REMARK       I    between atoms: C7_8  and  N2_10
REMARK    2  A    between atoms: N2_10  and  C8_12
REMARK    3  A    between atoms: C8_12  and  C9_13
REMARK       I    between atoms: C9_13  and  N3_15
REMARK    4  A    between atoms: N3_15  and  C10_17
REMARK    5  A    between atoms: C10_17  and  C11_18
REMARK    6  A    between atoms: C11_18  and  O3_19
REMARK    7  A    between atoms: C11_18  and  N4_21
REMARK    8  A    between atoms: N4_21  and  C12_22
REMARK    9  A    between atoms: C12_22  and  C13_23
REMARK   10  A    between atoms: C12_22  and  C16_33
REMARK   11  A    between atoms: C13_23  and  N5_24
REMARK       I    between atoms: N5_24  and  C14_26
REMARK   12  A    between atoms: C14_26  and  C15_28
REMARK   13  A    between atoms: C15_28  and  N6_29
REMARK       I    between atoms: C16_33  and  N7_35
REMARK   14  A    between atoms: N7_35  and  N8_37
REMARK       I    between atoms: N8_37  and  C17_39
ROOT
HETATM    1  C12 UNL     1      25.643  13.833  41.349  1.00  0.00     0.173 C
ENDROOT
BRANCH   1   2
HETATM    2  N4  UNL     1      25.549  14.897  40.851  1.00  0.00    -0.380 NA
BRANCH   2   3
HETATM    3  C11 UNL     1      25.443  16.095  40.299  1.00  0.00     0.208 C
BRANCH   3   4
HETATM    4  C10 UNL     1      24.541  17.238  40.685  1.00  0.00     0.222 C
BRANCH   4   5
HETATM    5  N3  UNL     1      23.723  16.990  41.824  1.00  0.00    -0.351 N
HETATM    6  C9  UNL     1      23.201  18.086  42.546  1.00  0.00     0.235 C
HETATM    7  O2  UNL     1      23.454  19.245  42.174  1.00  0.00    -0.272 OA
ATOM      8  H3  UNL     1      23.517  16.034  42.114  1.00  0.00     0.163 HD
BRANCH   6   9
HETATM    9  C8  UNL     1      22.365  17.848  43.733  1.00  0.00     0.225 C
BRANCH   9  10
HETATM   10  N2  UNL     1      21.835  19.092  44.220  1.00  0.00    -0.351 N
HETATM   11  C7  UNL     1      22.287  19.679  45.401  1.00  0.00     0.240 C
HETATM   12  O1  UNL     1      23.189  19.146  46.080  1.00  0.00    -0.271 OA
ATOM     13  H2  UNL     1      21.103  19.560  43.684  1.00  0.00     0.163 HD
BRANCH  11  14
HETATM   14  C6  UNL     1      21.688  20.973  45.877  1.00  0.00     0.175 C
HETATM   15  N1  UNL     1      22.389  22.052  45.315  1.00  0.00    -0.384 N
HETATM   16  C1  UNL     1      23.391  22.690  46.084  1.00  0.00     0.149 C
HETATM   17  C2  UNL     1      21.848  22.743  44.212  1.00  0.00     0.058 C
HETATM   18  C3  UNL     1      20.429  22.469  43.857  1.00  0.00     0.044 C
HETATM   19  C4  UNL     1      19.643  22.195  45.105  1.00  0.00     0.007 C
HETATM   20  C5  UNL     1      20.210  20.939  45.722  1.00  0.00     0.035 C
ENDBRANCH  11  14
ENDBRANCH   9  10
ENDBRANCH   6   9
ENDBRANCH   4   5
ENDBRANCH   3   4
BRANCH   3  21
HETATM   21  O3  UNL     1      26.176  16.440  39.271  1.00  0.00    -0.338 OA
ATOM     22  H3  UNL     1      25.618  16.770  38.577  1.00  0.00     0.220 HD
ENDBRANCH   3  21
ENDBRANCH   2   3
ENDBRANCH   1   2
BRANCH   1  23
HETATM   23  C13 UNL     1      26.783  12.871  41.053  1.00  0.00     0.201 C
BRANCH  23  24
HETATM   24  N5  UNL     1      26.311  11.567  40.707  1.00  0.00    -0.353 N
HETATM   25  C14 UNL     1      27.217  10.495  40.516  1.00  0.00     0.243 C
HETATM   26  O4  UNL     1      28.470  10.687  40.651  1.00  0.00    -0.272 OA
ATOM     27  H5  UNL     1      25.310  11.407  40.596  1.00  0.00     0.162 HD
BRANCH  25  28
HETATM   28  C15 UNL     1      26.748   9.128  40.159  1.00  0.00     0.332 C
BRANCH  28  29
HETATM   29  N6  UNL     1      25.345   9.168  39.793  1.00  0.00    -0.071 N
ATOM     30  H63 UNL     1      24.815   9.814  40.378  1.00  0.00     0.274 HD
ATOM     31  H62 UNL     1      25.197   9.626  38.894  1.00  0.00     0.274 HD
ATOM     32  H61 UNL     1      24.954   8.226  39.812  1.00  0.00     0.274 HD
ENDBRANCH  28  29
ENDBRANCH  25  28
ENDBRANCH  23  24
ENDBRANCH   1  23
BRANCH   1  33
HETATM   33  C16 UNL     1      24.650  13.320  42.307  1.00  0.00     0.298 C
HETATM   34  O5  UNL     1      25.010  12.696  43.316  1.00  0.00    -0.263 OA
HETATM   35  N7  UNL     1      23.285  13.546  42.058  1.00  0.00    -0.262 N
ATOM     36  H7  UNL     1      23.013  14.063  41.223  1.00  0.00     0.190 HD
BRANCH  35  37
HETATM   37  N8  UNL     1      22.276  13.076  42.939  1.00  0.00    -0.271 N
HETATM   38  C17 UNL     1      21.817  14.010  43.908  1.00  0.00     0.200 C
HETATM   39  N9  UNL     1      22.702  14.550  44.673  1.00  0.00    -0.372 N
HETATM   40  N10 UNL     1      20.456  14.354  44.053  1.00  0.00    -0.062 NA
ATOM     41  H92 UNL     1      23.686  14.302  44.569  1.00  0.00     0.158 HD
ATOM     42  H91 UNL     1      22.373  15.220  45.368  1.00  0.00     0.158 HD
ATOM     43  H8  UNL     1      21.904  12.128  42.879  1.00  0.00     0.189 HD
ENDBRANCH  35  37
ENDBRANCH   1  33
TORSDOF 14
ENDMDL