MODEL 5
REMARK VINA RESULT: -7.184090742      2.152      6.981
REMARK  11 active torsions:
REMARK  status: ('A' for Active; 'I' for Inactive)
REMARK       I    between atoms: C1_4  and  N3_6
REMARK    1  A    between atoms: C3_8  and  N4_9
REMARK    2  A    between atoms: C5_14  and  C6_15
REMARK       I    between atoms: C6_15  and  N5_17
REMARK    3  A    between atoms: N5_17  and  C7_19
REMARK    4  A    between atoms: C7_19  and  C8_20
REMARK    5  A    between atoms: C7_19  and  C11_29
REMARK    6  A    between atoms: C8_20  and  C9_21
REMARK    7  A    between atoms: C9_21  and  N6_22
REMARK    8  A    between atoms: C9_21  and  C10_26
REMARK    9  A    between atoms: C11_29  and  N8_30
REMARK   10  A    between atoms: C11_29  and  C12_34
REMARK       I    between atoms: C12_34  and  N9_36
REMARK   11  A    between atoms: C17_41  and  C18_42
ROOT
HETATM    1  C7  UNL     1      24.686  15.483  40.346  1.00  0.00     0.126 C
ENDROOT
BRANCH   1   2
HETATM    2  N5  UNL     1      25.424  16.758  40.329  1.00  0.00    -0.352 N
HETATM    3  C6  UNL     1      25.843  17.295  39.113  1.00  0.00     0.241 C
HETATM    4  O1  UNL     1      25.589  16.688  38.044  1.00  0.00    -0.271 OA
ATOM      5  H5  UNL     1      25.628  17.244  41.202  1.00  0.00     0.163 HD
BRANCH   3   6
HETATM    6  C5  UNL     1      26.593  18.574  38.980  1.00  0.00     0.181 C
HETATM    7  N3  UNL     1      25.828  19.591  38.298  1.00  0.00    -0.340 N
HETATM    8  C1  UNL     1      24.672  20.284  38.733  1.00  0.00     0.184 C
HETATM    9  C2  UNL     1      26.397  19.885  36.978  1.00  0.00     0.159 C
HETATM   10  N1  UNL     1      23.605  20.208  38.040  1.00  0.00    -0.374 N
HETATM   11  N2  UNL     1      24.732  21.039  39.921  1.00  0.00    -0.064 NA
ATOM     12  H12 UNL     1      22.772  20.707  38.353  1.00  0.00     0.158 HD
ATOM     13  H11 UNL     1      23.562  19.662  37.180  1.00  0.00     0.158 HD
HETATM   14  C3  UNL     1      27.800  19.385  37.053  1.00  0.00     0.204 C
HETATM   15  C4  UNL     1      27.799  18.307  38.117  1.00  0.00     0.069 C
BRANCH  14  16
HETATM   16  N4  UNL     1      28.175  18.863  35.752  1.00  0.00    -0.073 N
ATOM     17  H43 UNL     1      29.153  18.577  35.713  1.00  0.00     0.274 HD
ATOM     18  H42 UNL     1      27.756  17.953  35.559  1.00  0.00     0.274 HD
ATOM     19  H41 UNL     1      27.941  19.558  35.042  1.00  0.00     0.274 HD
ENDBRANCH  14  16
ENDBRANCH   3   6
ENDBRANCH   1   2
BRANCH   1  20
HETATM   20  C8  UNL     1      25.278  14.727  41.483  1.00  0.00     0.070 C
BRANCH  20  21
HETATM   21  C9  UNL     1      25.994  13.465  41.215  1.00  0.00     0.273 C
BRANCH  21  22
HETATM   22  N6  UNL     1      26.851  13.074  42.344  1.00  0.00    -0.067 N
ATOM     23  H63 UNL     1      26.987  13.848  42.993  1.00  0.00     0.275 HD
ATOM     24  H62 UNL     1      26.371  12.425  42.967  1.00  0.00     0.275 HD
ATOM     25  H61 UNL     1      27.743  12.693  42.028  1.00  0.00     0.275 HD
ENDBRANCH  21  22
BRANCH  21  26
HETATM   26  C10 UNL     1      24.919  12.392  41.208  1.00  0.00     0.261 C
HETATM   27  N7  UNL     1      24.778  11.437  40.192  1.00  0.00    -0.060 NA
HETATM   28  O2  UNL     1      24.133  12.391  42.180  1.00  0.00    -0.275 OA
ENDBRANCH  21  26
ENDBRANCH  20  21
ENDBRANCH   1  20
BRANCH   1  29
HETATM   29  C11 UNL     1      23.216  15.752  40.492  1.00  0.00     0.297 C
BRANCH  29  30
HETATM   30  N8  UNL     1      22.755  16.678  39.495  1.00  0.00    -0.064 N
ATOM     31  H83 UNL     1      22.562  16.210  38.610  1.00  0.00     0.275 HD
ATOM     32  H82 UNL     1      21.815  17.014  39.702  1.00  0.00     0.275 HD
ATOM     33  H81 UNL     1      23.412  17.449  39.376  1.00  0.00     0.275 HD
ENDBRANCH  29  30
BRANCH  29  34
HETATM   34  C12 UNL     1      22.865  16.265  41.833  1.00  0.00     0.257 C
HETATM   35  O3  UNL     1      23.576  17.306  42.144  1.00  0.00    -0.271 OA
HETATM   36  N9  UNL     1      21.960  15.850  42.757  1.00  0.00    -0.315 N
HETATM   37  C13 UNL     1      21.071  14.697  42.539  1.00  0.00     0.132 C
HETATM   38  C17 UNL     1      21.789  16.415  44.065  1.00  0.00     0.079 C
HETATM   39  C14 UNL     1      21.230  13.756  43.745  1.00  0.00     0.021 C
HETATM   40  C15 UNL     1      22.475  14.080  44.556  1.00  0.00     0.008 C
HETATM   41  C16 UNL     1      22.457  15.504  45.094  1.00  0.00     0.062 C
BRANCH  38  42
HETATM   42  C18 UNL     1      21.928  17.817  44.308  1.00  0.00     0.277 C
HETATM   43  N10 UNL     1      22.867  18.353  45.275  1.00  0.00    -0.056 NA
HETATM   44  O4  UNL     1      21.226  18.676  43.683  1.00  0.00    -0.270 OA
ENDBRANCH  38  42
ENDBRANCH  29  34
ENDBRANCH   1  29
TORSDOF 11
ENDMDL