MODEL 3
REMARK VINA RESULT: -7.622502732      3.715      8.243
REMARK  10 active torsions:
REMARK  status: ('A' for Active; 'I' for Inactive)
REMARK    1  A    between atoms: O1_2  and  C2_3
REMARK    2  A    between atoms: C3_7  and  O2_8
REMARK    3  A    between atoms: O2_8  and  C4_9
REMARK    4  A    between atoms: C6_14  and  N3_15
REMARK    5  A    between atoms: C8_20  and  C9_21
REMARK       I    between atoms: N6_22  and  C10_24
REMARK       I    between atoms: C10_24  and  N7_26
REMARK    6  A    between atoms: N7_26  and  C11_28
REMARK    7  A    between atoms: C11_28  and  C12_29
REMARK    8  A    between atoms: C12_29  and  C13_30
REMARK    9  A    between atoms: C13_30  and  N8_31
REMARK   10  A    between atoms: C15_36  and  O5_38
ROOT
HETATM    1  C4  UNL     1      24.340  13.554  42.797  1.00  0.00     0.237 C
HETATM    2  N2  UNL     1      24.469  13.647  44.268  1.00  0.00    -0.332 N
ATOM      3  H2  UNL     1      25.275  13.384  44.836  1.00  0.00     0.165 HD
HETATM    4  C5  UNL     1      23.240  14.179  44.719  1.00  0.00     0.243 C
HETATM    5  O3  UNL     1      22.884  14.249  45.910  1.00  0.00    -0.271 OA
HETATM    6  C6  UNL     1      22.454  14.633  43.551  1.00  0.00     0.189 C
HETATM    7  C8  UNL     1      23.633  14.902  42.577  1.00  0.00     0.105 C
ENDROOT
BRANCH   7   8
HETATM    8  C9  UNL     1      23.158  15.103  41.222  1.00  0.00     0.077 C
HETATM    9  N6  UNL     1      23.167  16.204  40.628  1.00  0.00    -0.322 N
HETATM   10  C10 UNL     1      23.569  17.494  40.952  1.00  0.00     0.323 C
ATOM     11  H6  UNL     1      22.790  16.139  39.682  1.00  0.00     0.169 HD
HETATM   12  O4  UNL     1      24.318  18.063  40.076  1.00  0.00    -0.247 OA
HETATM   13  N7  UNL     1      23.236  18.205  42.107  1.00  0.00    -0.322 N
ATOM     14  H7  UNL     1      22.666  17.659  42.754  1.00  0.00     0.169 HD
BRANCH  13  15
HETATM   15  C11 UNL     1      23.506  19.492  42.579  1.00  0.00     0.067 C
BRANCH  15  16
HETATM   16  C12 UNL     1      22.527  20.230  43.420  1.00  0.00     0.064 C
BRANCH  16  17
HETATM   17  C13 UNL     1      21.978  19.472  44.552  1.00  0.00     0.127 C
BRANCH  17  18
HETATM   18  N8  UNL     1      20.579  19.779  44.821  1.00  0.00    -0.367 N
HETATM   19  C14 UNL     1      20.079  20.597  45.606  1.00  0.00     0.196 C
HETATM   20  N9  UNL     1      20.854  21.437  46.438  1.00  0.00    -0.067 NA
HETATM   21  N10 UNL     1      18.640  20.691  45.667  1.00  0.00    -0.067 NA
ATOM     22  H8  UNL     1      19.908  19.237  44.278  1.00  0.00     0.161 HD
ENDBRANCH  17  18
ENDBRANCH  16  17
ENDBRANCH  15  16
ENDBRANCH  13  15
ENDBRANCH   7   8
BRANCH   1  23
HETATM   23  O2  UNL     1      25.532  13.433  42.181  1.00  0.00    -0.331 OA
BRANCH  23  24
HETATM   24  C3  UNL     1      26.077  12.204  42.043  1.00  0.00     0.364 C
HETATM   25  N1  UNL     1      27.505  12.073  42.270  1.00  0.00    -0.016 N
HETATM   26  C2  UNL     1      27.499  10.953  41.344  1.00  0.00     0.362 C
ATOM     27  H12 UNL     1      27.876  11.969  43.214  1.00  0.00     0.283 HD
ATOM     28  H11 UNL     1      28.131  12.865  42.129  1.00  0.00     0.283 HD
HETATM   29  C15 UNL     1      26.270  11.606  40.687  1.00  0.00     0.157 C
HETATM   30  C16 UNL     1      25.336  10.554  40.217  1.00  0.00     0.055 C
BRANCH  26  31
HETATM   31  O1  UNL     1      28.622  10.902  40.554  1.00  0.00    -0.362 OA
HETATM   32  C1  UNL     1      28.929   9.591  40.184  1.00  0.00     0.204 C
ENDBRANCH  26  31
BRANCH  29  33
HETATM   33  O5  UNL     1      26.700  12.451  39.690  1.00  0.00    -0.381 OA
ATOM     34  H5  UNL     1      26.143  12.333  38.929  1.00  0.00     0.211 HD
ENDBRANCH  29  33
ENDBRANCH  23  24
ENDBRANCH   1  23
BRANCH   6  35
HETATM   35  N3  UNL     1      21.625  15.758  43.752  1.00  0.00    -0.353 N
HETATM   36  C7  UNL     1      20.386  15.658  44.038  1.00  0.00     0.197 C
HETATM   37  N4  UNL     1      19.630  16.848  44.221  1.00  0.00    -0.067 NA
HETATM   38  N5  UNL     1      19.729  14.414  44.182  1.00  0.00    -0.067 NA
ATOM     39  H3  UNL     1      22.033  16.689  43.665  1.00  0.00     0.162 HD
ENDBRANCH   6  35
TORSDOF 10
ENDMDL