MODEL 5
REMARK VINA RESULT: -7.382953393      1.230      2.025
REMARK  12 active torsions:
REMARK  status: ('A' for Active; 'I' for Inactive)
REMARK    1  A    between atoms: N3_4  and  C2_6
REMARK    2  A    between atoms: C2_6  and  C3_7
REMARK    3  A    between atoms: C3_7  and  C4_8
REMARK    4  A    between atoms: C4_8  and  C5_9
REMARK    5  A    between atoms: C5_9  and  N4_10
REMARK       I    between atoms: C6_12  and  N6_14
REMARK    6  A    between atoms: N6_14  and  C7_16
REMARK    7  A    between atoms: C7_16  and  C8_17
REMARK    8  A    between atoms: C8_17  and  C9_18
REMARK    9  A    between atoms: C8_17  and  N8_32
REMARK       I    between atoms: C9_18  and  N7_20
REMARK   10  A    between atoms: C11_22  and  O2_23
REMARK   11  A    between atoms: C12_25  and  O3_26
REMARK   12  A    between atoms: C13_28  and  O4_29
ROOT
HETATM    1  C8  UNL     1      24.356  16.993  40.267  1.00  0.00     0.074 C
ENDROOT
BRANCH   1   2
HETATM    2  C7  UNL     1      25.550  16.099  40.472  1.00  0.00     0.179 C
BRANCH   2   3
HETATM    3  N6  UNL     1      25.542  15.470  41.770  1.00  0.00    -0.359 N
HETATM    4  C6  UNL     1      25.351  14.062  41.891  1.00  0.00     0.184 C
HETATM    5  N4  UNL     1      25.137  13.348  40.838  1.00  0.00    -0.365 N
HETATM    6  N5  UNL     1      25.403  13.470  43.183  1.00  0.00    -0.064 NA
ATOM      7  H4  UNL     1      25.100  13.783  39.916  1.00  0.00     0.162 HD
ATOM      8  H6  UNL     1      25.675  16.037  42.608  1.00  0.00     0.162 HD
BRANCH   5   9
HETATM    9  C5  UNL     1      24.953  11.941  40.982  1.00  0.00     0.122 C
BRANCH   9  10
HETATM   10  C4  UNL     1      25.482  11.126  39.835  1.00  0.00     0.025 C
BRANCH  10  11
HETATM   11  C3  UNL     1      24.778   9.754  39.937  1.00  0.00     0.046 C
BRANCH  11  12
HETATM   12  C2  UNL     1      25.757   8.685  40.292  1.00  0.00     0.063 C
BRANCH  12  13
HETATM   13  N3  UNL     1      27.078   9.050  39.965  1.00  0.00    -0.347 N
HETATM   14  C1  UNL     1      28.007   9.556  40.632  1.00  0.00     0.200 C
HETATM   15  N1  UNL     1      28.016   9.938  41.994  1.00  0.00    -0.067 NA
HETATM   16  N2  UNL     1      29.247   9.785  39.917  1.00  0.00    -0.067 NA
ATOM     17  H3  UNL     1      27.326   8.864  38.994  1.00  0.00     0.167 HD
ENDBRANCH  12  13
ENDBRANCH  11  12
ENDBRANCH  10  11
ENDBRANCH   9  10
ENDBRANCH   5   9
ENDBRANCH   2   3
ENDBRANCH   1   2
BRANCH   1  18
HETATM   18  C9  UNL     1      23.564  17.283  41.449  1.00  0.00     0.262 C
HETATM   19  O1  UNL     1      23.884  18.298  42.188  1.00  0.00    -0.267 OA
HETATM   20  N7  UNL     1      22.437  16.582  41.941  1.00  0.00    -0.342 N
HETATM   21  C10 UNL     1      21.721  17.036  43.149  1.00  0.00     0.160 C
HETATM   22  C14 UNL     1      21.895  15.379  41.357  1.00  0.00     0.160 C
HETATM   23  C11 UNL     1      22.053  16.099  44.266  1.00  0.00     0.167 C
HETATM   24  C12 UNL     1      22.112  14.692  43.763  1.00  0.00     0.178 C
HETATM   25  C13 UNL     1      21.307  14.554  42.515  1.00  0.00     0.167 C
BRANCH  23  26
HETATM   26  O2  UNL     1      21.137  16.225  45.327  1.00  0.00    -0.391 OA
ATOM     27  H2  UNL     1      20.968  15.386  45.738  1.00  0.00     0.210 HD
ENDBRANCH  23  26
BRANCH  24  28
HETATM   28  O3  UNL     1      21.593  13.854  44.756  1.00  0.00    -0.390 OA
ATOM     29  H3  UNL     1      21.250  13.074  44.334  1.00  0.00     0.210 HD
ENDBRANCH  24  28
BRANCH  25  30
HETATM   30  O4  UNL     1      19.984  14.877  42.768  1.00  0.00    -0.391 OA
ATOM     31  H4  UNL     1      19.457  14.719  41.993  1.00  0.00     0.210 HD
ENDBRANCH  25  30
ENDBRANCH   1  18
BRANCH   1  32
HETATM   32  N8  UNL     1      24.699  18.069  39.400  1.00  0.00    -0.278 NA
HETATM   33  C15 UNL     1      23.703  18.383  38.414  1.00  0.00     0.123 C
HETATM   34  C16 UNL     1      24.307  18.321  37.045  1.00  0.00     0.247 C
HETATM   35  N9  UNL     1      25.429  19.226  36.876  1.00  0.00    -0.073 N
HETATM   36  C17 UNL     1      26.368  19.120  37.977  1.00  0.00     0.247 C
ATOM     37  H92 UNL     1      25.891  19.085  35.977  1.00  0.00     0.277 HD
ATOM     38  H91 UNL     1      25.117  20.187  36.744  1.00  0.00     0.277 HD
HETATM   39  C18 UNL     1      26.018  17.919  38.811  1.00  0.00     0.123 C
ENDBRANCH   1  32
TORSDOF 12
ENDMDL