MODEL 1
REMARK VINA RESULT: -8.985946784      0.000      0.000
REMARK  11 active torsions:
REMARK  status: ('A' for Active; 'I' for Inactive)
REMARK    1  A    between atoms: C2_4  and  C3_5
REMARK    2  A    between atoms: C2_4  and  N8_26
REMARK    3  A    between atoms: C3_5  and  C4_6
REMARK    4  A    between atoms: C4_6  and  N2_7
REMARK       I    between atoms: N2_7  and  C5_9
REMARK       I    between atoms: C5_9  and  N5_14
REMARK    5  A    between atoms: N5_14  and  C7_16
REMARK    6  A    between atoms: C7_16  and  C8_17
REMARK    7  A    between atoms: C8_17  and  N6_18
REMARK    8  A    between atoms: C12_22  and  C13_23
REMARK    9  A    between atoms: N8_26  and  C14_28
REMARK   10  A    between atoms: C16_31  and  N9_32
REMARK       I    between atoms: N9_32  and  C17_34
REMARK   11  A    between atoms: C18_39  and  O3_40
ROOT
HETATM    1  N2  UNL     1      21.823  14.898  41.085  1.00  0.00    -0.225 N
ATOM      2  H2  UNL     1      21.133  14.151  41.006  1.00  0.00     0.177 HD
HETATM    3  C5  UNL     1      23.111  14.761  40.475  1.00  0.00     0.682 C
HETATM    4  N3  UNL     1      23.432  15.412  39.459  1.00  0.00    -0.126 N
ATOM      5  H3  UNL     1      24.374  15.232  39.113  1.00  0.00     0.197 HD
HETATM    6  C6  UNL     1      22.713  16.334  38.732  1.00  0.00     0.196 C
HETATM    7  N4  UNL     1      22.119  17.097  38.102  1.00  0.00    -0.171 NA
HETATM    8  N5  UNL     1      23.976  13.828  41.100  1.00  0.00    -0.224 N
ATOM      9  H5  UNL     1      23.606  12.889  41.248  1.00  0.00     0.177 HD
ENDROOT
BRANCH   1  10
HETATM   10  C4  UNL     1      21.514  16.097  41.806  1.00  0.00     0.145 C
BRANCH  10  11
HETATM   11  C3  UNL     1      21.209  15.901  43.264  1.00  0.00     0.096 C
BRANCH  11  12
HETATM   12  C2  UNL     1      22.116  16.615  44.172  1.00  0.00     0.075 C
HETATM   13  N1  UNL     1      22.307  16.120  45.346  1.00  0.00    -0.384 N
HETATM   14  C1  UNL     1      21.724  14.929  45.878  1.00  0.00     0.147 C
ATOM     15  H1  UNL     1      22.940  16.632  45.960  1.00  0.00     0.160 HD
BRANCH  12  16
HETATM   16  N8  UNL     1      22.759  17.821  43.756  1.00  0.00    -0.351 N
ATOM     17  H8  UNL     1      23.732  17.765  43.456  1.00  0.00     0.163 HD
BRANCH  16  18
HETATM   18  C14 UNL     1      22.129  19.096  43.732  1.00  0.00     0.253 C
HETATM   19  O2  UNL     1      22.973  20.175  43.499  1.00  0.00    -0.362 OA
HETATM   20  C15 UNL     1      22.035  21.232  43.610  1.00  0.00     0.198 C
HETATM   21  C16 UNL     1      21.514  20.956  45.025  1.00  0.00     0.141 C
HETATM   22  C18 UNL     1      21.352  19.453  44.973  1.00  0.00     0.191 C
BRANCH  21  23
HETATM   23  N9  UNL     1      22.511  21.400  45.955  1.00  0.00    -0.355 N
HETATM   24  C17 UNL     1      23.067  20.606  46.993  1.00  0.00     0.182 C
HETATM   25  N10 UNL     1      23.860  19.608  46.755  1.00  0.00    -0.374 N
HETATM   26  N11 UNL     1      22.727  20.932  48.331  1.00  0.00    -0.064 NA
ATOM     27 2H10 UNL     1      24.104  19.374  45.792  1.00  0.00     0.158 HD
ATOM     28 1H10 UNL     1      24.259  19.039  47.501  1.00  0.00     0.158 HD
ATOM     29  H9  UNL     1      22.847  22.358  45.864  1.00  0.00     0.162 HD
ENDBRANCH  21  23
BRANCH  22  30
HETATM   30  O3  UNL     1      19.985  19.200  44.803  1.00  0.00    -0.389 OA
ATOM     31  H3  UNL     1      19.806  18.267  44.802  1.00  0.00     0.210 HD
ENDBRANCH  22  30
ENDBRANCH  16  18
ENDBRANCH  12  16
ENDBRANCH  11  12
ENDBRANCH  10  11
ENDBRANCH   1  10
BRANCH   8  32
HETATM   32  C7  UNL     1      25.307  14.065  41.541  1.00  0.00     0.168 C
BRANCH  32  33
HETATM   33  C8  UNL     1      26.282  13.274  40.728  1.00  0.00     0.293 C
BRANCH  33  34
HETATM   34  N6  UNL     1      26.468  11.935  41.251  1.00  0.00     0.103 N
HETATM   35  C9  UNL     1      27.675  11.891  42.023  1.00  0.00     0.273 C
HETATM   36  C10 UNL     1      28.221  10.471  41.820  1.00  0.00     0.033 C
HETATM   37  C11 UNL     1      27.865  10.206  40.379  1.00  0.00     0.047 C
HETATM   38  C12 UNL     1      26.606  11.014  40.173  1.00  0.00     0.311 C
BRANCH  38  39
HETATM   39  C13 UNL     1      25.426  10.095  40.138  1.00  0.00     0.264 C
HETATM   40  N7  UNL     1      25.645   8.705  40.025  1.00  0.00    -0.060 NA
HETATM   41  O1  UNL     1      24.293  10.617  40.211  1.00  0.00    -0.274 OA
ENDBRANCH  38  39
ENDBRANCH  33  34
ENDBRANCH  32  33
ENDBRANCH   8  32
TORSDOF 11
ENDMDL