MODEL 1
REMARK VINA RESULT: -7.526333532      0.000      0.000
REMARK  10 active torsions:
REMARK  status: ('A' for Active; 'I' for Inactive)
REMARK    1  A    between atoms: N1_2  and  C2_4
REMARK    2  A    between atoms: C2_4  and  O1_5
REMARK    3  A    between atoms: C3_7  and  C4_8
REMARK    4  A    between atoms: C3_7  and  N7_30
REMARK    5  A    between atoms: C4_8  and  N2_9
REMARK    6  A    between atoms: C13_32  and  C14_33
REMARK    7  A    between atoms: C13_32  and  C18_43
REMARK    8  A    between atoms: C14_33  and  C15_34
REMARK    9  A    between atoms: C15_34  and  C16_35
REMARK   10  A    between atoms: C16_35  and  N8_36
REMARK       I    between atoms: C17_38  and  N10_40
ROOT
HETATM    1  C2  UNL     1      21.895  15.363  42.204  1.00  0.00     0.163 C
HETATM    2  C3  UNL     1      23.041  14.681  41.753  1.00  0.00     0.094 C
ENDROOT
BRANCH   2   3
HETATM    3  C4  UNL     1      23.443  14.798  40.353  1.00  0.00     0.095 C
BRANCH   3   4
HETATM    4  N2  UNL     1      23.606  15.933  39.578  1.00  0.00    -0.265 NA
HETATM    5  C5  UNL     1      24.612  16.802  40.377  1.00  0.00     0.124 C
HETATM    6  C6  UNL     1      25.940  16.295  39.924  1.00  0.00     0.247 C
HETATM    7  N3  UNL     1      26.348  16.700  38.617  1.00  0.00    -0.072 N
HETATM    8  C7  UNL     1      26.906  18.009  38.557  1.00  0.00     0.259 C
ATOM      9  H32 UNL     1      26.994  16.019  38.218  1.00  0.00     0.277 HD
ATOM     10  H31 UNL     1      25.574  16.611  37.959  1.00  0.00     0.277 HD
HETATM   11  C8  UNL     1      26.702  18.531  37.144  1.00  0.00     0.259 C
HETATM   12  N4  UNL     1      26.198  19.883  37.128  1.00  0.00    -0.072 N
HETATM   13  C9  UNL     1      24.858  20.008  37.631  1.00  0.00     0.260 C
ATOM     14  H42 UNL     1      26.829  20.508  37.628  1.00  0.00     0.277 HD
ATOM     15  H41 UNL     1      26.269  20.282  36.192  1.00  0.00     0.277 HD
HETATM   16  C10 UNL     1      23.787  19.679  36.653  1.00  0.00     0.261 C
HETATM   17  N5  UNL     1      23.466  18.245  36.702  1.00  0.00    -0.050 N
HETATM   18  C11 UNL     1      22.145  18.003  37.259  1.00  0.00     0.464 C
ATOM     19  H52 UNL     1      23.566  17.811  35.784  1.00  0.00     0.279 HD
ATOM     20  H51 UNL     1      24.181  17.722  37.205  1.00  0.00     0.279 HD
HETATM   21  N6  UNL     1      22.110  16.727  37.954  1.00  0.00    -0.040 N
HETATM   22  C12 UNL     1      22.528  16.822  39.320  1.00  0.00     0.330 C
ATOM     23  H62 UNL     1      21.185  16.301  37.885  1.00  0.00     0.280 HD
ATOM     24  H61 UNL     1      22.655  16.025  37.454  1.00  0.00     0.280 HD
ENDBRANCH   3   4
ENDBRANCH   2   3
BRANCH   2  25
HETATM   25  N7  UNL     1      23.164  13.313  42.191  1.00  0.00    -0.351 N
HETATM   26  C13 UNL     1      24.356  12.696  41.954  1.00  0.00     0.075 C
ATOM     27  H7  UNL     1      22.396  12.830  42.656  1.00  0.00     0.166 HD
BRANCH  26  28
HETATM   28  C14 UNL     1      24.561  11.268  41.606  1.00  0.00     0.067 C
BRANCH  28  29
HETATM   29  C15 UNL     1      24.904  10.995  40.198  1.00  0.00     0.051 C
BRANCH  29  30
HETATM   30  C16 UNL     1      26.322  10.960  39.837  1.00  0.00     0.064 C
BRANCH  30  31
HETATM   31  N8  UNL     1      27.007   9.731  39.465  1.00  0.00    -0.344 N
HETATM   32  C17 UNL     1      28.186   9.687  40.146  1.00  0.00     0.185 C
HETATM   33  N9  UNL     1      28.516  10.780  41.006  1.00  0.00    -0.064 NA
HETATM   34  N10 UNL     1      29.001   8.590  40.093  1.00  0.00    -0.374 N
ATOM     35 2H10 UNL     1      28.766   7.811  39.479  1.00  0.00     0.158 HD
ATOM     36 1H10 UNL     1      29.884   8.557  40.603  1.00  0.00     0.158 HD
ATOM     37  H8  UNL     1      26.665   9.028  38.810  1.00  0.00     0.167 HD
ENDBRANCH  30  31
ENDBRANCH  29  30
ENDBRANCH  28  29
ENDBRANCH  26  28
BRANCH  26  38
HETATM   38  C18 UNL     1      25.518  13.152  42.822  1.00  0.00     0.277 C
HETATM   39  N11 UNL     1      25.335  13.084  44.268  1.00  0.00    -0.056 NA
HETATM   40  O2  UNL     1      26.564  13.573  42.355  1.00  0.00    -0.270 OA
ENDBRANCH  26  38
ENDBRANCH   2  25
BRANCH   1  41
HETATM   41  N1  UNL     1      21.620  16.637  42.795  1.00  0.00    -0.373 N
HETATM   42  C1  UNL     1      20.474  16.724  43.724  1.00  0.00     0.148 C
ATOM     43  H1  UNL     1      22.192  17.454  42.583  1.00  0.00     0.161 HD
ENDBRANCH   1  41
BRANCH   1  44
HETATM   44  O1  UNL     1      20.761  14.643  42.060  1.00  0.00    -0.345 OA
ATOM     45  H1  UNL     1      20.066  14.993  42.604  1.00  0.00     0.219 HD
ENDBRANCH   1  44
TORSDOF 10
ENDMDL