MODEL 5
REMARK VINA RESULT: -5.782424395      6.943     10.045
REMARK  16 active torsions:
REMARK  status: ('A' for Active; 'I' for Inactive)
REMARK    1  A    between atoms: N1_2  and  C4_5
REMARK    2  A    between atoms: C5_6  and  C6_7
REMARK       I    between atoms: C6_7  and  N2_9
REMARK    3  A    between atoms: N2_9  and  C7_11
REMARK    4  A    between atoms: C7_11  and  O2_12
REMARK    5  A    between atoms: C7_11  and  C8_14
REMARK    6  A    between atoms: C8_14  and  O3_15
REMARK    7  A    between atoms: C8_14  and  C9_17
REMARK    8  A    between atoms: C9_17  and  O4_18
REMARK    9  A    between atoms: C9_17  and  C10_20
REMARK   10  A    between atoms: C10_20  and  O5_21
REMARK   11  A    between atoms: C12_24  and  N3_25
REMARK   12  A    between atoms: C15_29  and  C16_30
REMARK   13  A    between atoms: C16_30  and  C17_31
REMARK   14  A    between atoms: C17_31  and  O7_32
REMARK   15  A    between atoms: C18_34  and  O8_35
REMARK   16  A    between atoms: C19_37  and  O9_38
ROOT
HETATM    1  C4  UNL     1      23.193  15.398  41.741  1.00  0.00     0.233 C
HETATM    2  C5  UNL     1      24.635  15.379  42.055  1.00  0.00     0.113 C
HETATM    3  C11 UNL     1      25.296  16.453  41.184  1.00  0.00     0.044 C
HETATM    4  C12 UNL     1      24.983  16.285  39.736  1.00  0.00     0.119 C
HETATM    5  C18 UNL     1      23.585  15.942  39.413  1.00  0.00     0.171 C
HETATM    6  C19 UNL     1      22.945  14.945  40.352  1.00  0.00     0.180 C
ENDROOT
BRANCH   2   7
HETATM    7  C6  UNL     1      25.350  14.104  41.962  1.00  0.00     0.226 C
HETATM    8  O1  UNL     1      25.508  13.364  42.944  1.00  0.00    -0.273 OA
HETATM    9  N2  UNL     1      25.915  13.633  40.719  1.00  0.00    -0.332 N
ATOM     10  H2  UNL     1      25.811  14.207  39.882  1.00  0.00     0.165 HD
BRANCH   9  11
HETATM   11  C7  UNL     1      26.614  12.394  40.623  1.00  0.00     0.251 C
BRANCH  11  12
HETATM   12  O2  UNL     1      27.606  12.246  41.562  1.00  0.00    -0.374 OA
ATOM     13  H2  UNL     1      27.762  11.344  41.814  1.00  0.00     0.212 HD
ENDBRANCH  11  12
BRANCH  11  14
HETATM   14  C8  UNL     1      25.740  11.162  40.627  1.00  0.00     0.197 C
BRANCH  14  15
HETATM   15  O3  UNL     1      24.556  11.550  39.940  1.00  0.00    -0.389 OA
ATOM     16  H3  UNL     1      24.152  10.733  39.667  1.00  0.00     0.210 HD
ENDBRANCH  14  15
BRANCH  14  17
HETATM   17  C9  UNL     1      26.289  10.007  39.862  1.00  0.00     0.174 C
BRANCH  17  18
HETATM   18  O4  UNL     1      27.574   9.714  40.305  1.00  0.00    -0.391 OA
ATOM     19  H4  UNL     1      27.554   9.492  41.228  1.00  0.00     0.210 HD
ENDBRANCH  17  18
BRANCH  17  20
HETATM   20  C10 UNL     1      25.430   8.794  40.198  1.00  0.00     0.198 C
BRANCH  20  21
HETATM   21  O5  UNL     1      24.538   8.579  39.135  1.00  0.00    -0.398 OA
ATOM     22  H5  UNL     1      23.657   8.749  39.446  1.00  0.00     0.209 HD
ENDBRANCH  20  21
ENDBRANCH  17  20
ENDBRANCH  14  17
ENDBRANCH  11  14
ENDBRANCH   9  11
ENDBRANCH   2   7
BRANCH   1  23
HETATM   23  N1  UNL     1      22.322  14.890  42.751  1.00  0.00    -0.071 N
HETATM   24  C1  UNL     1      22.701  15.464  44.036  1.00  0.00     0.272 C
HETATM   25  C2  UNL     1      20.975  15.428  42.483  1.00  0.00     0.272 C
HETATM   26  C3  UNL     1      22.169  13.476  42.827  1.00  0.00     0.272 C
ENDBRANCH   1  23
BRANCH   6  27
HETATM   27  O9  UNL     1      21.563  14.975  40.080  1.00  0.00    -0.391 OA
ATOM     28  H9  UNL     1      21.117  14.321  40.605  1.00  0.00     0.210 HD
ENDBRANCH   6  27
BRANCH   4  29
HETATM   29  N3  UNL     1      25.316  17.538  39.066  1.00  0.00    -0.340 N
HETATM   30  C13 UNL     1      24.814  18.863  39.083  1.00  0.00     0.222 C
HETATM   31  O6  UNL     1      24.256  19.596  39.922  1.00  0.00    -0.273 OA
HETATM   32  C14 UNL     1      25.236  19.003  37.674  1.00  0.00     0.128 C
HETATM   33  C15 UNL     1      26.297  17.993  38.088  1.00  0.00     0.098 C
BRANCH  33  34
HETATM   34  C16 UNL     1      26.661  16.989  37.045  1.00  0.00     0.051 C
BRANCH  34  35
HETATM   35  C17 UNL     1      28.118  17.179  36.695  1.00  0.00     0.166 C
BRANCH  35  36
HETATM   36  O7  UNL     1      28.785  17.743  37.766  1.00  0.00    -0.401 OA
ATOM     37  H7  UNL     1      29.712  17.543  37.708  1.00  0.00     0.209 HD
ENDBRANCH  35  36
ENDBRANCH  34  35
ENDBRANCH  33  34
ENDBRANCH   4  29
BRANCH   5  38
HETATM   38  O8  UNL     1      22.724  17.036  39.333  1.00  0.00    -0.391 OA
ATOM     39  H8  UNL     1      21.888  16.851  38.920  1.00  0.00     0.210 HD
ENDBRANCH   5  38
TORSDOF 16
ENDMDL