MODEL 2
REMARK VINA RESULT: -7.229555388      5.491      9.539
REMARK  12 active torsions:
REMARK  status: ('A' for Active; 'I' for Inactive)
REMARK    1  A    between atoms: C2_2  and  C3_3
REMARK    2  A    between atoms: C3_3  and  O1_4
REMARK    3  A    between atoms: O1_4  and  C4_5
REMARK    4  A    between atoms: C5_6  and  O2_7
REMARK    5  A    between atoms: C6_9  and  N1_10
REMARK       I    between atoms: N1_10  and  C7_12
REMARK    6  A    between atoms: C11_17  and  N2_18
REMARK    7  A    between atoms: C12_22  and  C13_23
REMARK       I    between atoms: C13_23  and  N3_25
REMARK    8  A    between atoms: N3_25  and  C14_27
REMARK    9  A    between atoms: C14_27  and  C15_28
REMARK   10  A    between atoms: C15_28  and  C16_29
REMARK   11  A    between atoms: C16_29  and  N4_30
REMARK   12  A    between atoms: N7_35  and  N8_37
ROOT
HETATM    1  C4  UNL     1      18.676  23.066  43.517  1.00  0.00     0.167 C
HETATM    2  C5  UNL     1      18.652  24.342  42.773  1.00  0.00     0.171 C
HETATM    3  C6  UNL     1      19.157  25.559  43.452  1.00  0.00     0.121 C
HETATM    4  C9  UNL     1      20.303  25.204  44.353  1.00  0.00     0.038 C
HETATM    5  C10 UNL     1      21.456  24.558  43.661  1.00  0.00     0.014 C
HETATM    6  C11 UNL     1      19.711  24.338  45.445  1.00  0.00     0.204 C
HETATM    7  C12 UNL     1      19.149  23.051  44.909  1.00  0.00     0.140 C
ENDROOT
BRANCH   7   8
HETATM    8  C13 UNL     1      20.221  22.023  45.119  1.00  0.00     0.231 C
HETATM    9  O4  UNL     1      20.935  22.102  46.145  1.00  0.00    -0.273 OA
HETATM   10  N3  UNL     1      20.463  20.966  44.213  1.00  0.00    -0.315 N
ATOM     11  H3  UNL     1      19.870  20.920  43.384  1.00  0.00     0.170 HD
BRANCH  10  12
HETATM   12  C14 UNL     1      21.452  19.968  44.352  1.00  0.00     0.100 C
HETATM   13  N7  UNL     1      22.676  20.236  44.088  1.00  0.00    -0.287 N
ATOM     14  H7  UNL     1      23.394  19.518  44.185  1.00  0.00     0.188 HD
BRANCH  12  15
HETATM   15  C15 UNL     1      21.125  18.604  44.792  1.00  0.00     0.097 C
BRANCH  15  16
HETATM   16  C16 UNL     1      21.733  17.553  43.877  1.00  0.00     0.129 C
BRANCH  16  17
HETATM   17  N4  UNL     1      22.427  16.607  44.684  1.00  0.00    -0.366 N
HETATM   18  C17 UNL     1      21.975  15.413  44.812  1.00  0.00     0.196 C
HETATM   19  N5  UNL     1      20.784  15.049  44.143  1.00  0.00    -0.067 NA
HETATM   20  N6  UNL     1      22.716  14.526  45.628  1.00  0.00    -0.067 NA
ATOM     21  H4  UNL     1      23.286  16.880  45.161  1.00  0.00     0.161 HD
ENDBRANCH  16  17
ENDBRANCH  15  16
ENDBRANCH  12  15
BRANCH  13  22
HETATM   22  N8  UNL     1      23.015  21.516  43.668  1.00  0.00    -0.275 N
HETATM   23  C18 UNL     1      23.621  21.693  42.567  1.00  0.00     0.215 C
HETATM   24  N9  UNL     1      23.999  22.977  42.072  1.00  0.00    -0.065 NA
HETATM   25  N10 UNL     1      23.951  20.563  41.770  1.00  0.00    -0.065 NA
ATOM     26  H8  UNL     1      22.774  22.320  44.250  1.00  0.00     0.189 HD
ENDBRANCH  13  22
ENDBRANCH  10  12
ENDBRANCH   7   8
BRANCH   1  27
HETATM   27  O1  UNL     1      17.347  22.577  43.501  1.00  0.00    -0.379 OA
BRANCH  27  28
HETATM   28  C3  UNL     1      16.927  22.162  44.760  1.00  0.00     0.195 C
BRANCH  28  29
HETATM   29  C2  UNL     1      16.417  20.783  44.764  1.00  0.00    -0.011 C
HETATM   30  C1  UNL     1      16.972  19.812  45.518  1.00  0.00     0.009 C
ENDBRANCH  28  29
ENDBRANCH  27  28
ENDBRANCH   1  27
BRANCH   6  31
HETATM   31  N2  UNL     1      18.689  25.132  46.108  1.00  0.00    -0.074 N
ATOM     32  H23 UNL     1      19.028  25.601  46.947  1.00  0.00     0.274 HD
ATOM     33  H22 UNL     1      18.431  25.970  45.587  1.00  0.00     0.274 HD
ATOM     34  H21 UNL     1      17.900  24.512  46.285  1.00  0.00     0.274 HD
ENDBRANCH   6  31
BRANCH   2  35
HETATM   35  O2  UNL     1      17.365  24.675  42.276  1.00  0.00    -0.391 OA
ATOM     36  H2  UNL     1      17.349  25.498  41.802  1.00  0.00     0.210 HD
ENDBRANCH   2  35
BRANCH   3  37
HETATM   37  N1  UNL     1      19.529  26.584  42.538  1.00  0.00    -0.354 N
HETATM   38  C7  UNL     1      19.135  27.931  42.720  1.00  0.00     0.214 C
HETATM   39  C8  UNL     1      19.489  29.026  41.810  1.00  0.00     0.117 C
HETATM   40  O3  UNL     1      18.428  28.200  43.739  1.00  0.00    -0.274 OA
ATOM     41  H1  UNL     1      20.097  26.339  41.726  1.00  0.00     0.163 HD
ENDBRANCH   3  37
TORSDOF 12
ENDMDL