MODEL 1
REMARK VINA RESULT: -8.037034139      0.000      0.000
REMARK  14 active torsions:
REMARK  status: ('A' for Active; 'I' for Inactive)
REMARK    1  A    between atoms: C2_3  and  S1_4
REMARK    2  A    between atoms: S1_4  and  C3_5
REMARK    3  A    between atoms: C3_5  and  C4_6
REMARK       I    between atoms: C4_6  and  N2_8
REMARK    4  A    between atoms: N2_8  and  C5_10
REMARK    5  A    between atoms: C6_11  and  O2_12
REMARK    6  A    between atoms: C7_14  and  N3_15
REMARK    7  A    between atoms: C9_17  and  C10_18
REMARK    8  A    between atoms: C12_22  and  C13_23
REMARK    9  A    between atoms: C15_34  and  C16_35
REMARK   10  A    between atoms: C16_35  and  O4_36
REMARK   11  A    between atoms: C16_35  and  O5_38
REMARK   12  A    between atoms: C17_44  and  C18_45
REMARK   13  A    between atoms: C18_45  and  N12_46
REMARK   14  A    between atoms: C18_45  and  N13_50
ROOT
HETATM    1  C5  UNL     1      60.940  13.241  30.473  1.00  0.00     0.152 C
HETATM    2  C6  UNL     1      59.737  14.121  30.534  1.00  0.00     0.194 C
HETATM    3  C7  UNL     1      59.179  13.899  31.899  1.00  0.00     0.335 C
HETATM    4  N9  UNL     1      59.637  12.596  32.341  1.00  0.00    -0.039 N
ATOM      5  H91 UNL     1      58.968  11.847  32.164  1.00  0.00     0.280 HD
ATOM      6  H92 UNL     1      59.667  12.497  33.356  1.00  0.00     0.280 HD
HETATM    7  C15 UNL     1      60.921  12.391  31.699  1.00  0.00     0.267 C
ENDROOT
BRANCH   1   8
HETATM    8  N2  UNL     1      62.111  14.092  30.432  1.00  0.00    -0.351 N
HETATM    9  C4  UNL     1      63.147  13.808  29.518  1.00  0.00     0.227 C
HETATM   10  O1  UNL     1      63.047  12.831  28.753  1.00  0.00    -0.273 OA
ATOM     11  H2  UNL     1      62.186  14.892  31.060  1.00  0.00     0.163 HD
BRANCH   9  12
HETATM   12  C3  UNL     1      64.350  14.663  29.461  1.00  0.00     0.185 C
BRANCH  12  13
HETATM   13  S1  UNL     1      64.322  15.624  27.945  1.00  0.00    -0.083 SA
BRANCH  13  14
HETATM   14  C2  UNL     1      62.651  15.631  27.305  1.00  0.00     0.162 A
HETATM   15  N1  UNL     1      61.624  16.382  27.713  1.00  0.00    -0.316 N
HETATM   16  C1  UNL     1      61.656  17.368  28.780  1.00  0.00     0.160 C
HETATM   17  C17 UNL     1      60.513  16.119  27.001  1.00  0.00     0.158 A
HETATM   18  N11 UNL     1      60.872  15.168  26.120  1.00  0.00    -0.284 N
HETATM   19  N10 UNL     1      62.147  14.867  26.291  1.00  0.00    -0.278 N
ATOM     20  H11 UNL     1      60.255  14.743  25.428  1.00  0.00     0.188 HD
ATOM     21  H10 UNL     1      62.671  14.177  25.752  1.00  0.00     0.189 HD
BRANCH  17  22
HETATM   22  C18 UNL     1      59.157  16.718  27.120  1.00  0.00     0.446 C
BRANCH  22  23
HETATM   23  N12 UNL     1      59.221  18.163  27.043  1.00  0.00    -0.043 N
ATOM     24 3H12 UNL     1      59.988  18.474  26.448  1.00  0.00     0.277 HD
ATOM     25 2H12 UNL     1      58.443  18.546  26.505  1.00  0.00     0.277 HD
ATOM     26 1H12 UNL     1      59.276  18.575  27.974  1.00  0.00     0.277 HD
ENDBRANCH  22  23
BRANCH  22  27
HETATM   27  N13 UNL     1      58.252  16.192  26.134  1.00  0.00    -0.043 N
ATOM     28 3H13 UNL     1      58.735  15.985  25.260  1.00  0.00     0.277 HD
ATOM     29 2H13 UNL     1      57.947  15.249  26.376  1.00  0.00     0.277 HD
ATOM     30 1H13 UNL     1      57.456  16.811  25.981  1.00  0.00     0.277 HD
ENDBRANCH  22  27
ENDBRANCH  17  22
ENDBRANCH  13  14
ENDBRANCH  12  13
ENDBRANCH   9  12
ENDBRANCH   1   8
BRANCH   2  31
HETATM   31  O2  UNL     1      58.777  13.791  29.579  1.00  0.00    -0.390 OA
ATOM     32  H2  UNL     1      58.825  14.340  28.805  1.00  0.00     0.210 HD
ENDBRANCH   2  31
BRANCH   7  33
HETATM   33  C16 UNL     1      61.068  10.919  31.421  1.00  0.00     0.286 C
BRANCH  33  34
HETATM   34  O4  UNL     1      59.937  10.507  30.705  1.00  0.00    -0.369 OA
ATOM     35  H4  UNL     1      59.806   9.583  30.880  1.00  0.00     0.212 HD
ENDBRANCH  33  34
BRANCH  33  36
HETATM   36  O5  UNL     1      61.210  10.175  32.584  1.00  0.00    -0.369 OA
ATOM     37  H5  UNL     1      61.560   9.309  32.417  1.00  0.00     0.212 HD
ENDBRANCH  33  36
ENDBRANCH   7  33
BRANCH   3  38
HETATM   38  N3  UNL     1      57.738  13.993  31.826  1.00  0.00    -0.251 N
HETATM   39  C8  UNL     1      56.927  12.945  31.624  1.00  0.00     0.142 A
HETATM   40  C9  UNL     1      55.628  13.395  31.610  1.00  0.00     0.077 A
HETATM   41  N7  UNL     1      55.708  14.720  31.809  1.00  0.00    -0.282 N
HETATM   42  N8  UNL     1      56.975  15.076  31.938  1.00  0.00    -0.018 NA
ATOM     43  H7  UNL     1      54.913  15.356  31.854  1.00  0.00     0.184 HD
BRANCH  40  44
HETATM   44  C10 UNL     1      54.388  12.576  31.413  1.00  0.00     0.050 A
HETATM   45  C11 UNL     1      53.318  12.685  32.261  1.00  0.00     0.102 A
HETATM   46  N4  UNL     1      53.207  13.552  33.419  1.00  0.00    -0.093 NA
HETATM   47  S2  UNL     1      52.196  11.577  31.624  1.00  0.00    -0.067 SA
HETATM   48  C12 UNL     1      53.100  11.000  30.304  1.00  0.00     0.096 A
HETATM   49  C14 UNL     1      54.274  11.695  30.390  1.00  0.00     0.083 A
HETATM   50  N6  UNL     1      55.321  11.452  29.393  1.00  0.00    -0.100 NA
BRANCH  48  51
HETATM   51  C13 UNL     1      52.719   9.985  29.289  1.00  0.00     0.273 C
HETATM   52  N5  UNL     1      53.600   8.938  28.946  1.00  0.00    -0.057 NA
HETATM   53  O3  UNL     1      51.606  10.048  28.718  1.00  0.00    -0.270 OA
ENDBRANCH  48  51
ENDBRANCH  40  44
ENDBRANCH   3  38
TORSDOF 14
ENDMDL