MODEL 1
REMARK VINA RESULT: -8.131805533      0.000      0.000
REMARK  15 active torsions:
REMARK  status: ('A' for Active; 'I' for Inactive)
REMARK    1  A    between atoms: N2_6  and  C2_7
REMARK    2  A    between atoms: C2_7  and  C3_8
REMARK    3  A    between atoms: C3_8  and  O2_9
REMARK    4  A    between atoms: C3_8  and  C4_11
REMARK    5  A    between atoms: C4_11  and  O3_12
REMARK    6  A    between atoms: C6_15  and  C7_16
REMARK    7  A    between atoms: N5_21  and  C8_22
REMARK    8  A    between atoms: C9_25  and  C10_26
REMARK       I    between atoms: C10_26  and  N7_28
REMARK    9  A    between atoms: N7_28  and  C11_30
REMARK   10  A    between atoms: C13_34  and  C14_35
REMARK   11  A    between atoms: C14_35  and  N10_36
REMARK   12  A    between atoms: C16_38  and  C17_39
REMARK   13  A    between atoms: C17_39  and  O5_40
REMARK   14  A    between atoms: C17_39  and  O6_42
REMARK   15  A    between atoms: C18_48  and  O8_49
ROOT
HETATM    1  C8  UNL     1      54.901  11.965  31.039  1.00  0.00     0.256 A
HETATM    2  N6  UNL     1      55.505  10.769  31.210  1.00  0.00    -0.312 N
ATOM      3  H6  UNL     1      56.419  10.633  31.643  1.00  0.00     0.170 HD
HETATM    4  C9  UNL     1      54.732   9.791  30.730  1.00  0.00     0.163 A
HETATM    5  C18 UNL     1      53.594  10.423  30.241  1.00  0.00     0.219 A
HETATM    6  O9  UNL     1      53.746  11.696  30.447  1.00  0.00    -0.252 OA
ENDROOT
BRANCH   4   7
HETATM    7  C10 UNL     1      55.012   8.368  30.716  1.00  0.00     0.275 C
HETATM    8  O4  UNL     1      54.073   7.571  30.467  1.00  0.00    -0.266 OA
HETATM    9  N7  UNL     1      56.284   7.838  30.966  1.00  0.00    -0.328 N
ATOM     10  H7  UNL     1      57.050   8.482  31.168  1.00  0.00     0.165 HD
BRANCH   9  11
HETATM   11  C11 UNL     1      56.559   6.416  30.948  1.00  0.00     0.241 C
HETATM   12  C12 UNL     1      57.441   6.055  29.783  1.00  0.00     0.184 C
HETATM   13  N8  UNL     1      57.992   4.735  29.870  1.00  0.00    -0.142 NA
HETATM   14  N9  UNL     1      57.526   4.021  30.975  1.00  0.00    -0.114 NA
HETATM   15  C13 UNL     1      57.782   4.832  32.142  1.00  0.00     0.252 C
HETATM   16  O7  UNL     1      56.963   5.937  32.151  1.00  0.00    -0.341 OA
BRANCH  15  17
HETATM   17  C14 UNL     1      59.248   5.186  32.276  1.00  0.00     0.196 C
BRANCH  17  18
HETATM   18  N10 UNL     1      59.458   5.676  33.638  1.00  0.00    -0.281 N
HETATM   19  C15 UNL     1      60.389   6.605  33.991  1.00  0.00     0.139 A
HETATM   20  C16 UNL     1      60.318   6.843  35.353  1.00  0.00     0.095 A
HETATM   21  N11 UNL     1      59.325   6.032  35.784  1.00  0.00    -0.282 N
HETATM   22  N12 UNL     1      58.826   5.345  34.748  1.00  0.00    -0.020 NA
ATOM     23  H11 UNL     1      59.006   5.955  36.750  1.00  0.00     0.184 HD
BRANCH  20  24
HETATM   24  C17 UNL     1      61.164   7.788  36.125  1.00  0.00     0.307 C
BRANCH  24  25
HETATM   25  O5  UNL     1      60.337   8.447  37.062  1.00  0.00    -0.366 OA
ATOM     26  H5  UNL     1      60.770   8.420  37.906  1.00  0.00     0.213 HD
ENDBRANCH  24  25
BRANCH  24  27
HETATM   27  O6  UNL     1      61.786   8.672  35.282  1.00  0.00    -0.366 OA
ATOM     28  H6  UNL     1      62.617   8.951  35.649  1.00  0.00     0.213 HD
ENDBRANCH  24  27
ENDBRANCH  20  24
ENDBRANCH  17  18
ENDBRANCH  15  17
ENDBRANCH   9  11
ENDBRANCH   4   7
BRANCH   5  29
HETATM   29  O8  UNL     1      52.511   9.771  29.644  1.00  0.00    -0.339 OA
ATOM     30  H8  UNL     1      52.486   9.473  28.743  1.00  0.00     0.220 HD
ENDBRANCH   5  29
BRANCH   1  31
HETATM   31  N5  UNL     1      55.399  13.239  31.413  1.00  0.00    -0.185 N
HETATM   32  C7  UNL     1      56.591  13.828  31.420  1.00  0.00     0.164 A
HETATM   33  N3  UNL     1      55.948  14.928  31.938  1.00  0.00    -0.268 N
HETATM   34  N4  UNL     1      54.785  14.322  31.920  1.00  0.00    -0.230 N
ATOM     35  H3  UNL     1      56.256  15.857  32.226  1.00  0.00     0.190 HD
ATOM     36  H4  UNL     1      53.829  14.566  32.178  1.00  0.00     0.209 HD
BRANCH  32  37
HETATM   37  C6  UNL     1      57.986  13.579  31.094  1.00  0.00     0.082 A
HETATM   38  C1  UNL     1      58.849  14.337  30.360  1.00  0.00     0.179 A
HETATM   39  N1  UNL     1      58.596  15.456  29.789  1.00  0.00    -0.377 N
HETATM   40  O1  UNL     1      60.025  13.698  30.340  1.00  0.00    -0.217 OA
ATOM     41  H12 UNL     1      59.242  16.024  29.240  1.00  0.00     0.158 HD
ATOM     42  H11 UNL     1      57.700  15.942  29.804  1.00  0.00     0.158 HD
HETATM   43  N2  UNL     1      59.970  12.600  31.001  1.00  0.00    -0.259 N
HETATM   44  C5  UNL     1      58.724  12.475  31.495  1.00  0.00     0.137 A
BRANCH  43  45
HETATM   45  C2  UNL     1      60.987  11.596  31.236  1.00  0.00     0.189 C
BRANCH  45  46
HETATM   46  C3  UNL     1      61.418  11.533  32.665  1.00  0.00     0.162 C
BRANCH  46  47
HETATM   47  O2  UNL     1      61.432  10.227  33.097  1.00  0.00    -0.392 OA
ATOM     48  H2  UNL     1      60.663  10.051  33.627  1.00  0.00     0.210 HD
ENDBRANCH  46  47
BRANCH  46  49
HETATM   49  C4  UNL     1      62.743  12.235  32.893  1.00  0.00     0.197 C
BRANCH  49  50
HETATM   50  O3  UNL     1      62.626  13.333  33.709  1.00  0.00    -0.398 OA
ATOM     51  H3  UNL     1      61.842  13.310  34.245  1.00  0.00     0.209 HD
ENDBRANCH  49  50
ENDBRANCH  46  49
ENDBRANCH  45  46
ENDBRANCH  43  45
ENDBRANCH  32  37
ENDBRANCH   1  31
TORSDOF 15
ENDMDL