MODEL 1
REMARK VINA RESULT: -9.961565198      0.000      0.000
REMARK  15 active torsions:
REMARK  status: ('A' for Active; 'I' for Inactive)
REMARK    1  A    between atoms: N1_1  and  C1_5
REMARK    2  A    between atoms: C2_9  and  O1_10
REMARK    3  A    between atoms: O1_10  and  C3_11
REMARK    4  A    between atoms: C4_12  and  O2_13
REMARK    5  A    between atoms: C5_18  and  N6_19
REMARK       I    between atoms: N6_19  and  C6_21
REMARK    6  A    between atoms: C6_21  and  C7_23
REMARK    7  A    between atoms: C7_23  and  N7_24
REMARK    8  A    between atoms: C8_29  and  C9_30
REMARK    9  A    between atoms: C9_30  and  N10_31
REMARK       I    between atoms: N10_31  and  C10_32
REMARK   10  A    between atoms: C10_32  and  C11_34
REMARK   11  A    between atoms: C11_34  and  C12_35
REMARK   12  A    between atoms: C11_34  and  C19_44
REMARK   13  A    between atoms: C12_35  and  C13_36
REMARK   14  A    between atoms: C18_41  and  O6_42
REMARK   15  A    between atoms: N14_51  and  O7_52
ROOT
HETATM    1  N7  UNL     1      59.959  12.384  31.694  1.00  0.00    -0.209 N
HETATM    2  N8  UNL     1      59.179  13.380  31.932  1.00  0.00    -0.224 N
ATOM      3  H8  UNL     1      59.376  14.181  32.531  1.00  0.00     0.210 HD
HETATM    4  N9  UNL     1      58.064  13.157  31.239  1.00  0.00    -0.267 N
ATOM      5  H9  UNL     1      57.252  13.773  31.238  1.00  0.00     0.190 HD
HETATM    6  C8  UNL     1      58.147  12.046  30.561  1.00  0.00     0.166 A
HETATM    7  N15 UNL     1      59.416  11.484  30.818  1.00  0.00    -0.264 N
ATOM      8  H15 UNL     1      59.824  10.626  30.445  1.00  0.00     0.190 HD
ENDROOT
BRANCH   6   9
HETATM    9  C9  UNL     1      57.020  11.405  29.824  1.00  0.00     0.237 C
BRANCH   9  10
HETATM   10  N10 UNL     1      56.126  10.974  30.737  1.00  0.00    -0.379 NA
HETATM   11  C10 UNL     1      55.361  10.310  31.737  1.00  0.00     0.306 C
HETATM   12  O5  UNL     1      55.006   9.621  32.438  1.00  0.00    -0.256 OA
BRANCH  11  13
HETATM   13  C11 UNL     1      54.315  11.728  31.766  1.00  0.00     0.190 C
BRANCH  13  14
HETATM   14  C12 UNL     1      54.205  12.156  33.098  1.00  0.00     0.010 C
BRANCH  14  15
HETATM   15  C13 UNL     1      53.340  13.357  33.328  1.00  0.00    -0.005 A
HETATM   16  C14 UNL     1      53.366  14.363  32.544  1.00  0.00     0.014 A
HETATM   17  C15 UNL     1      52.749  15.683  32.972  1.00  0.00     0.001 A
HETATM   18  C16 UNL     1      52.228  15.663  34.236  1.00  0.00     0.003 A
HETATM   19  C17 UNL     1      52.198  14.560  35.114  1.00  0.00     0.037 A
HETATM   20  C18 UNL     1      52.740  13.427  34.638  1.00  0.00     0.075 A
BRANCH  20  21
HETATM   21  O6  UNL     1      52.698  12.306  35.529  1.00  0.00    -0.360 OA
ATOM     22  H6  UNL     1      53.416  12.087  36.111  1.00  0.00     0.217 HD
ENDBRANCH  20  21
ENDBRANCH  14  15
ENDBRANCH  13  14
BRANCH  13  23
HETATM   23  C19 UNL     1      53.194  11.220  30.898  1.00  0.00     0.163 A
HETATM   24  N11 UNL     1      51.834  11.159  31.453  1.00  0.00    -0.269 N
HETATM   25  N12 UNL     1      51.107  10.607  30.561  1.00  0.00    -0.225 N
ATOM     26  H11 UNL     1      51.532  11.491  32.369  1.00  0.00     0.190 HD
HETATM   27  N13 UNL     1      51.818  10.379  29.506  1.00  0.00    -0.200 N
ATOM     28  H12 UNL     1      50.118  10.380  30.664  1.00  0.00     0.210 HD
HETATM   29  N14 UNL     1      53.129  10.774  29.728  1.00  0.00    -0.132 N
ATOM     30  H13 UNL     1      51.467   9.970  28.639  1.00  0.00     0.212 HD
BRANCH  29  31
HETATM   31  O7  UNL     1      54.133  10.693  28.751  1.00  0.00    -0.265 OA
ATOM     32  H7  UNL     1      54.167  10.159  27.966  1.00  0.00     0.247 HD
ENDBRANCH  29  31
ENDBRANCH  13  23
ENDBRANCH  11  13
ENDBRANCH   9  10
ENDBRANCH   6   9
BRANCH   1  33
HETATM   33  C7  UNL     1      61.265  12.153  32.358  1.00  0.00     0.274 C
BRANCH  33  34
HETATM   34  C6  UNL     1      62.320  13.156  32.113  1.00  0.00     0.244 C
HETATM   35  N6  UNL     1      62.591  13.264  30.650  1.00  0.00    -0.308 N
ATOM     36  H6  UNL     1      62.560  12.418  30.080  1.00  0.00     0.170 HD
HETATM   37  O4  UNL     1      63.007  13.827  32.794  1.00  0.00    -0.271 OA
BRANCH  35  38
HETATM   38  C5  UNL     1      62.855  14.349  30.099  1.00  0.00     0.167 A
HETATM   39  C3  UNL     1      62.210  15.095  29.112  1.00  0.00     0.177 A
HETATM   40  C4  UNL     1      62.953  16.389  29.131  1.00  0.00     0.242 A
HETATM   41  O3  UNL     1      63.870  16.133  30.080  1.00  0.00    -0.208 OA
HETATM   42  N5  UNL     1      63.943  15.199  30.584  1.00  0.00    -0.239 N
ATOM     43  H5  UNL     1      64.644  14.943  31.279  1.00  0.00     0.196 HD
BRANCH  39  44
HETATM   44  O1  UNL     1      61.273  15.040  28.211  1.00  0.00    -0.316 OA
BRANCH  44  45
HETATM   45  C2  UNL     1      59.952  15.269  28.076  1.00  0.00     0.286 C
HETATM   46  C1  UNL     1      59.262  16.465  27.483  1.00  0.00     0.339 C
HETATM   47  N2  UNL     1      57.932  16.370  28.069  1.00  0.00    -0.092 NA
HETATM   48  N3  UNL     1      58.024  15.593  29.227  1.00  0.00    -0.035 NA
HETATM   49  N4  UNL     1      59.372  15.403  29.462  1.00  0.00    -0.094 NA
BRANCH  46  50
HETATM   50  N1  UNL     1      59.136  16.376  26.032  1.00  0.00    -0.056 N
ATOM     51  H13 UNL     1      58.318  15.841  25.743  1.00  0.00     0.276 HD
ATOM     52  H12 UNL     1      58.878  17.266  25.607  1.00  0.00     0.276 HD
ATOM     53  H11 UNL     1      60.005  15.999  25.654  1.00  0.00     0.276 HD
ENDBRANCH  46  50
ENDBRANCH  44  45
ENDBRANCH  39  44
BRANCH  40  54
HETATM   54  O2  UNL     1      62.824  17.529  28.468  1.00  0.00    -0.337 OA
ATOM     55  H2  UNL     1      62.508  17.752  27.600  1.00  0.00     0.220 HD
ENDBRANCH  40  54
ENDBRANCH  35  38
ENDBRANCH  33  34
ENDBRANCH   1  33
TORSDOF 15
ENDMDL