MODEL 2
REMARK VINA RESULT: -8.340975188      2.332      3.535
REMARK  14 active torsions:
REMARK  status: ('A' for Active; 'I' for Inactive)
REMARK    1  A    between atoms: C2_2  and  C4_4
REMARK    2  A    between atoms: C4_4  and  O1_5
REMARK    3  A    between atoms: C4_4  and  C5_7
REMARK    4  A    between atoms: C4_4  and  C7_13
REMARK    5  A    between atoms: C5_7  and  C6_8
REMARK    6  A    between atoms: C6_8  and  O2_9
REMARK    7  A    between atoms: C6_8  and  O3_11
REMARK    8  A    between atoms: C8_16  and  N2_17
REMARK    9  A    between atoms: N2_17  and  C9_19
REMARK   10  A    between atoms: C11_23  and  C12_24
REMARK       I    between atoms: C12_24  and  N4_26
REMARK   11  A    between atoms: N4_26  and  N5_27
REMARK   12  A    between atoms: C15_36  and  O7_37
REMARK   13  A    between atoms: C16_39  and  N8_40
REMARK   14  A    between atoms: N8_40  and  C17_42
ROOT
HETATM    1  C7  UNL     1      55.436  10.669  30.529  1.00  0.00     0.090 A
HETATM    2  N1  UNL     1      56.546  11.223  30.944  1.00  0.00    -0.336 N
ATOM      3  H1  UNL     1      56.641  11.437  31.937  1.00  0.00     0.168 HD
HETATM    4  C8  UNL     1      57.517  11.509  30.164  1.00  0.00     0.137 A
HETATM    5  C16 UNL     1      57.314  11.181  28.794  1.00  0.00     0.136 A
HETATM    6  S1  UNL     1      55.744  10.515  28.829  1.00  0.00    -0.051 SA
ENDROOT
BRANCH   4   7
HETATM    7  N2  UNL     1      58.720  12.166  30.520  1.00  0.00    -0.365 N
ATOM      8  H2  UNL     1      59.163  11.702  31.313  1.00  0.00     0.161 HD
BRANCH   7   9
HETATM    9  C9  UNL     1      59.477  13.263  30.104  1.00  0.00     0.140 C
HETATM   10  C10 UNL     1      58.948  14.532  29.619  1.00  0.00     0.231 C
HETATM   11  O4  UNL     1      60.005  15.152  28.835  1.00  0.00    -0.254 OA
HETATM   12  N3  UNL     1      61.305  15.500  29.220  1.00  0.00    -0.131 N
HETATM   13  C11 UNL     1      61.936  16.608  28.833  1.00  0.00     0.241 A
HETATM   14  N7  UNL     1      62.082  14.835  30.045  1.00  0.00    -0.211 N
HETATM   15  N6  UNL     1      63.170  16.614  29.471  1.00  0.00    -0.284 N
HETATM   16  C13 UNL     1      63.232  15.503  30.210  1.00  0.00     0.344 A
ATOM     17  H6  UNL     1      63.892  17.330  29.391  1.00  0.00     0.172 HD
HETATM   18  O6  UNL     1      64.223  15.183  30.930  1.00  0.00    -0.245 OA
HETATM   19  C14 UNL     1      61.865  13.578  30.748  1.00  0.00     0.190 C
HETATM   20  C15 UNL     1      60.435  13.624  31.301  1.00  0.00     0.163 C
BRANCH  13  21
HETATM   21  C12 UNL     1      61.471  17.672  27.908  1.00  0.00     0.383 C
HETATM   22  O5  UNL     1      62.267  18.554  27.602  1.00  0.00    -0.246 OA
HETATM   23  N4  UNL     1      60.113  17.515  27.467  1.00  0.00    -0.285 NA
BRANCH  23  24
HETATM   24  N5  UNL     1      58.955  17.389  27.083  1.00  0.00    -0.276 N
ATOM     25  H52 UNL     1      59.877  17.826  27.083  1.00  0.00     0.191 HD
ATOM     26  H51 UNL     1      57.991  17.278  26.770  1.00  0.00     0.191 HD
ENDBRANCH  23  24
ENDBRANCH  13  21
BRANCH  20  27
HETATM   27  O7  UNL     1      60.346  12.718  32.318  1.00  0.00    -0.392 OA
ATOM     28  H7  UNL     1      61.175  12.605  32.767  1.00  0.00     0.210 HD
ENDBRANCH  20  27
ENDBRANCH   7   9
ENDBRANCH   4   7
BRANCH   5  29
HETATM   29  N8  UNL     1      58.302  11.291  27.782  1.00  0.00    -0.181 N
ATOM     30  H8  UNL     1      59.186  10.814  27.958  1.00  0.00     0.185 HD
BRANCH  29  31
HETATM   31  C17 UNL     1      58.201  11.965  26.598  1.00  0.00     0.692 C
HETATM   32  N9  UNL     1      57.583  11.644  25.546  1.00  0.00    -0.210 N
HETATM   33  C18 UNL     1      57.730  12.663  24.472  1.00  0.00     0.271 C
ATOM     34  H9  UNL     1      57.045  10.784  25.444  1.00  0.00     0.179 HD
HETATM   35  N10 UNL     1      57.354  13.936  25.037  1.00  0.00    -0.106 NA
HETATM   36  N11 UNL     1      58.266  14.343  26.002  1.00  0.00    -0.015 NA
HETATM   37  N12 UNL     1      58.909  13.262  26.558  1.00  0.00    -0.119 N
ATOM     38  H12 UNL     1      59.853  13.353  26.933  1.00  0.00     0.202 HD
ENDBRANCH  29  31
ENDBRANCH   5  29
BRANCH   1  39
HETATM   39  C4  UNL     1      54.220  10.231  31.306  1.00  0.00     0.114 C
BRANCH  39  40
HETATM   40  C2  UNL     1      53.379  11.344  31.785  1.00  0.00     0.019 C
HETATM   41  C1  UNL     1      52.904  11.237  33.207  1.00  0.00     0.013 C
HETATM   42  C3  UNL     1      52.083  11.333  30.936  1.00  0.00     0.013 C
ENDBRANCH  39  40
BRANCH  39  43
HETATM   43  O1  UNL     1      53.437   9.578  30.288  1.00  0.00    -0.382 OA
ATOM     44  H1  UNL     1      53.957   8.832  30.015  1.00  0.00     0.211 HD
ENDBRANCH  39  43
BRANCH  39  45
HETATM   45  C5  UNL     1      54.697   9.206  32.262  1.00  0.00     0.105 C
BRANCH  45  46
HETATM   46  C6  UNL     1      55.289   7.965  31.727  1.00  0.00     0.257 C
BRANCH  46  47
HETATM   47  O2  UNL     1      54.186   7.088  31.423  1.00  0.00    -0.371 OA
ATOM     48  H2  UNL     1      54.486   6.513  30.729  1.00  0.00     0.212 HD
ENDBRANCH  46  47
BRANCH  46  49
HETATM   49  O3  UNL     1      56.007   7.245  32.708  1.00  0.00    -0.371 OA
ATOM     50  H3  UNL     1      55.509   6.516  33.058  1.00  0.00     0.212 HD
ENDBRANCH  46  49
ENDBRANCH  45  46
ENDBRANCH  39  45
ENDBRANCH   1  39
TORSDOF 14
ENDMDL