MODEL 3
REMARK VINA RESULT: -7.856596022      1.648      2.334
REMARK  18 active torsions:
REMARK  status: ('A' for Active; 'I' for Inactive)
REMARK    1  A    between atoms: O1_2  and  C2_3
REMARK    2  A    between atoms: C2_3  and  O3_21
REMARK    3  A    between atoms: N1_4  and  N2_6
REMARK    4  A    between atoms: C5_10  and  C6_11
REMARK    5  A    between atoms: C7_17  and  N6_18
REMARK    6  A    between atoms: O3_21  and  C8_22
REMARK    7  A    between atoms: C8_22  and  C13_35
REMARK    8  A    between atoms: C9_23  and  O4_24
REMARK    9  A    between atoms: O4_24  and  C10_25
REMARK   10  A    between atoms: C10_25  and  C11_27
REMARK   11  A    between atoms: C11_27  and  O6_28
REMARK   12  A    between atoms: C11_27  and  C12_30
REMARK   13  A    between atoms: C12_30  and  O7_31
REMARK   14  A    between atoms: C12_30  and  O8_33
REMARK   15  A    between atoms: C13_35  and  O9_36
REMARK   16  A    between atoms: O9_36  and  C14_37
REMARK   17  A    between atoms: C17_43  and  N8_44
REMARK   18  A    between atoms: C18_49  and  N10_50
ROOT
HETATM    1  C8  UNL     1      58.817  13.086  30.156  1.00  0.00     0.140 C
HETATM    2  C9  UNL     1      59.194  13.123  31.543  1.00  0.00     0.186 C
ENDROOT
BRANCH   1   3
HETATM    3  O3  UNL     1      57.364  12.928  29.922  1.00  0.00    -0.268 OA
BRANCH   3   4
HETATM    4  C2  UNL     1      56.740  11.871  30.645  1.00  0.00     0.284 C
HETATM    5  N1  UNL     1      55.789  12.187  31.356  1.00  0.00    -0.257 N
ATOM      6  H1  UNL     1      55.621  13.191  31.288  1.00  0.00     0.191 HD
BRANCH   4   7
HETATM    7  O1  UNL     1      57.189  10.583  30.543  1.00  0.00    -0.320 OA
HETATM    8  C1  UNL     1      56.995   9.759  29.415  1.00  0.00     0.214 C
ENDBRANCH   4   7
BRANCH   5   9
HETATM    9  N2  UNL     1      54.895  11.622  32.201  1.00  0.00    -0.257 N
HETATM   10  C3  UNL     1      54.251  10.293  32.225  1.00  0.00     0.420 C
HETATM   11  N3  UNL     1      53.166  10.913  32.969  1.00  0.00     0.133 N
HETATM   12  C4  UNL     1      52.164  11.382  32.043  1.00  0.00     0.315 C
HETATM   13  C5  UNL     1      54.119  11.915  33.396  1.00  0.00     0.398 C
BRANCH  13  14
HETATM   14  C6  UNL     1      53.583  13.272  33.487  1.00  0.00     0.133 A
HETATM   15  N4  UNL     1      53.638  14.310  32.655  1.00  0.00    -0.238 N
HETATM   16  O2  UNL     1      53.004  15.308  33.190  1.00  0.00    -0.155 OA
ATOM     17  H4  UNL     1      54.103  14.320  31.748  1.00  0.00     0.196 HD
HETATM   18  N5  UNL     1      52.517  15.002  34.345  1.00  0.00    -0.224 N
HETATM   19  C7  UNL     1      52.848  13.737  34.584  1.00  0.00     0.150 A
ATOM     20  H5  UNL     1      51.980  15.615  34.958  1.00  0.00     0.198 HD
BRANCH  19  21
HETATM   21  N6  UNL     1      52.530  13.079  35.657  1.00  0.00    -0.382 N
ATOM     22  H62 UNL     1      51.578  12.941  35.996  1.00  0.00     0.157 HD
ATOM     23  H61 UNL     1      53.163  12.612  36.307  1.00  0.00     0.157 HD
ENDBRANCH  19  21
ENDBRANCH  13  14
ENDBRANCH   5   9
ENDBRANCH   3   4
ENDBRANCH   1   3
BRANCH   1  24
HETATM   24  C13 UNL     1      59.455  13.176  29.058  1.00  0.00     0.160 C
HETATM   25  C16 UNL     1      59.226  14.050  27.942  1.00  0.00     0.173 A
HETATM   26  N7  UNL     1      59.245  15.418  28.111  1.00  0.00    -0.173 N
HETATM   27  N11 UNL     1      58.990  13.662  26.680  1.00  0.00    -0.173 N
HETATM   28  C17 UNL     1      59.050  16.290  27.122  1.00  0.00     0.692 A
ATOM     29  H7  UNL     1      59.419  15.785  29.047  1.00  0.00     0.186 HD
HETATM   30  N9  UNL     1      58.822  15.822  25.900  1.00  0.00    -0.023 N
HETATM   31  C18 UNL     1      58.787  14.508  25.651  1.00  0.00     0.692 A
ATOM     32  H9  UNL     1      58.670  16.479  25.135  1.00  0.00     0.203 HD
ATOM     33  H11 UNL     1      58.963  12.661  26.486  1.00  0.00     0.186 HD
BRANCH  24  34
HETATM   34  O9  UNL     1      60.584  12.313  28.887  1.00  0.00    -0.272 OA
BRANCH  34  35
HETATM   35  C14 UNL     1      60.508  11.067  28.347  1.00  0.00     0.260 C
HETATM   36  C15 UNL     1      60.727   9.917  29.299  1.00  0.00     0.126 C
HETATM   37  O10 UNL     1      60.273  10.875  27.140  1.00  0.00    -0.265 OA
ENDBRANCH  34  35
ENDBRANCH  24  34
BRANCH  28  38
HETATM   38  N8  UNL     1      59.070  17.573  27.299  1.00  0.00    -0.234 N
ATOM     39  H82 UNL     1      59.974  18.040  27.365  1.00  0.00     0.174 HD
ATOM     40  H81 UNL     1      58.224  18.136  27.373  1.00  0.00     0.174 HD
ENDBRANCH  28  38
BRANCH  31  41
HETATM   41  N10 UNL     1      58.567  14.058  24.465  1.00  0.00    -0.234 N
ATOM     42 2H10 UNL     1      57.731  13.508  24.265  1.00  0.00     0.174 HD
ATOM     43 1H10 UNL     1      59.217  14.238  23.700  1.00  0.00     0.174 HD
ENDBRANCH  31  41
ENDBRANCH   1  24
BRANCH   2  44
HETATM   44  O4  UNL     1      60.479  13.329  31.927  1.00  0.00    -0.286 OA
BRANCH  44  45
HETATM   45  C10 UNL     1      61.364  12.326  32.372  1.00  0.00     0.297 C
HETATM   46  O5  UNL     1      60.928  11.151  32.409  1.00  0.00    -0.262 OA
BRANCH  45  47
HETATM   47  C11 UNL     1      62.743  12.589  32.784  1.00  0.00     0.272 C
BRANCH  47  48
HETATM   48  O6  UNL     1      62.856  13.287  33.960  1.00  0.00    -0.381 OA
ATOM     49  H6  UNL     1      63.751  13.430  34.245  1.00  0.00     0.210 HD
ENDBRANCH  47  48
BRANCH  47  50
HETATM   50  C12 UNL     1      63.474  13.334  31.661  1.00  0.00     0.292 C
BRANCH  50  51
HETATM   51  O7  UNL     1      62.876  13.049  30.435  1.00  0.00    -0.368 OA
ATOM     52  H7  UNL     1      63.224  12.236  30.087  1.00  0.00     0.212 HD
ENDBRANCH  50  51
BRANCH  50  53
HETATM   53  O8  UNL     1      64.836  13.058  31.674  1.00  0.00    -0.368 OA
ATOM     54  H8  UNL     1      65.006  12.145  31.476  1.00  0.00     0.212 HD
ENDBRANCH  50  53
ENDBRANCH  47  50
ENDBRANCH  45  47
ENDBRANCH  44  45
ENDBRANCH   2  44
TORSDOF 18
ENDMDL