MODEL 3
REMARK VINA RESULT: -7.474170954      3.986      5.419
REMARK  12 active torsions:
REMARK  status: ('A' for Active; 'I' for Inactive)
REMARK    1  A    between atoms: C2_2  and  O1_3
REMARK    2  A    between atoms: O1_3  and  C3_4
REMARK    3  A    between atoms: C3_4  and  C4_6
REMARK    4  A    between atoms: C4_6  and  N1_7
REMARK    5  A    between atoms: N1_7  and  N2_8
REMARK    6  A    between atoms: N2_8  and  C5_10
REMARK    7  A    between atoms: N5_15  and  C6_16
REMARK    8  A    between atoms: C9_23  and  C10_24
REMARK    9  A    between atoms: C11_26  and  C12_27
REMARK   10  A    between atoms: C12_27  and  N8_28
REMARK   11  A    between atoms: C14_33  and  N11_34
REMARK   12  A    between atoms: C17_47  and  C18_48
ROOT
HETATM    1  C6  UNL     1      59.541  13.004  28.602  1.00  0.00     0.724 A
HETATM    2  N6  UNL     1      59.196  11.907  28.031  1.00  0.00    -0.207 N
ATOM      3  H6  UNL     1      59.632  11.677  27.139  1.00  0.00     0.179 HD
HETATM    4  C7  UNL     1      58.232  10.979  28.568  1.00  0.00     0.263 A
HETATM    5  N7  UNL     1      57.596  11.438  29.764  1.00  0.00    -0.356 N
ATOM      6  H7  UNL     1      56.843  10.887  30.176  1.00  0.00     0.162 HD
HETATM    7  C8  UNL     1      57.999  12.648  30.388  1.00  0.00     0.171 A
HETATM    8  C9  UNL     1      57.604  13.258  31.514  1.00  0.00     0.109 A
HETATM    9  N13 UNL     1      58.365  14.412  31.588  1.00  0.00    -0.283 N
ATOM     10  H13 UNL     1      58.304  15.099  32.339  1.00  0.00     0.188 HD
HETATM   11  N14 UNL     1      59.170  14.500  30.567  1.00  0.00    -0.219 N
ATOM     12  H14 UNL     1      59.836  15.249  30.376  1.00  0.00     0.209 HD
HETATM   13  N15 UNL     1      58.952  13.436  29.834  1.00  0.00    -0.052 N
ENDROOT
BRANCH   1  14
HETATM   14  N5  UNL     1      60.499  13.866  28.015  1.00  0.00    -0.073 N
HETATM   15  N4  UNL     1      61.827  13.612  28.277  1.00  0.00    -0.225 N
HETATM   16  N3  UNL     1      62.750  14.079  27.410  1.00  0.00    -0.280 N
ATOM     17  H4  UNL     1      62.105  13.085  29.105  1.00  0.00     0.209 HD
HETATM   18  C5  UNL     1      62.272  14.448  26.082  1.00  0.00     0.314 C
ATOM     19  H3  UNL     1      63.732  14.169  27.670  1.00  0.00     0.186 HD
HETATM   20  N16 UNL     1      60.942  14.862  25.966  1.00  0.00    -0.353 N
HETATM   21  C17 UNL     1      60.160  14.995  27.167  1.00  0.00     0.326 C
ATOM     22  H16 UNL     1      60.536  15.065  25.053  1.00  0.00     0.159 HD
BRANCH  18  23
HETATM   23  N2  UNL     1      63.216  15.379  25.570  1.00  0.00    -0.298 N
ATOM     24  H2  UNL     1      63.231  15.580  24.570  1.00  0.00     0.179 HD
BRANCH  23  25
HETATM   25  N1  UNL     1      64.101  16.007  26.393  1.00  0.00    -0.133 NA
BRANCH  25  26
HETATM   26  C4  UNL     1      64.442  17.295  25.770  1.00  0.00     0.245 C
BRANCH  26  27
HETATM   27  C3  UNL     1      63.351  18.213  26.139  1.00  0.00     0.275 C
HETATM   28  O2  UNL     1      63.702  19.453  26.237  1.00  0.00    -0.264 OA
BRANCH  27  29
HETATM   29  O1  UNL     1      62.036  17.910  26.376  1.00  0.00    -0.321 OA
BRANCH  29  30
HETATM   30  C2  UNL     1      61.513  18.393  27.627  1.00  0.00     0.174 C
HETATM   31  C1  UNL     1      61.929  17.536  28.784  1.00  0.00     0.034 C
ENDBRANCH  29  30
ENDBRANCH  27  29
ENDBRANCH  26  27
ENDBRANCH  25  26
ENDBRANCH  23  25
ENDBRANCH  18  23
BRANCH  21  32
HETATM   32  C18 UNL     1      58.737  15.025  26.761  1.00  0.00     0.219 C
HETATM   33  O5  UNL     1      57.970  15.978  27.152  1.00  0.00    -0.645 OA
HETATM   34  O6  UNL     1      58.112  14.081  25.968  1.00  0.00    -0.645 OA
ENDBRANCH  21  32
ENDBRANCH   1  14
BRANCH   8  35
HETATM   35  C10 UNL     1      56.618  12.950  32.545  1.00  0.00     0.246 C
HETATM   36  O3  UNL     1      56.231  11.627  32.683  1.00  0.00    -0.365 OA
HETATM   37  C11 UNL     1      54.881  11.697  32.999  1.00  0.00     0.151 C
HETATM   38  C15 UNL     1      54.408  12.631  31.841  1.00  0.00     0.115 C
HETATM   39  C16 UNL     1      55.373  13.717  32.115  1.00  0.00     0.164 C
HETATM   40  O4  UNL     1      55.287  14.895  32.043  1.00  0.00    -0.295 OA
BRANCH  37  41
HETATM   41  C12 UNL     1      54.094  10.469  33.043  1.00  0.00     0.202 C
BRANCH  41  42
HETATM   42  N8  UNL     1      54.616   9.351  32.316  1.00  0.00    -0.229 N
HETATM   43  N9  UNL     1      54.841   8.114  32.666  1.00  0.00    -0.268 N
HETATM   44  C13 UNL     1      55.388   7.405  31.690  1.00  0.00     0.177 A
ATOM     45  H9  UNL     1      54.622   7.735  33.588  1.00  0.00     0.190 HD
HETATM   46  N10 UNL     1      55.806   6.037  31.597  1.00  0.00    -0.077 NA
HETATM   47  C14 UNL     1      55.527   8.281  30.611  1.00  0.00     0.158 A
HETATM   48  N12 UNL     1      55.041   9.442  31.044  1.00  0.00    -0.266 N
ATOM     49  H12 UNL     1      54.997  10.293  30.483  1.00  0.00     0.190 HD
BRANCH  47  50
HETATM   50  N11 UNL     1      56.031   8.045  29.442  1.00  0.00    -0.382 N
ATOM     51 2H11 UNL     1      55.630   7.452  28.715  1.00  0.00     0.157 HD
ATOM     52 1H11 UNL     1      56.894   8.410  29.038  1.00  0.00     0.157 HD
ENDBRANCH  47  50
ENDBRANCH  41  42
ENDBRANCH  37  41
ENDBRANCH   8  35
TORSDOF 12
ENDMDL