MODEL 4
REMARK VINA RESULT: -8.000487786      2.255      8.217
REMARK  17 active torsions:
REMARK  status: ('A' for Active; 'I' for Inactive)
REMARK    1  A    between atoms: N1_1  and  N2_4
REMARK    2  A    between atoms: N2_4  and  C1_6
REMARK    3  A    between atoms: C1_6  and  C2_11
REMARK    4  A    between atoms: N3_7  and  O1_9
REMARK    5  A    between atoms: N5_14  and  C3_15
REMARK    6  A    between atoms: C4_16  and  C5_17
REMARK       I    between atoms: C5_17  and  N6_19
REMARK    7  A    between atoms: N6_19  and  C6_21
REMARK    8  A    between atoms: C6_21  and  C7_22
REMARK    9  A    between atoms: C6_21  and  C8_25
REMARK   10  A    between atoms: C8_25  and  O4_26
REMARK   11  A    between atoms: C8_25  and  O5_28
REMARK   12  A    between atoms: C9_32  and  C10_33
REMARK   13  A    between atoms: N9_36  and  O8_37
REMARK   14  A    between atoms: C11_41  and  C12_42
REMARK   15  A    between atoms: C14_44  and  N11_45
REMARK   16  A    between atoms: C16_49  and  O11_50
REMARK   17  A    between atoms: C17_52  and  O12_53
ROOT
HETATM    1  C2  UNL     1      58.085  12.544  30.778  1.00  0.00     0.126 A
HETATM    2  N4  UNL     1      57.077  11.610  30.697  1.00  0.00    -0.272 N
ATOM      3  H4  UNL     1      56.492  11.326  31.483  1.00  0.00     0.189 HD
HETATM    4  N5  UNL     1      56.965  11.132  29.481  1.00  0.00    -0.174 N
HETATM    5  N10 UNL     1      57.885  11.741  28.772  1.00  0.00    -0.275 N
ATOM      6  H10 UNL     1      58.045  11.575  27.779  1.00  0.00     0.189 HD
HETATM    7  C11 UNL     1      58.601  12.621  29.524  1.00  0.00     0.095 A
ENDROOT
BRANCH   4   8
HETATM    8  C3  UNL     1      56.029  10.147  29.002  1.00  0.00     0.206 A
HETATM    9  C4  UNL     1      54.688  10.103  29.309  1.00  0.00     0.152 A
HETATM   10  N8  UNL     1      54.179   9.017  28.646  1.00  0.00    -0.327 N
HETATM   11  C9  UNL     1      55.139   8.414  27.962  1.00  0.00     0.213 A
ATOM     12  H8  UNL     1      53.205   8.719  28.675  1.00  0.00     0.168 HD
HETATM   13  N9  UNL     1      56.256   9.105  28.182  1.00  0.00    -0.178 N
BRANCH   9  14
HETATM   14  C5  UNL     1      53.960  11.015  30.165  1.00  0.00     0.273 C
HETATM   15  O2  UNL     1      53.332  11.969  29.672  1.00  0.00    -0.266 OA
HETATM   16  N6  UNL     1      53.957  10.831  31.568  1.00  0.00    -0.338 N
ATOM     17  H6  UNL     1      54.476  10.047  31.962  1.00  0.00     0.163 HD
BRANCH  16  18
HETATM   18  C6  UNL     1      53.240  11.721  32.468  1.00  0.00     0.229 C
BRANCH  18  19
HETATM   19  C7  UNL     1      54.082  12.874  32.805  1.00  0.00     0.258 C
HETATM   20  N7  UNL     1      53.641  14.203  32.872  1.00  0.00    -0.060 NA
HETATM   21  O3  UNL     1      55.310  12.664  33.059  1.00  0.00    -0.274 OA
ENDBRANCH  18  19
BRANCH  18  22
HETATM   22  C8  UNL     1      52.996  10.944  33.764  1.00  0.00     0.285 C
BRANCH  22  23
HETATM   23  O4  UNL     1      53.026  11.814  34.855  1.00  0.00    -0.369 OA
ATOM     24  H4  UNL     1      52.607  11.409  35.605  1.00  0.00     0.212 HD
ENDBRANCH  22  23
BRANCH  22  25
HETATM   25  O5  UNL     1      54.050  10.034  33.968  1.00  0.00    -0.369 OA
ATOM     26  H5  UNL     1      53.841   9.210  33.543  1.00  0.00     0.212 HD
ENDBRANCH  22  25
ENDBRANCH  18  22
ENDBRANCH  16  18
ENDBRANCH   9  14
BRANCH  11  27
HETATM   27  C10 UNL     1      54.963   7.208  27.128  1.00  0.00     0.247 C
HETATM   28  O6  UNL     1      55.944   6.623  26.651  1.00  0.00    -0.642 OA
HETATM   29  O7  UNL     1      53.669   6.765  26.906  1.00  0.00    -0.642 OA
ENDBRANCH  11  27
BRANCH  13  30
HETATM   30  O8  UNL     1      57.469   8.765  27.628  1.00  0.00    -0.279 OA
ATOM     31  H8  UNL     1      57.618   8.522  26.722  1.00  0.00     0.245 HD
ENDBRANCH  13  30
ENDBRANCH   4   8
BRANCH   1  32
HETATM   32  C1  UNL     1      58.485  13.212  31.997  1.00  0.00     0.170 C
HETATM   33  N3  UNL     1      59.470  12.726  32.714  1.00  0.00    -0.250 N
ATOM     34  H3  UNL     1      59.741  13.190  33.581  1.00  0.00     0.196 HD
BRANCH  32  35
HETATM   35  N2  UNL     1      57.867  14.354  32.486  1.00  0.00    -0.289 N
ATOM     36  H2  UNL     1      58.291  14.811  33.293  1.00  0.00     0.188 HD
BRANCH  35  37
HETATM   37  N1  UNL     1      56.702  14.929  31.952  1.00  0.00    -0.344 N
ATOM     38  H12 UNL     1      55.820  14.478  32.196  1.00  0.00     0.176 HD
ATOM     39  H11 UNL     1      56.679  15.752  31.350  1.00  0.00     0.176 HD
ENDBRANCH  35  37
ENDBRANCH  32  35
BRANCH  33  40
HETATM   40  O1  UNL     1      60.145  11.592  32.308  1.00  0.00    -0.288 OA
ATOM     41  H1  UNL     1      60.272  11.409  31.385  1.00  0.00     0.244 HD
ENDBRANCH  33  40
ENDBRANCH   1  32
BRANCH   7  42
HETATM   42  C12 UNL     1      59.715  13.429  29.062  1.00  0.00     0.033 A
HETATM   43  C13 UNL     1      59.652  14.706  28.586  1.00  0.00     0.053 A
HETATM   44  C14 UNL     1      60.765  15.394  28.117  1.00  0.00     0.106 A
HETATM   45  C15 UNL     1      61.999  14.794  28.117  1.00  0.00     0.075 A
HETATM   46  C16 UNL     1      62.094  13.509  28.589  1.00  0.00     0.102 A
HETATM   47  C17 UNL     1      60.985  12.837  29.052  1.00  0.00     0.111 A
BRANCH  44  48
HETATM   48  N11 UNL     1      60.600  16.732  27.638  1.00  0.00    -0.116 N
HETATM   49  O9  UNL     1      59.675  17.044  26.865  1.00  0.00    -0.532 OA
HETATM   50  O10 UNL     1      61.466  17.727  28.017  1.00  0.00    -0.532 OA
ENDBRANCH  44  48
BRANCH  46  51
HETATM   51  O11 UNL     1      63.353  12.908  28.584  1.00  0.00    -0.358 OA
ATOM     52  H11 UNL     1      63.446  12.074  29.030  1.00  0.00     0.217 HD
ENDBRANCH  46  51
BRANCH  47  53
HETATM   53  O12 UNL     1      61.119  11.544  29.519  1.00  0.00    -0.357 OA
ATOM     54  H12 UNL     1      61.355  10.858  28.906  1.00  0.00     0.217 HD
ENDBRANCH  47  53
ENDBRANCH   7  42
TORSDOF 17
ENDMDL