MODEL 5
REMARK VINA RESULT: -7.413607863      4.498      9.836
REMARK  12 active torsions:
REMARK  status: ('A' for Active; 'I' for Inactive)
REMARK    1  A    between atoms: C2_7  and  C3_8
REMARK    2  A    between atoms: N4_10  and  C5_11
REMARK    3  A    between atoms: C7_15  and  C8_16
REMARK    4  A    between atoms: C8_16  and  N6_17
REMARK    5  A    between atoms: C10_25  and  C11_26
REMARK    6  A    between atoms: C11_26  and  O1_27
REMARK    7  A    between atoms: C11_26  and  N9_29
REMARK    8  A    between atoms: N9_29  and  C12_31
REMARK    9  A    between atoms: C12_31  and  C13_32
REMARK   10  A    between atoms: C14_35  and  C15_36
REMARK   11  A    between atoms: C15_36  and  C16_38
REMARK   12  A    between atoms: C16_38  and  O3_39
ROOT
HETATM    1  C5  UNL     1      58.187  11.744  30.118  1.00  0.00     0.707 A
HETATM    2  N5  UNL     1      56.954  12.110  30.508  1.00  0.00    -0.188 N
ATOM      3  H5  UNL     1      56.787  13.080  30.778  1.00  0.00     0.184 HD
HETATM    4  C6  UNL     1      55.945  11.244  30.551  1.00  0.00     0.078 A
HETATM    5  C7  UNL     1      54.719  11.683  30.989  1.00  0.00     0.037 A
HETATM    6  C9  UNL     1      53.723  10.741  31.042  1.00  0.00     0.127 A
HETATM    7  N7  UNL     1      52.439  11.177  31.497  1.00  0.00    -0.082 NA
HETATM    8  N8  UNL     1      53.927   9.473  30.686  1.00  0.00    -0.340 N
ATOM      9  H8  UNL     1      53.137   8.832  30.752  1.00  0.00     0.167 HD
HETATM   10  C10 UNL     1      55.128   8.963  30.236  1.00  0.00     0.102 A
HETATM   11  C17 UNL     1      56.126   9.915  30.190  1.00  0.00     0.091 A
HETATM   12  C18 UNL     1      57.369   9.554  29.801  1.00  0.00     0.274 A
HETATM   13  O5  UNL     1      57.651   8.423  29.471  1.00  0.00    -0.267 OA
HETATM   14  N12 UNL     1      58.357  10.473  29.776  1.00  0.00    -0.153 N
ATOM     15  H12 UNL     1      59.285  10.174  29.477  1.00  0.00     0.187 HD
ENDROOT
BRANCH   1  16
HETATM   16  N4  UNL     1      59.209  12.732  30.099  1.00  0.00    -0.081 N
HETATM   17  C4  UNL     1      59.126  13.925  29.336  1.00  0.00     0.169 A
HETATM   18  C3  UNL     1      60.100  14.833  29.342  1.00  0.00     0.114 A
HETATM   19  N15 UNL     1      61.288  14.708  30.090  1.00  0.00    -0.186 N
HETATM   20  C19 UNL     1      61.422  13.512  30.884  1.00  0.00     0.692 A
ATOM     21  H15 UNL     1      62.014  15.424  30.069  1.00  0.00     0.184 HD
HETATM   22  N13 UNL     1      60.368  12.565  30.857  1.00  0.00    -0.112 N
HETATM   23  N14 UNL     1      62.484  13.332  31.594  1.00  0.00    -0.233 N
ATOM     24  H13 UNL     1      60.462  11.719  31.419  1.00  0.00     0.206 HD
ATOM     25 2H14 UNL     1      62.579  12.485  32.156  1.00  0.00     0.174 HD
ATOM     26 1H14 UNL     1      63.243  14.014  31.613  1.00  0.00     0.174 HD
BRANCH  18  27
HETATM   27  C2  UNL     1      59.936  16.051  28.517  1.00  0.00     0.166 A
HETATM   28  N3  UNL     1      58.831  16.442  27.866  1.00  0.00    -0.267 N
HETATM   29  N2  UNL     1      59.117  17.575  27.263  1.00  0.00    -0.225 N
ATOM     30  H3  UNL     1      57.936  15.952  27.843  1.00  0.00     0.190 HD
HETATM   31  N1  UNL     1      60.378  17.922  27.509  1.00  0.00    -0.223 N
ATOM     32  H2  UNL     1      58.466  18.111  26.689  1.00  0.00     0.210 HD
HETATM   33  C1  UNL     1      60.966  19.124  26.976  1.00  0.00     0.202 C
HETATM   34  N16 UNL     1      60.879  16.982  28.282  1.00  0.00    -0.265 N
ATOM     35  H16 UNL     1      61.832  16.961  28.646  1.00  0.00     0.190 HD
ENDBRANCH  18  27
ENDBRANCH   1  16
BRANCH   5  36
HETATM   36  C8  UNL     1      54.538  13.117  31.374  1.00  0.00     0.274 C
BRANCH  36  37
HETATM   37  N6  UNL     1      54.295  13.294  32.781  1.00  0.00    -0.075 N
ATOM     38  H63 UNL     1      53.474  12.768  33.078  1.00  0.00     0.274 HD
ATOM     39  H62 UNL     1      55.007  12.819  33.336  1.00  0.00     0.274 HD
ATOM     40  H61 UNL     1      54.217  14.274  33.051  1.00  0.00     0.274 HD
ENDBRANCH  36  37
ENDBRANCH   5  36
BRANCH  10  41
HETATM   41  C11 UNL     1      55.216   7.574  29.784  1.00  0.00     0.164 C
BRANCH  41  42
HETATM   42  O1  UNL     1      55.358   7.284  28.459  1.00  0.00    -0.345 OA
ATOM     43  H1  UNL     1      56.172   7.474  28.008  1.00  0.00     0.219 HD
ENDBRANCH  41  42
BRANCH  41  44
HETATM   44  N9  UNL     1      55.909   6.689  30.694  1.00  0.00    -0.361 N
ATOM     45  H9  UNL     1      56.670   6.080  30.393  1.00  0.00     0.162 HD
BRANCH  44  46
HETATM   46  C12 UNL     1      55.452   6.730  32.032  1.00  0.00     0.208 C
BRANCH  46  47
HETATM   47  C13 UNL     1      56.339   6.160  33.034  1.00  0.00     0.166 A
HETATM   48  N10 UNL     1      57.326   5.281  32.782  1.00  0.00    -0.319 N
HETATM   49  C14 UNL     1      57.928   4.979  33.931  1.00  0.00     0.176 A
ATOM     50  H10 UNL     1      57.572   4.908  31.866  1.00  0.00     0.169 HD
HETATM   51  N11 UNL     1      57.321   5.665  34.888  1.00  0.00    -0.240 N
HETATM   52  O4  UNL     1      56.373   6.365  34.328  1.00  0.00    -0.221 OA
ATOM     53  H11 UNL     1      57.552   5.649  35.882  1.00  0.00     0.196 HD
BRANCH  49  54
HETATM   54  C15 UNL     1      59.041   4.064  34.075  1.00  0.00     0.217 C
HETATM   55  O2  UNL     1      60.161   4.265  33.536  1.00  0.00    -0.287 OA
BRANCH  54  56
HETATM   56  C16 UNL     1      58.925   2.806  34.885  1.00  0.00     0.251 C
BRANCH  56  57
HETATM   57  O3  UNL     1      58.486   3.046  36.164  1.00  0.00    -0.393 OA
ATOM     58  H3  UNL     1      57.829   2.418  36.445  1.00  0.00     0.210 HD
ENDBRANCH  56  57
ENDBRANCH  54  56
ENDBRANCH  49  54
ENDBRANCH  46  47
ENDBRANCH  44  46
ENDBRANCH  41  44
ENDBRANCH  10  41
TORSDOF 12
ENDMDL