MODEL 5
REMARK VINA RESULT: -7.558749432      3.011      5.428
REMARK  13 active torsions:
REMARK  status: ('A' for Active; 'I' for Inactive)
REMARK       I    between atoms: C2_2  and  N1_4
REMARK    1  A    between atoms: N1_4  and  C3_6
REMARK    2  A    between atoms: N2_8  and  C5_9
REMARK    3  A    between atoms: C5_9  and  C6_10
REMARK    4  A    between atoms: C5_9  and  C7_13
REMARK    5  A    between atoms: C8_16  and  C9_17
REMARK    6  A    between atoms: C9_17  and  O4_18
REMARK    7  A    between atoms: C9_17  and  O5_20
REMARK    8  A    between atoms: O5_20  and  C10_21
REMARK    9  A    between atoms: C11_25  and  N7_26
REMARK   10  A    between atoms: C14_37  and  C15_38
REMARK   11  A    between atoms: C15_38  and  O8_39
REMARK   12  A    between atoms: O8_39  and  S1_40
REMARK   13  A    between atoms: C16_44  and  O12_45
ROOT
HETATM    1  C5  UNL     1      54.299   9.651  30.725  1.00  0.00     0.262 C
ENDROOT
BRANCH   1   2
HETATM    2  N2  UNL     1      54.965  10.888  31.081  1.00  0.00    -0.299 N
HETATM    3  C4  UNL     1      54.189  11.946  31.488  1.00  0.00     0.128 A
HETATM    4  C3  UNL     1      54.726  13.150  31.843  1.00  0.00     0.085 A
HETATM    5  C16 UNL     1      56.148  13.334  31.796  1.00  0.00     0.107 A
HETATM    6  C14 UNL     1      56.905  12.273  31.391  1.00  0.00     0.070 A
HETATM    7  C13 UNL     1      56.264  11.081  31.047  1.00  0.00     0.260 A
HETATM    8  O7  UNL     1      56.985  10.109  30.673  1.00  0.00    -0.267 OA
BRANCH   4   9
HETATM    9  N1  UNL     1      53.984  14.263  32.265  1.00  0.00    -0.324 N
HETATM   10  C2  UNL     1      53.181  14.303  33.412  1.00  0.00     0.218 C
HETATM   11  C1  UNL     1      52.467  15.612  33.677  1.00  0.00     0.117 C
HETATM   12  O1  UNL     1      52.968  13.414  34.247  1.00  0.00    -0.274 OA
ATOM     13  H1  UNL     1      54.033  15.107  31.694  1.00  0.00     0.169 HD
ENDBRANCH   4   9
BRANCH   5  14
HETATM   14  O12 UNL     1      56.654  14.543  32.156  1.00  0.00    -0.358 OA
ATOM     15  H12 UNL     1      57.030  15.094  31.480  1.00  0.00     0.217 HD
ENDBRANCH   5  14
BRANCH   6  16
HETATM   16  C15 UNL     1      58.381  12.308  31.291  1.00  0.00     0.240 C
BRANCH  16  17
HETATM   17  O8  UNL     1      59.101  12.333  32.424  1.00  0.00    -0.252 OA
BRANCH  17  18
HETATM   18  S1  UNL     1      60.702  11.989  32.046  1.00  0.00     0.251 S
HETATM   19  O9  UNL     1      61.577  13.035  32.685  1.00  0.00    -0.572 OA
HETATM   20  O10 UNL     1      60.848  12.144  30.561  1.00  0.00    -0.572 OA
HETATM   21  O11 UNL     1      61.128  10.449  32.555  1.00  0.00    -0.572 OA
ENDBRANCH  17  18
ENDBRANCH  16  17
ENDBRANCH   6  16
ENDBRANCH   1   2
BRANCH   1  22
HETATM   22  C6  UNL     1      53.950   9.606  29.272  1.00  0.00     0.205 C
HETATM   23  O2  UNL     1      52.750   9.720  28.940  1.00  0.00    -0.646 OA
HETATM   24  O3  UNL     1      54.909   9.444  28.293  1.00  0.00    -0.646 OA
ENDBRANCH   1  22
BRANCH   1  25
HETATM   25  C7  UNL     1      55.087   8.453  31.116  1.00  0.00     0.132 A
HETATM   26  N3  UNL     1      55.299   7.997  32.370  1.00  0.00    -0.327 N
HETATM   27  C8  UNL     1      56.067   6.878  32.326  1.00  0.00     0.155 A
ATOM     28  H3  UNL     1      54.937   8.428  33.221  1.00  0.00     0.168 HD
HETATM   29  N8  UNL     1      56.329   6.643  31.027  1.00  0.00    -0.279 N
HETATM   30  C12 UNL     1      57.131   5.522  30.541  1.00  0.00     0.179 C
HETATM   31  N9  UNL     1      55.738   7.591  30.309  1.00  0.00    -0.283 N
ATOM     32  H9  UNL     1      55.772   7.658  29.293  1.00  0.00     0.188 HD
BRANCH  27  33
HETATM   33  C9  UNL     1      56.507   6.097  33.526  1.00  0.00     0.332 C
BRANCH  33  34
HETATM   34  O4  UNL     1      55.572   6.357  34.545  1.00  0.00    -0.364 OA
ATOM     35  H4  UNL     1      55.916   5.966  35.339  1.00  0.00     0.213 HD
ENDBRANCH  33  34
BRANCH  33  36
HETATM   36  O5  UNL     1      57.741   6.543  33.996  1.00  0.00    -0.308 OA
BRANCH  36  37
HETATM   37  C10 UNL     1      58.611   5.490  34.269  1.00  0.00     0.384 C
HETATM   38  N4  UNL     1      59.726   5.968  35.061  1.00  0.00    -0.070 NA
HETATM   39  N5  UNL     1      60.611   4.923  35.250  1.00  0.00    -0.031 NA
HETATM   40  N6  UNL     1      60.170   3.758  34.641  1.00  0.00    -0.069 NA
HETATM   41  C11 UNL     1      58.834   3.386  35.007  1.00  0.00     0.436 C
HETATM   42  O6  UNL     1      57.975   4.495  35.034  1.00  0.00    -0.299 OA
BRANCH  41  43
HETATM   43  N7  UNL     1      58.836   2.702  36.277  1.00  0.00    -0.037 N
ATOM     44  H73 UNL     1      58.549   1.727  36.186  1.00  0.00     0.279 HD
ATOM     45  H72 UNL     1      59.783   2.547  36.624  1.00  0.00     0.279 HD
ATOM     46  H71 UNL     1      58.260   3.206  36.952  1.00  0.00     0.279 HD
ENDBRANCH  41  43
ENDBRANCH  36  37
ENDBRANCH  33  36
ENDBRANCH  27  33
ENDBRANCH   1  25
TORSDOF 13
ENDMDL