MODEL 1
REMARK VINA RESULT: -7.722576006      0.000      0.000
REMARK  15 active torsions:
REMARK  status: ('A' for Active; 'I' for Inactive)
REMARK    1  A    between atoms: N1_1  and  C1_4
REMARK    2  A    between atoms: C2_7  and  N3_8
REMARK    3  A    between atoms: C4_11  and  C5_12
REMARK       I    between atoms: C5_12  and  N4_14
REMARK    4  A    between atoms: N4_14  and  N5_16
REMARK    5  A    between atoms: C6_19  and  O3_20
REMARK    6  A    between atoms: N6_22  and  N7_23
REMARK    7  A    between atoms: C8_31  and  C9_32
REMARK    8  A    between atoms: C9_32  and  C10_34
REMARK    9  A    between atoms: C10_34  and  N10_35
REMARK   10  A    between atoms: C11_40  and  C12_41
REMARK   11  A    between atoms: C12_41  and  O5_42
REMARK   12  A    between atoms: N13_46  and  C15_47
REMARK   13  A    between atoms: C15_47  and  C16_48
REMARK   14  A    between atoms: C16_48  and  O6_49
REMARK   15  A    between atoms: O6_49  and  N14_50
ROOT
HETATM    1  C1  UNL     1      57.907  11.832  30.804  1.00  0.00     0.129 A
HETATM    2  N2  UNL     1      56.930  12.109  31.660  1.00  0.00    -0.174 N
ATOM      3  H2  UNL     1      57.177  12.502  32.569  1.00  0.00     0.186 HD
HETATM    4  C2  UNL     1      55.618  11.895  31.383  1.00  0.00     0.711 A
HETATM    5  N8  UNL     1      55.327  11.378  30.180  1.00  0.00    -0.173 N
ATOM      6  H8  UNL     1      54.347  11.210  29.955  1.00  0.00     0.186 HD
HETATM    7  C7  UNL     1      56.253  11.068  29.252  1.00  0.00     0.135 A
HETATM    8  N9  UNL     1      56.227  10.556  28.000  1.00  0.00    -0.338 N
ATOM      9  H9  UNL     1      55.377  10.289  27.503  1.00  0.00     0.167 HD
HETATM   10  C8  UNL     1      57.469  10.447  27.496  1.00  0.00     0.083 A
HETATM   11  C18 UNL     1      58.314  10.912  28.478  1.00  0.00     0.052 A
HETATM   12  C19 UNL     1      57.587  11.299  29.567  1.00  0.00     0.055 A
ENDROOT
BRANCH  10  13
HETATM   13  C9  UNL     1      57.859   9.965  26.160  1.00  0.00     0.197 C
HETATM   14  O4  UNL     1      57.509   8.830  25.809  1.00  0.00    -0.289 OA
BRANCH  13  15
HETATM   15  C10 UNL     1      58.657  10.805  25.254  1.00  0.00     0.256 C
BRANCH  15  16
HETATM   16  N10 UNL     1      58.565  12.222  25.492  1.00  0.00    -0.211 N
HETATM   17  N11 UNL     1      57.658  13.015  24.961  1.00  0.00    -0.224 N
HETATM   18  N12 UNL     1      57.812  14.227  25.394  1.00  0.00    -0.269 N
ATOM     19  H11 UNL     1      56.937  12.718  24.303  1.00  0.00     0.210 HD
HETATM   20  C11 UNL     1      58.870  14.263  26.256  1.00  0.00     0.150 A
ATOM     21  H12 UNL     1      57.235  15.026  25.132  1.00  0.00     0.190 HD
HETATM   22  N15 UNL     1      59.313  13.005  26.292  1.00  0.00    -0.267 N
ATOM     23  H15 UNL     1      60.106  12.682  26.847  1.00  0.00     0.190 HD
BRANCH  20  24
HETATM   24  C12 UNL     1      59.267  15.510  26.918  1.00  0.00     0.146 C
HETATM   25  C13 UNL     1      59.081  15.401  28.438  1.00  0.00     0.078 C
HETATM   26  C14 UNL     1      60.071  16.433  28.925  1.00  0.00     0.276 C
HETATM   27  N13 UNL     1      61.251  16.161  28.092  1.00  0.00     0.094 N
HETATM   28  C17 UNL     1      60.706  15.881  26.787  1.00  0.00     0.318 C
BRANCH  24  29
HETATM   29  O5  UNL     1      58.487  16.575  26.466  1.00  0.00    -0.380 OA
ATOM     30  H5  UNL     1      58.613  17.339  27.016  1.00  0.00     0.211 HD
ENDBRANCH  24  29
BRANCH  27  31
HETATM   31  C15 UNL     1      62.055  17.353  28.170  1.00  0.00     0.301 C
BRANCH  31  32
HETATM   32  C16 UNL     1      61.920  18.301  27.044  1.00  0.00     0.230 C
BRANCH  32  33
HETATM   33  O6  UNL     1      61.198  19.412  27.388  1.00  0.00    -0.286 OA
BRANCH  33  34
HETATM   34  N14 UNL     1      59.993  19.392  26.788  1.00  0.00    -0.311 N
ATOM     35 2H14 UNL     1      59.816  18.967  25.878  1.00  0.00     0.184 HD
ATOM     36 1H14 UNL     1      59.297  19.857  27.372  1.00  0.00     0.184 HD
ENDBRANCH  33  34
ENDBRANCH  32  33
ENDBRANCH  31  32
ENDBRANCH  27  31
ENDBRANCH  20  24
ENDBRANCH  15  16
ENDBRANCH  13  15
ENDBRANCH  10  13
BRANCH   1  37
HETATM   37  N1  UNL     1      59.141  12.040  31.075  1.00  0.00    -0.384 N
ATOM     38  H12 UNL     1      59.609  11.402  31.719  1.00  0.00     0.157 HD
ATOM     39  H11 UNL     1      59.668  12.814  30.671  1.00  0.00     0.157 HD
ENDBRANCH   1  37
BRANCH   4  40
HETATM   40  N3  UNL     1      54.620  12.206  32.346  1.00  0.00    -0.023 N
HETATM   41  C3  UNL     1      54.245  13.420  32.789  1.00  0.00     0.304 A
HETATM   42  O1  UNL     1      54.740  14.534  32.412  1.00  0.00    -0.264 OA
HETATM   43  C4  UNL     1      53.241  13.285  33.718  1.00  0.00     0.158 A
HETATM   44  C6  UNL     1      53.026  11.907  33.815  1.00  0.00     0.201 A
HETATM   45  N6  UNL     1      53.870  11.287  32.979  1.00  0.00    -0.154 N
BRANCH  43  46
HETATM   46  C5  UNL     1      52.497  14.278  34.469  1.00  0.00     0.279 C
HETATM   47  O2  UNL     1      52.117  14.005  35.639  1.00  0.00    -0.266 OA
HETATM   48  N4  UNL     1      52.152  15.557  33.982  1.00  0.00    -0.272 N
ATOM     49  H4  UNL     1      52.444  15.809  33.038  1.00  0.00     0.189 HD
BRANCH  48  50
HETATM   50  N5  UNL     1      51.432  16.495  34.724  1.00  0.00    -0.342 N
ATOM     51  H52 UNL     1      51.250  16.275  35.703  1.00  0.00     0.176 HD
ATOM     52  H51 UNL     1      51.087  17.373  34.337  1.00  0.00     0.176 HD
ENDBRANCH  48  50
ENDBRANCH  43  46
BRANCH  44  53
HETATM   53  O3  UNL     1      52.099  11.279  34.636  1.00  0.00    -0.343 OA
ATOM     54  H3  UNL     1      51.924  11.489  35.545  1.00  0.00     0.219 HD
ENDBRANCH  44  53
BRANCH  45  55
HETATM   55  N7  UNL     1      54.003   9.915  32.755  1.00  0.00    -0.321 N
ATOM     56  H72 UNL     1      53.936   9.415  31.869  1.00  0.00     0.179 HD
ATOM     57  H71 UNL     1      54.189   9.247  33.504  1.00  0.00     0.179 HD
ENDBRANCH  45  55
ENDBRANCH   4  40
TORSDOF 15
ENDMDL