MODEL 3
REMARK VINA RESULT: -3.938417254      1.129      2.120
REMARK  1 active torsions:
REMARK  status: ('A' for Active; 'I' for Inactive)
REMARK    1  A    between atoms: N1_1  and  C1_5
ROOT
HETATM    1  C1  UNL     1      20.075  43.680  -9.766  1.00  0.00     0.212 C
HETATM    2  C2  UNL     1      20.793  44.537  -8.717  1.00  0.00     0.041 C
HETATM    3  C3  UNL     1      22.173  44.893  -9.162  1.00  0.00     0.018 C
HETATM    4  C4  UNL     1      23.210  43.909  -8.604  1.00  0.00     0.036 C
HETATM    5  C5  UNL     1      23.334  42.856  -9.692  1.00  0.00     0.273 C
HETATM    6  N2  UNL     1      22.307  43.179 -10.679  1.00  0.00     0.090 N
HETATM    7  C6  UNL     1      21.032  42.644 -10.300  1.00  0.00     0.305 C
HETATM    8  C7  UNL     1      22.349  44.629 -10.664  1.00  0.00     0.277 C
ENDROOT
BRANCH   1   9
HETATM    9  N1  UNL     1      18.938  43.118  -9.163  1.00  0.00    -0.073 N
ATOM     10  H13 UNL     1      18.692  43.573  -8.283  1.00  0.00     0.274 HD
ATOM     11  H12 UNL     1      18.077  43.329  -9.669  1.00  0.00     0.274 HD
ATOM     12  H11 UNL     1      19.100  42.117  -9.058  1.00  0.00     0.274 HD
ENDBRANCH   1   9
TORSDOF 1
ENDMDL