MODEL 2
REMARK VINA RESULT: -3.843546131      0.177      2.001
REMARK  1 active torsions:
REMARK  status: ('A' for Active; 'I' for Inactive)
REMARK    1  A    between atoms: O1_1  and  C1_3
ROOT
HETATM    1  C1  UNL     1      24.305  49.336  -4.640  1.00  0.00     0.063 C
HETATM    2  C2  UNL     1      24.545  50.370  -3.553  1.00  0.00     0.068 C
HETATM    3  C3  UNL     1      25.731  51.233  -3.887  1.00  0.00     0.275 C
HETATM    4  N1  UNL     1      26.306  50.785  -5.160  1.00  0.00     0.088 N
HETATM    5  C4  UNL     1      25.303  50.935  -6.181  1.00  0.00     0.275 C
HETATM    6  C5  UNL     1      24.057  50.136  -5.925  1.00  0.00     0.068 C
HETATM    7  C6  UNL     1      26.741  49.433  -4.963  1.00  0.00     0.275 C
HETATM    8  C7  UNL     1      25.548  48.511  -4.913  1.00  0.00     0.068 C
ENDROOT
BRANCH   1   9
HETATM    9  O1  UNL     1      23.210  48.562  -4.315  1.00  0.00    -0.390 OA
ATOM     10  H1  UNL     1      22.602  49.069  -3.791  1.00  0.00     0.210 HD
ENDBRANCH   1   9
TORSDOF 1
ENDMDL