MODEL 3
REMARK VINA RESULT: -4.924130174      2.122      2.670
REMARK  1 active torsions:
REMARK  status: ('A' for Active; 'I' for Inactive)
REMARK    1  A    between atoms: O1_1  and  C1_3
ROOT
HETATM    1  C1  UNL     1      20.401  45.541  -8.650  1.00  0.00     0.147 C
HETATM    2  C2  UNL     1      19.904  44.262  -8.014  1.00  0.00     0.035 C
HETATM    3  C3  UNL     1      19.971  43.271  -9.154  1.00  0.00     0.010 C
HETATM    4  C4  UNL     1      21.077  43.703 -10.053  1.00  0.00     0.019 C
HETATM    5  C5  UNL     1      22.381  42.978  -9.802  1.00  0.00     0.033 C
HETATM    6  C6  UNL     1      23.355  44.157  -9.931  1.00  0.00     0.168 C
HETATM    7  O2  UNL     1      22.695  45.071  -9.078  1.00  0.00    -0.383 OA
HETATM    8  C7  UNL     1      21.433  45.120  -9.670  1.00  0.00     0.154 C
ENDROOT
BRANCH   1   9
HETATM    9  O1  UNL     1      21.058  46.257  -7.633  1.00  0.00    -0.393 OA
ATOM     10  H1  UNL     1      20.911  45.774  -6.829  1.00  0.00     0.210 HD
ENDBRANCH   1   9
TORSDOF 1
ENDMDL