MODEL 3
REMARK VINA RESULT: -4.531166147      1.441      2.628
REMARK  2 active torsions:
REMARK  status: ('A' for Active; 'I' for Inactive)
REMARK    1  A    between atoms: O1_1  and  C1_3
REMARK    2  A    between atoms: C1_3  and  C2_4
ROOT
HETATM    1  C2  UNL     1      21.925  43.666 -10.032  1.00  0.00     0.182 C
HETATM    2  C3  UNL     1      22.928  43.466 -11.121  1.00  0.00     0.045 C
HETATM    3  C4  UNL     1      23.957  44.542 -10.908  1.00  0.00     0.033 C
HETATM    4  C5  UNL     1      23.817  44.870  -9.452  1.00  0.00     0.273 C
HETATM    5  N1  UNL     1      22.713  44.109  -8.929  1.00  0.00     0.100 N
HETATM    6  C6  UNL     1      21.625  45.025  -8.562  1.00  0.00     0.276 C
HETATM    7  C7  UNL     1      21.149  44.918  -9.991  1.00  0.00     0.074 C
ENDROOT
BRANCH   1   8
HETATM    8  C1  UNL     1      21.086  42.442  -9.825  1.00  0.00     0.206 C
BRANCH   8   9
HETATM    9  O1  UNL     1      20.112  42.260 -10.790  1.00  0.00    -0.398 OA
ATOM     10  H1  UNL     1      19.342  41.800 -10.478  1.00  0.00     0.209 HD
ENDBRANCH   8   9
ENDBRANCH   1   8
TORSDOF 2
ENDMDL