MODEL 5
REMARK VINA RESULT: -4.585522292      1.665      3.516
REMARK  1 active torsions:
REMARK  status: ('A' for Active; 'I' for Inactive)
REMARK    1  A    between atoms: C3_3  and  N1_4
ROOT
HETATM    1  C1  UNL     1      24.721  44.820 -11.780  1.00  0.00     0.018 C
HETATM    2  C2  UNL     1      24.207  44.538 -10.718  1.00  0.00    -0.072 C
HETATM    3  C3  UNL     1      23.606  44.194  -9.415  1.00  0.00     0.155 C
ENDROOT
BRANCH   3   4
HETATM    4  N1  UNL     1      22.230  43.917  -9.543  1.00  0.00    -0.346 N
HETATM    5  C4  UNL     1      21.333  44.991  -9.668  1.00  0.00     0.071 C
HETATM    6  C5  UNL     1      19.950  44.528  -9.312  1.00  0.00     0.089 C
HETATM    7  C6  UNL     1      19.627  43.128  -9.583  1.00  0.00     0.062 C
HETATM    8  N2  UNL     1      20.666  42.235  -9.898  1.00  0.00    -0.386 N
HETATM    9  C7  UNL     1      21.876  42.832 -10.413  1.00  0.00     0.249 C
ATOM     10  H2  UNL     1      20.572  41.227  -9.771  1.00  0.00     0.160 HD
ENDBRANCH   3   4
TORSDOF 1
ENDMDL