MODEL 5
REMARK VINA RESULT: -4.635399286      1.861      2.578
REMARK  1 active torsions:
REMARK  status: ('A' for Active; 'I' for Inactive)
REMARK    1  A    between atoms: O1_1  and  C1_3
ROOT
HETATM    1  C1  UNL     1      20.770  45.548  -8.383  1.00  0.00     0.121 C
HETATM    2  C2  UNL     1      19.927  44.319  -8.146  1.00  0.00     0.062 C
HETATM    3  C3  UNL     1      20.070  43.329  -9.225  1.00  0.00     0.275 C
HETATM    4  N1  UNL     1      20.934  43.612 -10.292  1.00  0.00     0.093 N
HETATM    5  C4  UNL     1      21.814  42.495 -10.669  1.00  0.00     0.275 A
HETATM    6  C5  UNL     1      23.035  43.341 -10.415  1.00  0.00     0.066 A
HETATM    7  C6  UNL     1      22.065  44.418 -10.063  1.00  0.00     0.227 A
HETATM    8  C7  UNL     1      22.175  44.997  -8.678  1.00  0.00     0.067 C
ENDROOT
BRANCH   1   9
HETATM    9  O1  UNL     1      20.767  46.437  -7.345  1.00  0.00    -0.395 OA
ATOM     10  H1  UNL     1      21.339  46.198  -6.625  1.00  0.00     0.210 HD
ENDBRANCH   1   9
TORSDOF 1
ENDMDL