MODEL 4
REMARK VINA RESULT: -4.087936184      1.797      3.190
REMARK  1 active torsions:
REMARK  status: ('A' for Active; 'I' for Inactive)
REMARK    1  A    between atoms: C3_3  and  N1_4
ROOT
HETATM    1  C1  UNL     1      24.082  44.707 -11.659  1.00  0.00     0.015 C
HETATM    2  C2  UNL     1      23.455  44.415 -10.675  1.00  0.00    -0.078 C
HETATM    3  C3  UNL     1      22.689  44.063  -9.464  1.00  0.00     0.189 C
HETATM    4  C4  UNL     1      21.623  45.075  -9.224  1.00  0.00     0.078 C
HETATM    5  C5  UNL     1      20.232  44.566  -9.389  1.00  0.00     0.171 C
HETATM    6  O1  UNL     1      20.203  43.724 -10.496  1.00  0.00    -0.391 OA
HETATM    7  C6  UNL     1      20.834  42.537 -10.202  1.00  0.00     0.171 C
HETATM    8  C7  UNL     1      22.184  42.659  -9.616  1.00  0.00     0.078 C
ENDROOT
BRANCH   3   9
HETATM    9  N1  UNL     1      23.611  44.075  -8.336  1.00  0.00    -0.059 N
ATOM     10  H13 UNL     1      23.550  44.929  -7.783  1.00  0.00     0.276 HD
ATOM     11  H12 UNL     1      23.347  43.419  -7.601  1.00  0.00     0.276 HD
ATOM     12  H11 UNL     1      24.549  43.905  -8.700  1.00  0.00     0.276 HD
ENDBRANCH   3   9
TORSDOF 1
ENDMDL