MODEL 3
REMARK VINA RESULT: -5.401190135      2.144      2.482
REMARK  2 active torsions:
REMARK  status: ('A' for Active; 'I' for Inactive)
REMARK    1  A    between atoms: O1_1  and  N1_3
REMARK    2  A    between atoms: N2_5  and  N3_7
ROOT
HETATM    1  N3  UNL     1      20.560  44.816  -9.700  1.00  0.00    -0.312 N
HETATM    2  C1  UNL     1      21.964  45.154  -9.693  1.00  0.00     0.144 C
HETATM    3  C2  UNL     1      22.691  43.960  -9.109  1.00  0.00     0.021 C
HETATM    4  C3  UNL     1      22.425  42.816 -10.090  1.00  0.00     0.003 C
HETATM    5  C4  UNL     1      21.007  42.406  -9.922  1.00  0.00     0.021 C
HETATM    6  C5  UNL     1      20.018  43.506  -9.847  1.00  0.00     0.144 C
ENDROOT
BRANCH   1   7
HETATM    7  N2  UNL     1      19.655  45.882  -9.549  1.00  0.00    -0.225 N
HETATM    8  N1  UNL     1      18.937  46.304 -10.495  1.00  0.00    -0.196 N
ATOM      9  H1  UNL     1      18.977  45.889 -11.425  1.00  0.00     0.217 HD
ATOM     10  H2  UNL     1      19.577  46.332  -8.637  1.00  0.00     0.210 HD
BRANCH   8  11
HETATM   11  O1  UNL     1      18.092  47.361 -10.204  1.00  0.00    -0.273 OA
ATOM     12  H1  UNL     1      17.534  47.664 -10.911  1.00  0.00     0.246 HD
ENDBRANCH   8  11
ENDBRANCH   1   7
TORSDOF 2
ENDMDL