MODEL 4
REMARK VINA RESULT: -3.692157232      5.471      6.580
REMARK  1 active torsions:
REMARK  status: ('A' for Active; 'I' for Inactive)
REMARK    1  A    between atoms: O1_1  and  C1_3
ROOT
HETATM    1  C1  UNL     1      26.644  44.000 -11.412  1.00  0.00     0.150 C
HETATM    2  C2  UNL     1      27.027  44.984 -10.314  1.00  0.00     0.304 C
HETATM    3  N1  UNL     1      25.874  45.858 -10.140  1.00  0.00     0.090 N
HETATM    4  C3  UNL     1      24.721  44.969  -9.976  1.00  0.00     0.273 C
HETATM    5  C4  UNL     1      24.262  44.549 -11.350  1.00  0.00     0.037 C
HETATM    6  C5  UNL     1      25.512  44.530 -12.234  1.00  0.00     0.019 C
HETATM    7  C6  UNL     1      25.715  46.008 -12.592  1.00  0.00     0.037 C
HETATM    8  C7  UNL     1      25.697  46.745 -11.281  1.00  0.00     0.273 C
ENDROOT
BRANCH   1   9
HETATM    9  O1  UNL     1      27.785  43.742 -12.140  1.00  0.00    -0.393 OA
ATOM     10  H1  UNL     1      28.091  42.880 -11.883  1.00  0.00     0.210 HD
ENDBRANCH   1   9
TORSDOF 1
ENDMDL