MODEL 3
REMARK VINA RESULT: -4.482913396      1.709      3.327
REMARK  1 active torsions:
REMARK  status: ('A' for Active; 'I' for Inactive)
REMARK    1  A    between atoms: C3_3  and  O1_4
ROOT
HETATM    1  C1  UNL     1      22.318  43.008 -10.454  1.00  0.00     0.015 C
HETATM    2  C2  UNL     1      21.322  43.443  -9.928  1.00  0.00    -0.077 C
HETATM    3  C3  UNL     1      20.101  43.980  -9.285  1.00  0.00     0.141 C
HETATM    4  C4  UNL     1      20.437  44.698  -8.014  1.00  0.00     0.056 C
HETATM    5  C5  UNL     1      20.608  46.178  -8.176  1.00  0.00     0.030 C
HETATM    6  C6  UNL     1      19.685  46.767  -9.216  1.00  0.00     0.168 C
HETATM    7  O2  UNL     1      19.991  46.105 -10.429  1.00  0.00    -0.387 OA
HETATM    8  C7  UNL     1      19.417  44.854 -10.302  1.00  0.00     0.218 C
ENDROOT
BRANCH   3   9
HETATM    9  O1  UNL     1      19.250  42.902  -9.029  1.00  0.00    -0.375 OA
ATOM     10  H1  UNL     1      18.832  42.666  -9.849  1.00  0.00     0.211 HD
ENDBRANCH   3   9
TORSDOF 1
ENDMDL