MODEL 4
REMARK VINA RESULT: -5.892580571      2.583      5.320
REMARK  3 active torsions:
REMARK  status: ('A' for Active; 'I' for Inactive)
REMARK    1  A    between atoms: C1_2  and  C2_4
REMARK    2  A    between atoms: C5_11  and  N4_12
REMARK    3  A    between atoms: N4_12  and  C6_14
ROOT
HETATM    1  C2  UNL     1      25.819  45.794 -11.267  1.00  0.00     0.128 A
HETATM    2  N2  UNL     1      25.968  46.883 -10.497  1.00  0.00    -0.346 N
ATOM      3  H2  UNL     1      26.735  47.531 -10.680  1.00  0.00     0.167 HD
HETATM    4  C3  UNL     1      25.116  47.128  -9.484  1.00  0.00     0.181 A
HETATM    5  N3  UNL     1      24.095  46.292  -9.220  1.00  0.00    -0.347 N
ATOM      6  H3  UNL     1      23.458  46.493  -8.449  1.00  0.00     0.167 HD
HETATM    7  C4  UNL     1      23.917  45.200  -9.965  1.00  0.00     0.107 A
HETATM    8  C5  UNL     1      22.858  44.373  -9.656  1.00  0.00     0.132 A
HETATM    9  N6  UNL     1      22.696  43.278 -10.421  1.00  0.00    -0.337 N
ATOM     10  H6  UNL     1      21.925  42.640 -10.226  1.00  0.00     0.168 HD
HETATM   11  C9  UNL     1      23.547  43.007 -11.453  1.00  0.00     0.182 A
HETATM   12  N7  UNL     1      24.582  43.810 -11.761  1.00  0.00    -0.348 N
ATOM     13  H7  UNL     1      25.202  43.584 -12.539  1.00  0.00     0.167 HD
HETATM   14  C10 UNL     1      24.785  44.932 -11.012  1.00  0.00     0.096 A
ENDROOT
BRANCH   8  15
HETATM   15  N4  UNL     1      22.068  44.632  -8.691  1.00  0.00    -0.366 N
ATOM     16  H4  UNL     1      22.458  44.559  -7.751  1.00  0.00     0.161 HD
BRANCH  15  17
HETATM   17  C6  UNL     1      20.702  45.011  -8.783  1.00  0.00     0.134 C
HETATM   18  C7  UNL     1      20.520  46.430  -8.228  1.00  0.00     0.259 C
HETATM   19  N5  UNL     1      19.496  46.610  -9.256  1.00  0.00    -0.071 N
HETATM   20  C8  UNL     1      20.269  45.660 -10.072  1.00  0.00     0.259 C
ATOM     21  H52 UNL     1      18.508  46.457  -9.055  1.00  0.00     0.277 HD
ATOM     22  H51 UNL     1      19.251  47.536  -9.606  1.00  0.00     0.277 HD
ENDBRANCH  15  17
ENDBRANCH   8  15
BRANCH   1  23
HETATM   23  C1  UNL     1      26.756  45.563 -12.348  1.00  0.00     0.283 C
HETATM   24  N1  UNL     1      27.664  44.489 -12.272  1.00  0.00    -0.056 NA
HETATM   25  O1  UNL     1      26.731  46.337 -13.335  1.00  0.00    -0.269 OA
ENDBRANCH   1  23
TORSDOF 3
ENDMDL