MODEL 3
REMARK VINA RESULT: -5.286171579      1.031      1.205
REMARK  4 active torsions:
REMARK  status: ('A' for Active; 'I' for Inactive)
REMARK    1  A    between atoms: S1_2  and  N1_5
REMARK    2  A    between atoms: N1_5  and  C2_7
REMARK    3  A    between atoms: C3_10  and  C4_11
REMARK       I    between atoms: C4_11  and  N3_13
REMARK    4  A    between atoms: N3_13  and  N4_15
ROOT
HETATM    1  C2  UNL     1      23.248  44.612  -9.882  1.00  0.00     0.176 A
HETATM    2  N2  UNL     1      23.448  45.723  -9.219  1.00  0.00    -0.316 N
ATOM      3  H2  UNL     1      22.803  46.006  -8.481  1.00  0.00     0.169 HD
HETATM    4  C3  UNL     1      24.488  46.471  -9.514  1.00  0.00     0.184 A
HETATM    5  N5  UNL     1      25.292  46.041 -10.492  1.00  0.00    -0.305 N
ATOM      6  H5  UNL     1      26.138  46.478 -10.858  1.00  0.00     0.176 HD
HETATM    7  S2  UNL     1      24.564  44.601 -10.968  1.00  0.00     0.025 SA
ENDROOT
BRANCH   4   8
HETATM    8  C4  UNL     1      24.747  47.742  -8.781  1.00  0.00     0.304 C
HETATM    9  O3  UNL     1      25.882  48.279  -8.743  1.00  0.00    -0.263 OA
HETATM   10  N3  UNL     1      23.703  48.403  -8.090  1.00  0.00    -0.270 N
ATOM     11  H3  UNL     1      22.772  47.987  -8.106  1.00  0.00     0.189 HD
BRANCH  10  12
HETATM   12  N4  UNL     1      23.885  49.586  -7.393  1.00  0.00    -0.342 N
ATOM     13  H42 UNL     1      24.811  49.764  -7.007  1.00  0.00     0.176 HD
ATOM     14  H41 UNL     1      23.142  50.272  -7.255  1.00  0.00     0.176 HD
ENDBRANCH  10  12
ENDBRANCH   4   8
BRANCH   1  15
HETATM   15  N1  UNL     1      22.262  43.758  -9.710  1.00  0.00    -0.263 N
ATOM     16  H1  UNL     1      22.438  42.760  -9.594  1.00  0.00     0.180 HD
BRANCH  15  17
HETATM   17  S1  UNL     1      20.660  44.396  -9.689  1.00  0.00     0.228 S
HETATM   18  C1  UNL     1      20.133  44.757  -8.031  1.00  0.00     0.186 C
HETATM   19  O1  UNL     1      20.566  45.641 -10.514  1.00  0.00    -0.206 OA
HETATM   20  O2  UNL     1      19.680  43.411 -10.259  1.00  0.00    -0.206 OA
ENDBRANCH  15  17
ENDBRANCH   1  15
TORSDOF 4
ENDMDL