MODEL 4
REMARK VINA RESULT: -6.402223739      1.478      1.734
REMARK  5 active torsions:
REMARK  status: ('A' for Active; 'I' for Inactive)
REMARK    1  A    between atoms: N1_1  and  N2_4
REMARK    2  A    between atoms: N2_4  and  N3_6
REMARK    3  A    between atoms: N3_6  and  C1_8
REMARK    4  A    between atoms: C3_16  and  N7_17
REMARK       I    between atoms: N7_17  and  C4_19
REMARK    5  A    between atoms: C4_19  and  C5_21
ROOT
HETATM    1  C1  UNL     1      21.210  44.767  -9.430  1.00  0.00     0.181 A
HETATM    2  N4  UNL     1      20.232  44.066  -8.840  1.00  0.00    -0.280 N
ATOM      3  H4  UNL     1      19.744  44.479  -8.046  1.00  0.00     0.188 HD
HETATM    4  N5  UNL     1      19.880  42.878  -9.242  1.00  0.00    -0.294 N
ATOM      5  H5  UNL     1      19.132  42.369  -8.773  1.00  0.00     0.187 HD
HETATM    6  C2  UNL     1      20.524  42.343 -10.285  1.00  0.00     0.199 A
HETATM    7  N6  UNL     1      21.494  42.978 -10.907  1.00  0.00    -0.334 N
ATOM      8  H6  UNL     1      21.964  42.540 -11.698  1.00  0.00     0.168 HD
HETATM    9  C3  UNL     1      21.868  44.213 -10.499  1.00  0.00     0.156 A
ENDROOT
BRANCH   9  10
HETATM   10  N7  UNL     1      22.810  44.792 -11.129  1.00  0.00    -0.307 N
HETATM   11  C4  UNL     1      24.131  44.392 -11.311  1.00  0.00     0.282 C
HETATM   12  O1  UNL     1      24.419  43.578 -12.240  1.00  0.00    -0.269 OA
ATOM     13  H7  UNL     1      22.560  45.679 -11.564  1.00  0.00     0.170 HD
BRANCH  11  14
HETATM   14  C5  UNL     1      25.248  44.873 -10.465  1.00  0.00     0.473 C
HETATM   15  N8  UNL     1      26.504  44.905 -11.193  1.00  0.00    -0.036 N
HETATM   16  C6  UNL     1      27.283  45.784 -10.302  1.00  0.00     0.262 C
ATOM     17  H82 UNL     1      26.923  43.998 -11.404  1.00  0.00     0.280 HD
ATOM     18  H81 UNL     1      26.449  45.194 -12.169  1.00  0.00     0.280 HD
HETATM   19  C7  UNL     1      26.310  46.922 -10.130  1.00  0.00     0.262 C
HETATM   20  N9  UNL     1      25.041  46.268 -10.080  1.00  0.00    -0.036 N
ATOM     21  H92 UNL     1      24.331  46.735 -10.644  1.00  0.00     0.280 HD
ATOM     22  H91 UNL     1      24.579  46.366  -9.176  1.00  0.00     0.280 HD
ENDBRANCH  11  14
ENDBRANCH   9  10
BRANCH   1  23
HETATM   23  N3  UNL     1      21.534  46.057  -8.931  1.00  0.00    -0.267 N
ATOM     24  H3  UNL     1      22.478  46.235  -8.587  1.00  0.00     0.190 HD
BRANCH  23  25
HETATM   25  N2  UNL     1      20.689  46.979  -8.903  1.00  0.00    -0.248 N
ATOM     26  H2  UNL     1      21.095  47.720  -8.331  1.00  0.00     0.207 HD
BRANCH  25  27
HETATM   27  N1  UNL     1      19.570  47.394  -9.264  1.00  0.00    -0.331 N
ATOM     28  H12 UNL     1      19.691  48.403  -9.348  1.00  0.00     0.178 HD
ATOM     29  H11 UNL     1      18.605  47.169  -9.508  1.00  0.00     0.178 HD
ENDBRANCH  25  27
ENDBRANCH  23  25
ENDBRANCH   1  23
TORSDOF 5
ENDMDL