MODEL 5
REMARK VINA RESULT: -5.432172884      2.724      6.511
REMARK  3 active torsions:
REMARK  status: ('A' for Active; 'I' for Inactive)
REMARK    1  A    between atoms: N1_1  and  C1_5
REMARK    2  A    between atoms: C1_5  and  C2_6
REMARK       I    between atoms: C2_6  and  N2_8
REMARK    3  A    between atoms: C5_11  and  N3_12
ROOT
HETATM    1  C2  UNL     1      29.006  45.778 -11.427  1.00  0.00     0.245 C
HETATM    2  O1  UNL     1      29.509  45.107 -10.462  1.00  0.00    -0.272 OA
HETATM    3  N2  UNL     1      27.737  45.453 -11.951  1.00  0.00    -0.349 N
HETATM    4  C3  UNL     1      27.067  46.130 -13.032  1.00  0.00     0.128 C
HETATM    5  C4  UNL     1      25.591  46.010 -12.671  1.00  0.00     0.047 C
HETATM    6  C5  UNL     1      25.585  45.186 -11.367  1.00  0.00     0.108 C
HETATM    7  C9  UNL     1      26.816  44.393 -11.555  1.00  0.00     0.151 C
ENDROOT
BRANCH   6   8
HETATM    8  N3  UNL     1      24.352  44.552 -11.170  1.00  0.00    -0.333 N
HETATM    9  C6  UNL     1      24.013  43.493 -12.134  1.00  0.00     0.252 A
HETATM   10  N4  UNL     1      22.752  42.871 -11.870  1.00  0.00    -0.348 N
HETATM   11  C7  UNL     1      21.977  43.191 -10.923  1.00  0.00     0.191 A
ATOM     12  H4  UNL     1      22.457  42.116 -12.488  1.00  0.00     0.163 HD
HETATM   13  N5  UNL     1      20.730  42.476 -10.776  1.00  0.00    -0.063 NA
HETATM   14  N6  UNL     1      22.324  44.212 -10.033  1.00  0.00    -0.305 N
HETATM   15  C8  UNL     1      23.432  44.838 -10.159  1.00  0.00     0.194 A
ATOM     16  H6  UNL     1      21.688  44.460  -9.275  1.00  0.00     0.171 HD
HETATM   17  N7  UNL     1      23.706  45.858  -9.231  1.00  0.00    -0.063 NA
ENDBRANCH   6   8
BRANCH   1  18
HETATM   18  C1  UNL     1      29.827  46.907 -11.956  1.00  0.00     0.332 C
BRANCH  18  19
HETATM   19  N1  UNL     1      29.560  48.134 -11.268  1.00  0.00    -0.071 N
ATOM     20  H13 UNL     1      30.111  48.902 -11.654  1.00  0.00     0.274 HD
ATOM     21  H12 UNL     1      28.626  48.482 -11.481  1.00  0.00     0.274 HD
ATOM     22  H11 UNL     1      29.702  48.047 -10.262  1.00  0.00     0.274 HD
ENDBRANCH  18  19
ENDBRANCH   1  18
TORSDOF 3
ENDMDL