MODEL 3
REMARK VINA RESULT: -6.719794355      1.610      1.747
REMARK  3 active torsions:
REMARK  status: ('A' for Active; 'I' for Inactive)
REMARK    1  A    between atoms: C1_2  and  C2_4
REMARK    2  A    between atoms: C4_7  and  C5_8
REMARK       I    between atoms: C5_8  and  N2_10
REMARK    3  A    between atoms: N2_10  and  C6_12
ROOT
HETATM    1  C5  UNL     1      21.151  43.725 -10.327  1.00  0.00     0.276 C
HETATM    2  O2  UNL     1      20.909  42.686 -10.951  1.00  0.00    -0.266 OA
HETATM    3  N2  UNL     1      20.188  44.401  -9.571  1.00  0.00    -0.153 N
ATOM      4  H2  UNL     1      19.850  43.965  -8.713  1.00  0.00     0.187 HD
ENDROOT
BRANCH   1   5
HETATM    5  C4  UNL     1      22.530  44.269 -10.392  1.00  0.00     0.074 A
HETATM    6  S1  UNL     1      23.405  45.075  -9.178  1.00  0.00    -0.096 SA
HETATM    7  C3  UNL     1      24.851  45.359 -10.023  1.00  0.00     0.067 A
HETATM    8  C2  UNL     1      24.614  44.808 -11.259  1.00  0.00     0.037 A
HETATM    9  C7  UNL     1      23.397  44.240 -11.441  1.00  0.00     0.041 A
BRANCH   8  10
HETATM   10  C1  UNL     1      25.648  44.837 -12.338  1.00  0.00     0.265 C
HETATM   11  N1  UNL     1      25.809  45.993 -13.141  1.00  0.00    -0.057 NA
HETATM   12  O1  UNL     1      26.399  43.863 -12.575  1.00  0.00    -0.271 OA
ENDBRANCH   8  10
ENDBRANCH   1   5
BRANCH   3  13
HETATM   13  C6  UNL     1      19.701  45.567  -9.913  1.00  0.00     0.710 A
HETATM   14  N3  UNL     1      19.872  46.711  -9.226  1.00  0.00    -0.117 N
HETATM   15  N4  UNL     1      19.220  47.647  -9.912  1.00  0.00     0.006 NA
ATOM     16  H3  UNL     1      20.394  46.835  -8.358  1.00  0.00     0.202 HD
HETATM   17  N5  UNL     1      18.658  47.117 -10.989  1.00  0.00     0.006 NA
HETATM   18  N6  UNL     1      18.956  45.821 -10.991  1.00  0.00    -0.117 N
ATOM     19  H6  UNL     1      18.666  45.140 -11.693  1.00  0.00     0.202 HD
ENDBRANCH   3  13
TORSDOF 3
ENDMDL