MODEL 1
REMARK VINA RESULT: -6.783709175      0.000      0.000
REMARK  2 active torsions:
REMARK  status: ('A' for Active; 'I' for Inactive)
REMARK    1  A    between atoms: C3_4  and  N2_5
REMARK    2  A    between atoms: C9_16  and  N5_17
REMARK       I    between atoms: N5_17  and  C10_19
REMARK       I    between atoms: C10_19  and  N6_20
REMARK       I    between atoms: C10_19  and  N7_24
ROOT
HETATM    1  N1  UNL     1      24.827  47.184  -9.076  1.00  0.00    -0.191 NA
HETATM    2  C1  UNL     1      24.335  46.263  -9.519  1.00  0.00     0.107 C
HETATM    3  C2  UNL     1      23.695  45.096 -10.044  1.00  0.00     0.132 A
HETATM    4  C3  UNL     1      24.282  44.366 -11.042  1.00  0.00     0.129 A
HETATM    5  N3  UNL     1      23.559  43.258 -11.428  1.00  0.00    -0.337 N
ATOM      6  H3  UNL     1      23.935  42.666 -12.168  1.00  0.00     0.168 HD
HETATM    7  C8  UNL     1      22.392  42.922 -10.882  1.00  0.00     0.183 A
HETATM    8  N4  UNL     1      21.812  43.640  -9.901  1.00  0.00    -0.337 N
ATOM      9  H4  UNL     1      20.916  43.363  -9.499  1.00  0.00     0.168 HD
HETATM   10  C9  UNL     1      22.457  44.727  -9.476  1.00  0.00     0.129 A
ENDROOT
BRANCH   4  11
HETATM   11  N2  UNL     1      25.490  44.663 -11.689  1.00  0.00    -0.362 N
HETATM   12  C4  UNL     1      25.417  45.625 -12.806  1.00  0.00     0.150 C
HETATM   13  C5  UNL     1      26.280  46.805 -12.341  1.00  0.00     0.187 C
HETATM   14  O1  UNL     1      27.574  46.408 -12.090  1.00  0.00    -0.388 OA
HETATM   15  C6  UNL     1      27.816  45.073 -12.256  1.00  0.00     0.187 C
HETATM   16  C7  UNL     1      26.818  44.209 -11.433  1.00  0.00     0.150 C
ENDBRANCH   4  11
BRANCH  10  17
HETATM   17  N5  UNL     1      21.963  45.461  -8.543  1.00  0.00    -0.326 N
HETATM   18  C10 UNL     1      20.591  45.769  -8.301  1.00  0.00     0.481 C
HETATM   19  N6  UNL     1      19.772  44.621  -7.975  1.00  0.00    -0.033 N
HETATM   20  N7  UNL     1      19.951  46.515  -9.360  1.00  0.00    -0.033 N
ATOM     21  H63 UNL     1      19.855  43.907  -8.699  1.00  0.00     0.278 HD
ATOM     22  H62 UNL     1      20.168  44.113  -7.184  1.00  0.00     0.278 HD
ATOM     23  H61 UNL     1      18.791  44.841  -7.802  1.00  0.00     0.278 HD
ATOM     24  H73 UNL     1      20.476  47.365  -9.563  1.00  0.00     0.278 HD
ATOM     25  H72 UNL     1      20.055  46.029 -10.251  1.00  0.00     0.278 HD
ATOM     26  H71 UNL     1      18.970  46.735  -9.187  1.00  0.00     0.278 HD
ATOM     27  H5  UNL     1      22.635  45.873  -7.896  1.00  0.00     0.164 HD
ENDBRANCH  10  17
TORSDOF 2
ENDMDL