MODEL 3
REMARK VINA RESULT: -5.540384660      2.613      4.104
REMARK  3 active torsions:
REMARK  status: ('A' for Active; 'I' for Inactive)
REMARK    1  A    between atoms: S1_2  and  N1_5
REMARK       I    between atoms: N1_5  and  C2_7
REMARK       I    between atoms: C2_7  and  N2_9
REMARK    2  A    between atoms: C6_13  and  C7_14
REMARK       I    between atoms: C7_14  and  N3_16
REMARK    3  A    between atoms: N3_16  and  N4_18
ROOT
HETATM    1  N1  UNL     1      26.072  45.743 -10.724  1.00  0.00    -0.236 N
ATOM      2  H1  UNL     1      26.465  44.988 -11.286  1.00  0.00     0.183 HD
HETATM    3  C2  UNL     1      24.697  45.706 -10.344  1.00  0.00     0.340 C
HETATM    4  O3  UNL     1      24.296  46.661  -9.656  1.00  0.00    -0.245 OA
HETATM    5  N2  UNL     1      23.881  44.601 -10.765  1.00  0.00    -0.269 N
HETATM    6  C3  UNL     1      24.339  43.571 -11.515  1.00  0.00     0.102 A
HETATM    7  C4  UNL     1      23.347  42.673 -11.786  1.00  0.00     0.020 A
HETATM    8  C5  UNL     1      22.223  43.166 -11.175  1.00  0.00     0.037 A
HETATM    9  C6  UNL     1      22.592  44.372 -10.545  1.00  0.00     0.112 A
ENDROOT
BRANCH   9  10
HETATM   10  C7  UNL     1      21.595  45.118  -9.774  1.00  0.00     0.286 C
HETATM   11  O4  UNL     1      20.505  45.510 -10.240  1.00  0.00    -0.264 OA
HETATM   12  N3  UNL     1      21.818  45.446  -8.403  1.00  0.00    -0.271 N
ATOM     13  H3  UNL     1      22.682  45.160  -7.942  1.00  0.00     0.189 HD
BRANCH  12  14
HETATM   14  N4  UNL     1      20.852  46.157  -7.695  1.00  0.00    -0.342 N
ATOM     15  H42 UNL     1      20.456  45.749  -6.848  1.00  0.00     0.176 HD
ATOM     16  H41 UNL     1      20.552  47.073  -8.029  1.00  0.00     0.176 HD
ENDBRANCH  12  14
ENDBRANCH   9  10
BRANCH   1  17
HETATM   17  S1  UNL     1      27.060  47.048 -10.241  1.00  0.00     0.230 S
HETATM   18  C1  UNL     1      28.798  46.747 -10.501  1.00  0.00     0.186 C
HETATM   19  O1  UNL     1      26.712  48.324 -10.989  1.00  0.00    -0.206 OA
HETATM   20  O2  UNL     1      26.885  47.329  -8.758  1.00  0.00    -0.206 OA
ENDBRANCH   1  17
TORSDOF 3
ENDMDL