MODEL 4
REMARK VINA RESULT: -4.344411571      2.133      3.939
REMARK  3 active torsions:
REMARK  status: ('A' for Active; 'I' for Inactive)
REMARK    1  A    between atoms: O1_2  and  N1_3
REMARK    2  A    between atoms: N1_3  and  C2_5
REMARK    3  A    between atoms: C2_5  and  C3_9
ROOT
HETATM    1  C3  UNL     1      25.467  49.415  -8.026  1.00  0.00     0.178 C
HETATM    2  C4  UNL     1      24.763  48.230  -8.627  1.00  0.00     0.065 C
HETATM    3  C5  UNL     1      25.654  47.722  -9.735  1.00  0.00     0.025 C
HETATM    4  C6  UNL     1      26.426  48.934 -10.156  1.00  0.00     0.127 C
HETATM    5  N3  UNL     1      26.521  49.763  -8.961  1.00  0.00    -0.343 N
HETATM    6  C7  UNL     1      27.423  50.796  -8.587  1.00  0.00     0.193 C
HETATM    7  N4  UNL     1      27.058  51.862  -7.961  1.00  0.00    -0.264 N
ATOM      8  H4  UNL     1      27.730  52.587  -7.706  1.00  0.00     0.181 HD
HETATM    9  S1  UNL     1      25.383  52.007  -7.573  1.00  0.00     0.322 S
HETATM   10  O2  UNL     1      25.268  52.375  -6.135  1.00  0.00    -0.182 OA
HETATM   11  O3  UNL     1      24.773  53.060  -8.465  1.00  0.00    -0.182 OA
HETATM   12  N5  UNL     1      24.561  50.522  -7.927  1.00  0.00    -0.268 N
ATOM     13  H5  UNL     1      23.552  50.444  -8.049  1.00  0.00     0.177 HD
ENDROOT
BRANCH   1  14
HETATM   14  C2  UNL     1      26.004  48.997  -6.708  1.00  0.00     0.145 C
HETATM   15  N2  UNL     1      27.113  48.413  -6.533  1.00  0.00    -0.384 N
ATOM     16  H22 UNL     1      27.482  48.125  -5.627  1.00  0.00     0.157 HD
ATOM     17  H21 UNL     1      27.696  48.205  -7.343  1.00  0.00     0.157 HD
BRANCH  14  18
HETATM   18  N1  UNL     1      25.187  49.288  -5.576  1.00  0.00    -0.251 N
ATOM     19  H1  UNL     1      24.186  49.451  -5.682  1.00  0.00     0.196 HD
BRANCH  18  20
HETATM   20  O1  UNL     1      25.772  49.343  -4.366  1.00  0.00    -0.284 OA
HETATM   21  C1  UNL     1      25.136  50.219  -3.521  1.00  0.00     0.237 C
ENDBRANCH  18  20
ENDBRANCH  14  18
ENDBRANCH   1  14
TORSDOF 3
ENDMDL