MODEL 1
REMARK VINA RESULT: -6.639473956      0.000      0.000
REMARK  10 active torsions:
REMARK  status: ('A' for Active; 'I' for Inactive)
REMARK    1  A    between atoms: C2_2  and  C3_3
REMARK    2  A    between atoms: C3_3  and  C4_5
REMARK    3  A    between atoms: C4_5  and  C5_7
REMARK    4  A    between atoms: C6_8  and  O2_9
REMARK    5  A    between atoms: C8_12  and  O3_13
REMARK    6  A    between atoms: C13_19  and  O4_20
REMARK    7  A    between atoms: C13_19  and  C14_22
REMARK    8  A    between atoms: C14_22  and  C15_23
REMARK    9  A    between atoms: C18_27  and  O6_28
REMARK   10  A    between atoms: O6_28  and  C19_29
ROOT
HETATM    1  C5  UNL     1      -3.572   2.302  12.407  1.00  0.00     0.122 C
HETATM    2  C6  UNL     1      -4.227   2.859  13.634  1.00  0.00     0.142 C
HETATM    3  C7  UNL     1      -3.186   3.963  13.544  1.00  0.00     0.081 C
HETATM    4  C8  UNL     1      -3.689   5.331  13.795  1.00  0.00     0.136 C
HETATM    5  C9  UNL     1      -4.458   5.658  12.535  1.00  0.00     0.048 C
HETATM    6  C10 UNL     1      -4.097   6.955  11.985  1.00  0.00    -0.013 C
HETATM    7  C11 UNL     1      -3.721   6.835  10.731  1.00  0.00    -0.052 C
HETATM    8  C12 UNL     1      -3.281   8.041   9.905  1.00  0.00     0.046 C
HETATM    9  C13 UNL     1      -3.808   5.441  10.318  1.00  0.00     0.094 C
HETATM   10  C17 UNL     1      -4.056   4.643  11.498  1.00  0.00     0.071 C
HETATM   11  C18 UNL     1      -3.100   3.695  12.068  1.00  0.00     0.095 C
ENDROOT
BRANCH   1  12
HETATM   12  C4  UNL     1      -4.388   1.642  11.420  1.00  0.00     0.154 C
HETATM   13  O1  UNL     1      -5.467   2.074  11.119  1.00  0.00    -0.296 OA
BRANCH  12  14
HETATM   14  C3  UNL     1      -3.965   0.384  10.694  1.00  0.00     0.152 C
HETATM   15 CL1  UNL     1      -2.232   0.446  10.328  1.00  0.00    -0.117 Cl
BRANCH  14  16
HETATM   16  C2  UNL     1      -4.205  -0.800  11.602  1.00  0.00     0.023 C
HETATM   17  C1  UNL     1      -3.062  -1.776  11.349  1.00  0.00     0.007 C
ENDBRANCH  14  16
ENDBRANCH  12  14
ENDBRANCH   1  12
BRANCH   2  18
HETATM   18  O2  UNL     1      -5.542   3.210  13.563  1.00  0.00    -0.394 OA
ATOM     19  H2  UNL     1      -5.930   3.656  14.306  1.00  0.00     0.210 HD
ENDBRANCH   2  18
BRANCH  11  20
HETATM   20  O6  UNL     1      -1.879   3.596  11.490  1.00  0.00    -0.319 OA
BRANCH  20  21
HETATM   21  C19 UNL     1      -0.784   4.099  12.040  1.00  0.00     0.501 C
HETATM   22  F1  UNL     1       0.411   3.717  11.405  1.00  0.00    -0.184 F
HETATM   23  F2  UNL     1      -0.811   5.495  11.859  1.00  0.00    -0.184 F
ENDBRANCH  20  21
ENDBRANCH  11  20
BRANCH   4  24
HETATM   24  O3  UNL     1      -4.428   5.474  14.943  1.00  0.00    -0.394 OA
ATOM     25  H3  UNL     1      -5.332   5.191  14.874  1.00  0.00     0.210 HD
ENDBRANCH   4  24
BRANCH   9  26
HETATM   26  O4  UNL     1      -5.088   5.474   9.585  1.00  0.00    -0.384 OA
ATOM     27  H4  UNL     1      -5.690   5.563  10.315  1.00  0.00     0.211 HD
ENDBRANCH   9  26
BRANCH   9  28
HETATM   28  C14 UNL     1      -2.833   5.067   9.308  1.00  0.00     0.120 C
BRANCH  28  29
HETATM   29  C15 UNL     1      -3.298   5.139   7.902  1.00  0.00     0.126 C
HETATM   30  C16 UNL     1      -2.805   6.239   6.983  1.00  0.00     0.091 C
HETATM   31  O5  UNL     1      -4.079   4.373   7.365  1.00  0.00    -0.298 OA
ENDBRANCH  28  29
ENDBRANCH   9  28
TORSDOF 10
ENDMDL