MODEL 2
REMARK VINA RESULT: -7.275689103      2.964      5.206
REMARK  11 active torsions:
REMARK  status: ('A' for Active; 'I' for Inactive)
REMARK    1  A    between atoms: C2_2  and  N1_3
REMARK    2  A    between atoms: C2_2  and  C6_11
REMARK    3  A    between atoms: N1_3  and  C3_5
REMARK    4  A    between atoms: C3_5  and  C5_7
REMARK       I    between atoms: C6_11  and  N2_13
REMARK    5  A    between atoms: N2_13  and  C7_15
REMARK    6  A    between atoms: C7_15  and  C8_16
REMARK    7  A    between atoms: C7_15  and  C15_28
REMARK    8  A    between atoms: C8_16  and  S1_17
REMARK    9  A    between atoms: S1_17  and  C9_18
REMARK   10  A    between atoms: C9_18  and  O2_19
REMARK   11  A    between atoms: C9_18  and  N3_21
ROOT
HETATM    1  C7  UNL     1      -1.905   6.359  13.345  1.00  0.00     0.195 C
ENDROOT
BRANCH   1   2
HETATM    2  N2  UNL     1      -3.119   5.677  13.647  1.00  0.00    -0.344 N
HETATM    3  C6  UNL     1      -3.258   4.470  14.367  1.00  0.00     0.240 C
HETATM    4  O1  UNL     1      -2.263   3.882  14.818  1.00  0.00    -0.271 OA
ATOM      5  H2  UNL     1      -3.979   6.107  13.307  1.00  0.00     0.163 HD
BRANCH   3   6
HETATM    6  C2  UNL     1      -4.596   3.870  14.605  1.00  0.00     0.166 C
HETATM    7  C1  UNL     1      -5.535   5.061  14.793  1.00  0.00     0.042 C
BRANCH   6   8
HETATM    8  N1  UNL     1      -4.534   3.032  15.720  1.00  0.00    -0.398 N
ATOM      9  H1  UNL     1      -3.825   3.224  16.428  1.00  0.00     0.154 HD
BRANCH   8  10
HETATM   10  C3  UNL     1      -5.380   1.953  15.919  1.00  0.00     0.181 C
HETATM   11  C4  UNL     1      -4.745   0.597  16.097  1.00  0.00     0.041 C
BRANCH  10  12
HETATM   12  C5  UNL     1      -6.370   2.102  17.058  1.00  0.00     0.406 C
HETATM   13  F1  UNL     1      -7.337   1.134  16.862  1.00  0.00    -0.169 F
HETATM   14  F2  UNL     1      -6.981   3.314  17.112  1.00  0.00    -0.169 F
HETATM   15  F3  UNL     1      -5.765   1.749  18.274  1.00  0.00    -0.169 F
ENDBRANCH  10  12
ENDBRANCH   8  10
ENDBRANCH   6   8
ENDBRANCH   3   6
ENDBRANCH   1   2
BRANCH   1  16
HETATM   16  C8  UNL     1      -1.643   6.517  11.858  1.00  0.00     0.119 C
BRANCH  16  17
HETATM   17  S1  UNL     1      -0.827   5.164  11.088  1.00  0.00    -0.084 SA
BRANCH  17  18
HETATM   18  C9  UNL     1      -1.086   3.533  11.542  1.00  0.00     0.178 C
BRANCH  18  19
HETATM   19  O2  UNL     1      -0.344   3.123  12.572  1.00  0.00    -0.341 OA
ATOM     20  H2  UNL     1      -0.710   2.389  13.052  1.00  0.00     0.220 HD
ENDBRANCH  18  19
BRANCH  18  21
HETATM   21  N3  UNL     1      -1.929   2.544  11.036  1.00  0.00    -0.353 N
HETATM   22  C10 UNL     1      -3.405   2.730  11.211  1.00  0.00     0.155 C
HETATM   23  C11 UNL     1      -4.094   1.510  10.725  1.00  0.00     0.291 C
HETATM   24  N4  UNL     1      -3.562   0.263  11.172  1.00  0.00     0.087 N
HETATM   25  C12 UNL     1      -4.006  -0.105  12.485  1.00  0.00     0.310 C
HETATM   26  C13 UNL     1      -2.123   0.168  11.121  1.00  0.00     0.291 C
HETATM   27  C14 UNL     1      -1.589   1.357  10.331  1.00  0.00     0.155 C
ENDBRANCH  18  21
ENDBRANCH  17  18
ENDBRANCH  16  17
ENDBRANCH   1  16
BRANCH   1  28
HETATM   28  C15 UNL     1      -1.932   7.713  13.946  1.00  0.00     0.197 C
HETATM   29  O3  UNL     1      -2.143   7.848  15.168  1.00  0.00    -0.646 OA
HETATM   30  O4  UNL     1      -1.717   8.837  13.125  1.00  0.00    -0.646 OA
ENDBRANCH   1  28
TORSDOF 11
ENDMDL