MODEL 5
REMARK VINA RESULT: -7.714855818      3.167      4.690
REMARK  9 active torsions:
REMARK  status: ('A' for Active; 'I' for Inactive)
REMARK    1  A    between atoms: C2_2  and  C4_4
REMARK    2  A    between atoms: C4_4  and  N1_5
REMARK    3  A    between atoms: C4_4  and  C15_25
REMARK       I    between atoms: N1_5  and  C5_7
REMARK    4  A    between atoms: C5_7  and  C6_9
REMARK    5  A    between atoms: C6_9  and  N2_10
REMARK    6  A    between atoms: C6_9  and  C7_14
REMARK    7  A    between atoms: C7_14  and  C8_15
REMARK    8  A    between atoms: C12_19  and  C13_20
REMARK       I    between atoms: C15_25  and  N3_27
REMARK    9  A    between atoms: C19_32  and  O4_33
ROOT
HETATM    1  N1  UNL     1      -4.106   4.188  14.256  1.00  0.00    -0.346 N
ATOM      2  H1  UNL     1      -4.799   4.730  13.740  1.00  0.00     0.163 HD
HETATM    3  C5  UNL     1      -2.777   4.606  14.194  1.00  0.00     0.249 C
HETATM    4  O1  UNL     1      -1.865   4.005  14.800  1.00  0.00    -0.271 OA
ENDROOT
BRANCH   3   5
HETATM    5  C6  UNL     1      -2.384   5.833  13.368  1.00  0.00     0.275 C
BRANCH   5   6
HETATM    6  N2  UNL     1      -1.394   6.581  14.068  1.00  0.00    -0.066 N
ATOM      7  H23 UNL     1      -1.732   6.918  14.969  1.00  0.00     0.275 HD
ATOM      8  H22 UNL     1      -0.634   5.992  14.407  1.00  0.00     0.275 HD
ATOM      9  H21 UNL     1      -1.057   7.339  13.475  1.00  0.00     0.275 HD
ENDBRANCH   5   6
BRANCH   5  10
HETATM   10  C7  UNL     1      -3.657   6.527  13.063  1.00  0.00     0.051 C
BRANCH  10  11
HETATM   11  C8  UNL     1      -3.989   6.764  11.637  1.00  0.00    -0.041 C
HETATM   12  C9  UNL     1      -3.508   5.751  10.660  1.00  0.00     0.015 C
HETATM   13  C10 UNL     1      -3.329   8.103  11.266  1.00  0.00     0.010 C
HETATM   14  C11 UNL     1      -4.216   8.755  10.259  1.00  0.00     0.014 C
HETATM   15  C12 UNL     1      -5.592   8.354  10.727  1.00  0.00     0.094 C
HETATM   16  C14 UNL     1      -5.462   7.031  11.406  1.00  0.00     0.022 C
BRANCH  15  17
HETATM   17  C13 UNL     1      -6.497   8.335   9.528  1.00  0.00     0.391 C
HETATM   18  F1  UNL     1      -5.964   7.388   8.643  1.00  0.00    -0.171 F
HETATM   19  F2  UNL     1      -6.587   9.533   8.881  1.00  0.00    -0.171 F
HETATM   20  F3  UNL     1      -7.752   7.833   9.877  1.00  0.00    -0.171 F
ENDBRANCH  15  17
ENDBRANCH  10  11
ENDBRANCH   5  10
ENDBRANCH   3   5
BRANCH   1  21
HETATM   21  C4  UNL     1      -4.567   3.055  14.992  1.00  0.00     0.180 C
BRANCH  21  22
HETATM   22  C2  UNL     1      -5.990   3.247  15.437  1.00  0.00     0.009 C
HETATM   23  C1  UNL     1      -6.259   4.755  15.344  1.00  0.00     0.012 C
HETATM   24  C3  UNL     1      -6.302   2.745  16.818  1.00  0.00     0.012 C
ENDBRANCH  21  22
BRANCH  21  25
HETATM   25  C15 UNL     1      -4.262   1.770  14.371  1.00  0.00     0.246 C
HETATM   26  O2  UNL     1      -3.983   0.814  15.194  1.00  0.00    -0.271 OA
HETATM   27  N3  UNL     1      -4.232   1.414  13.024  1.00  0.00    -0.302 N
HETATM   28  C16 UNL     1      -4.558   2.353  11.985  1.00  0.00     0.298 C
HETATM   29  C19 UNL     1      -3.866   0.077  12.594  1.00  0.00     0.226 C
HETATM   30  O3  UNL     1      -5.488   1.757  11.099  1.00  0.00    -0.372 OA
HETATM   31  C17 UNL     1      -4.749   0.831  10.359  1.00  0.00     0.174 C
HETATM   32  C18 UNL     1      -4.431  -0.317  11.274  1.00  0.00     0.080 C
BRANCH  29  33
HETATM   33  O4  UNL     1      -4.235  -0.884  13.531  1.00  0.00    -0.376 OA
ATOM     34  H4  UNL     1      -4.893  -0.555  14.131  1.00  0.00     0.212 HD
ENDBRANCH  29  33
ENDBRANCH  21  25
ENDBRANCH   1  21
TORSDOF 9
ENDMDL