MODEL 4
REMARK VINA RESULT: -5.670514379      2.119      5.117
REMARK  9 active torsions:
REMARK  status: ('A' for Active; 'I' for Inactive)
REMARK    1  A    between atoms: C2_2  and  O2_4
REMARK    2  A    between atoms: O2_4  and  C3_5
REMARK    3  A    between atoms: C3_5  and  C4_6
REMARK    4  A    between atoms: C4_6  and  C5_7
REMARK    5  A    between atoms: C5_7  and  C6_8
REMARK    6  A    between atoms: C6_8  and  C9_11
REMARK    7  A    between atoms: C11_17  and  C12_18
REMARK    8  A    between atoms: C11_17  and  C13_21
REMARK    9  A    between atoms: C15_25  and  O6_26
ROOT
HETATM    1  C4  UNL     1      -2.694   3.249  11.021  1.00  0.00     0.092 C
HETATM    2  C10 UNL     1      -1.665   3.360  12.086  1.00  0.00     0.232 C
HETATM    3  O3  UNL     1      -0.601   2.721  12.290  1.00  0.00    -0.272 OA
HETATM    4  N1  UNL     1      -2.118   4.426  12.943  1.00  0.00    -0.336 N
ATOM      5  H1  UNL     1      -1.539   5.143  13.379  1.00  0.00     0.164 HD
HETATM    6  C11 UNL     1      -3.562   4.283  13.068  1.00  0.00     0.183 C
HETATM    7  C15 UNL     1      -3.955   3.778  11.729  1.00  0.00     0.180 C
ENDROOT
BRANCH   1   8
HETATM    8  C3  UNL     1      -2.968   1.812  10.662  1.00  0.00     0.200 C
BRANCH   8   9
HETATM    9  O2  UNL     1      -2.692   0.955  11.789  1.00  0.00    -0.320 OA
BRANCH   9  10
HETATM   10  C2  UNL     1      -3.318  -0.281  11.853  1.00  0.00     0.254 C
HETATM   11  C1  UNL     1      -2.867  -1.465  11.070  1.00  0.00     0.126 C
HETATM   12  O1  UNL     1      -4.313  -0.389  12.616  1.00  0.00    -0.266 OA
ENDBRANCH   9  10
ENDBRANCH   8   9
ENDBRANCH   1   8
BRANCH   1  13
HETATM   13  C5  UNL     1      -2.470   4.082   9.852  1.00  0.00     0.034 C
BRANCH  13  14
HETATM   14  C6  UNL     1      -1.211   4.348   9.189  1.00  0.00    -0.034 C
HETATM   15  C7  UNL     1      -1.657   4.943   7.803  1.00  0.00     0.016 C
HETATM   16  C8  UNL     1      -0.427   5.531   9.786  1.00  0.00     0.016 C
BRANCH  14  17
HETATM   17  C9  UNL     1      -0.280   3.290   8.780  1.00  0.00     0.123 C
HETATM   18 CL1  UNL     1       1.335   3.458   9.555  1.00  0.00    -0.130 Cl
ENDBRANCH  14  17
ENDBRANCH  13  14
ENDBRANCH   1  13
BRANCH   7  19
HETATM   19  O6  UNL     1      -4.895   2.770  11.902  1.00  0.00    -0.391 OA
ATOM     20  H6  UNL     1      -4.518   1.915  11.731  1.00  0.00     0.210 HD
ENDBRANCH   7  19
BRANCH   6  21
HETATM   21  C12 UNL     1      -3.765   3.236  14.134  1.00  0.00     0.208 C
HETATM   22  O4  UNL     1      -4.627   2.329  14.024  1.00  0.00    -0.646 OA
HETATM   23  O5  UNL     1      -2.997   3.240  15.292  1.00  0.00    -0.646 OA
ENDBRANCH   6  21
BRANCH   6  24
HETATM   24  C13 UNL     1      -4.247   5.567  13.472  1.00  0.00     0.147 C
HETATM   25  C14 UNL     1      -4.696   6.366  12.269  1.00  0.00     0.053 C
HETATM   26 CL2  UNL     1      -3.119   6.591  14.390  1.00  0.00    -0.099 Cl
HETATM   27 CL3  UNL     1      -5.682   5.275  14.463  1.00  0.00    -0.099 Cl
ENDBRANCH   6  24
TORSDOF 9
ENDMDL