MODEL 3
REMARK VINA RESULT: -7.827265736      2.153      6.267
REMARK  10 active torsions:
REMARK  status: ('A' for Active; 'I' for Inactive)
REMARK    1  A    between atoms: O1_2  and  C2_3
REMARK    2  A    between atoms: C2_3  and  C3_5
REMARK    3  A    between atoms: C3_5  and  N1_6
REMARK       I    between atoms: N1_6  and  C4_8
REMARK    4  A    between atoms: C4_8  and  C5_10
REMARK    5  A    between atoms: C5_10  and  O4_12
REMARK    6  A    between atoms: O4_12  and  C7_13
REMARK    7  A    between atoms: C7_13  and  C8_15
REMARK    8  A    between atoms: C8_15  and  N2_16
REMARK    9  A    between atoms: C8_15  and  C10_21
REMARK       I    between atoms: N2_16  and  C9_18
REMARK   10  A    between atoms: C10_21  and  C12_23
ROOT
HETATM    1  C5  UNL     1      -3.168   0.989  11.407  1.00  0.00     0.219 C
HETATM    2  C6  UNL     1      -2.736  -0.433  11.175  1.00  0.00     0.050 C
ENDROOT
BRANCH   1   3
HETATM    3  C4  UNL     1      -2.003   1.878  11.180  1.00  0.00     0.247 C
HETATM    4  N1  UNL     1      -2.205   3.145  10.592  1.00  0.00    -0.340 N
ATOM      5  H1  UNL     1      -3.156   3.414  10.338  1.00  0.00     0.163 HD
HETATM    6  O3  UNL     1      -0.869   1.504  11.507  1.00  0.00    -0.271 OA
BRANCH   4   7
HETATM    7  C3  UNL     1      -1.133   4.083  10.328  1.00  0.00     0.121 C
HETATM    8  C13 UNL     1      -1.773   5.439  10.052  1.00  0.00     0.041 C
HETATM    9  C14 UNL     1      -1.767   6.303  11.299  1.00  0.00     0.003 C
HETATM   10  C15 UNL     1      -0.338   6.693  11.536  1.00  0.00     0.000 C
HETATM   11  C16 UNL     1       0.518   5.472  11.544  1.00  0.00     0.003 C
HETATM   12  C17 UNL     1      -0.191   4.168  11.512  1.00  0.00     0.041 C
BRANCH   7  13
HETATM   13  C2  UNL     1      -0.384   3.645   9.146  1.00  0.00     0.287 C
HETATM   14  O2  UNL     1      -0.852   3.795   7.996  1.00  0.00    -0.262 OA
BRANCH  13  15
HETATM   15  O1  UNL     1       0.853   3.053   9.272  1.00  0.00    -0.325 OA
HETATM   16  C1  UNL     1       1.959   3.554   8.555  1.00  0.00     0.213 C
ENDBRANCH  13  15
ENDBRANCH   7  13
ENDBRANCH   4   7
ENDBRANCH   1   3
BRANCH   1  17
HETATM   17  O4  UNL     1      -3.699   1.179  12.715  1.00  0.00    -0.305 OA
BRANCH  17  18
HETATM   18  C7  UNL     1      -4.560   2.231  12.963  1.00  0.00     0.283 C
HETATM   19  O5  UNL     1      -5.090   2.783  11.971  1.00  0.00    -0.263 OA
BRANCH  18  20
HETATM   20  C8  UNL     1      -4.832   2.681  14.370  1.00  0.00     0.198 C
BRANCH  20  21
HETATM   21  N2  UNL     1      -4.402   1.589  15.242  1.00  0.00    -0.331 N
HETATM   22  C9  UNL     1      -5.307   1.233  16.304  1.00  0.00     0.329 C
HETATM   23  N3  UNL     1      -4.991   0.182  17.222  1.00  0.00    -0.040 NA
HETATM   24  O6  UNL     1      -6.396   1.821  16.466  1.00  0.00    -0.251 OA
ATOM     25  H2  UNL     1      -3.512   1.108  15.106  1.00  0.00     0.164 HD
ENDBRANCH  20  21
BRANCH  20  26
HETATM   26  C10 UNL     1      -4.085   3.917  14.754  1.00  0.00     0.122 C
HETATM   27  C11 UNL     1      -2.693   4.017  14.173  1.00  0.00     0.021 C
BRANCH  26  28
HETATM   28  C12 UNL     1      -4.815   5.203  14.636  1.00  0.00     0.393 C
HETATM   29  F1  UNL     1      -5.951   5.275  15.422  1.00  0.00    -0.171 F
HETATM   30  F2  UNL     1      -3.947   6.186  15.158  1.00  0.00    -0.171 F
HETATM   31  F3  UNL     1      -5.124   5.629  13.386  1.00  0.00    -0.171 F
ENDBRANCH  26  28
ENDBRANCH  20  26
ENDBRANCH  18  20
ENDBRANCH  17  18
ENDBRANCH   1  17
TORSDOF 10
ENDMDL