MODEL 4
REMARK VINA RESULT: -8.453009118      2.834      3.838
REMARK  10 active torsions:
REMARK  status: ('A' for Active; 'I' for Inactive)
REMARK    1  A    between atoms: N2_6  and  C5_7
REMARK    2  A    between atoms: N3_10  and  C8_11
REMARK    3  A    between atoms: C8_11  and  C9_12
REMARK    4  A    between atoms: C9_12  and  C10_13
REMARK    5  A    between atoms: C9_12  and  C13_22
REMARK       I    between atoms: C10_13  and  N4_15
REMARK    6  A    between atoms: N4_15  and  C11_17
REMARK    7  A    between atoms: C11_17  and  C12_18
REMARK    8  A    between atoms: C18_27  and  C19_28
REMARK    9  A    between atoms: C19_28  and  O2_29
REMARK   10  A    between atoms: N5_31  and  O3_33
ROOT
HETATM    1  N1  UNL     1       3.837   3.078   8.789  1.00  0.00    -0.197 NA
HETATM    2  C1  UNL     1       2.749   3.469   8.805  1.00  0.00     0.067 C
HETATM    3  C2  UNL     1       1.378   3.933   8.813  1.00  0.00     0.128 C
HETATM    4  C3  UNL     1       0.426   2.813   9.179  1.00  0.00     0.066 C
HETATM    5  C4  UNL     1      -0.299   3.302  10.419  1.00  0.00     0.061 C
HETATM    6  N2  UNL     1       0.104   4.613  10.672  1.00  0.00    -0.375 N
HETATM    7  C18 UNL     1       1.205   4.987   9.881  1.00  0.00     0.178 C
ENDROOT
BRANCH   7   8
HETATM    8  C19 UNL     1       2.400   5.190  10.725  1.00  0.00     0.160 C
HETATM    9  N5  UNL     1       2.625   4.369  11.684  1.00  0.00    -0.249 N
ATOM     10  H5  UNL     1       1.949   3.614  11.805  1.00  0.00     0.196 HD
BRANCH   8  11
HETATM   11  O2  UNL     1       3.290   6.225  10.528  1.00  0.00    -0.347 OA
ATOM     12  H2  UNL     1       4.138   6.264  10.954  1.00  0.00     0.219 HD
ENDBRANCH   8  11
BRANCH   9  13
HETATM   13  O3  UNL     1       3.663   4.397  12.555  1.00  0.00    -0.288 OA
ATOM     14  H3  UNL     1       3.752   3.892  13.355  1.00  0.00     0.244 HD
ENDBRANCH   9  13
ENDBRANCH   7   8
BRANCH   6  15
HETATM   15  C5  UNL     1      -0.808   5.582  11.122  1.00  0.00     0.087 C
HETATM   16  C6  UNL     1      -0.922   5.546  12.624  1.00  0.00     0.055 C
HETATM   17  C7  UNL     1      -1.990   4.710  13.182  1.00  0.00     0.274 C
HETATM   18  N3  UNL     1      -3.259   4.739  12.367  1.00  0.00     0.089 N
HETATM   19  C16 UNL     1      -3.202   5.874  11.548  1.00  0.00     0.274 C
HETATM   20  C17 UNL     1      -2.140   5.569  10.458  1.00  0.00     0.055 C
BRANCH  18  21
HETATM   21  C8  UNL     1      -4.324   4.434  13.221  1.00  0.00     0.286 C
BRANCH  21  22
HETATM   22  C9  UNL     1      -4.535   3.054  13.666  1.00  0.00     0.110 C
BRANCH  22  23
HETATM   23  C10 UNL     1      -4.687   2.051  12.615  1.00  0.00     0.224 C
HETATM   24  O1  UNL     1      -5.493   2.248  11.682  1.00  0.00    -0.273 OA
HETATM   25  N4  UNL     1      -3.907   0.875  12.672  1.00  0.00    -0.352 N
ATOM     26  H4  UNL     1      -3.266   0.772  13.458  1.00  0.00     0.162 HD
BRANCH  25  27
HETATM   27  C11 UNL     1      -3.950  -0.170  11.723  1.00  0.00     0.239 C
BRANCH  27  28
HETATM   28  C12 UNL     1      -2.702  -0.600  11.041  1.00  0.00     0.403 C
HETATM   29  F1  UNL     1      -1.671   0.326  11.272  1.00  0.00    -0.169 F
HETATM   30  F2  UNL     1      -2.883  -0.540   9.632  1.00  0.00    -0.169 F
HETATM   31  F3  UNL     1      -2.328  -1.878  11.305  1.00  0.00    -0.169 F
ENDBRANCH  27  28
ENDBRANCH  25  27
ENDBRANCH  22  23
BRANCH  22  32
HETATM   32  C13 UNL     1      -5.804   2.980  14.544  1.00  0.00     0.000 A
HETATM   33  C14 UNL     1      -5.940   4.014  15.600  1.00  0.00     0.006 A
HETATM   34  C15 UNL     1      -5.613   2.617  15.980  1.00  0.00     0.006 A
ENDBRANCH  22  32
ENDBRANCH  21  22
ENDBRANCH  18  21
ENDBRANCH   6  15
TORSDOF 10
ENDMDL