MODEL 2
REMARK VINA RESULT: -7.154086138      2.311      4.508
REMARK  10 active torsions:
REMARK  status: ('A' for Active; 'I' for Inactive)
REMARK    1  A    between atoms: C2_4  and  C3_5
REMARK    2  A    between atoms: C3_5  and  O3_6
REMARK    3  A    between atoms: C3_5  and  C4_8
REMARK    4  A    between atoms: C4_8  and  O4_9
REMARK    5  A    between atoms: C4_8  and  C5_11
REMARK    6  A    between atoms: C5_11  and  O5_12
REMARK    7  A    between atoms: C6_14  and  O6_15
REMARK    8  A    between atoms: O6_15  and  C7_16
REMARK    9  A    between atoms: C7_16  and  C8_17
REMARK   10  A    between atoms: N1_19  and  C9_20
ROOT
HETATM    1  O1  UNL     1      -4.720   1.528  10.376  1.00  0.00    -0.238 OA
HETATM    2  C1  UNL     1      -4.373   1.961  11.499  1.00  0.00     0.365 C
HETATM    3  O2  UNL     1      -4.785   1.414  12.717  1.00  0.00    -0.291 OA
HETATM    4  C2  UNL     1      -4.808   2.451  13.639  1.00  0.00     0.213 C
HETATM    5  C6  UNL     1      -3.992   3.599  13.020  1.00  0.00     0.260 C
HETATM    6  N1  UNL     1      -3.501   3.081  11.773  1.00  0.00    -0.293 N
ENDROOT
BRANCH   6   7
HETATM    7  C9  UNL     1      -2.434   3.453  10.906  1.00  0.00     0.099 C
HETATM    8  C10 UNL     1      -1.235   2.567  11.294  1.00  0.00     0.026 C
HETATM    9  C11 UNL     1      -0.662   1.873  10.075  1.00  0.00     0.002 C
HETATM   10  C12 UNL     1       0.379   2.824   9.518  1.00  0.00     0.000 C
HETATM   11  C13 UNL     1      -0.384   4.080   9.134  1.00  0.00     0.005 C
HETATM   12  C14 UNL     1      -0.625   4.992  10.272  1.00  0.00    -0.003 C
HETATM   13  C15 UNL     1      -1.079   6.347   9.773  1.00  0.00     0.047 C
HETATM   14  C17 UNL     1      -1.962   4.849  10.965  1.00  0.00     0.051 C
HETATM   15  C16 UNL     1      -2.512   5.871  10.057  1.00  0.00     0.119 C
HETATM   16 CL1  UNL     1      -3.406   5.375   8.638  1.00  0.00    -0.101 Cl
HETATM   17 CL2  UNL     1      -3.350   7.242  10.867  1.00  0.00    -0.101 Cl
ENDBRANCH   6   7
BRANCH   5  18
HETATM   18  O6  UNL     1      -4.909   4.624  12.823  1.00  0.00    -0.361 OA
BRANCH  18  19
HETATM   19  C7  UNL     1      -4.719   5.703  13.654  1.00  0.00     0.202 C
BRANCH  19  20
HETATM   20  C8  UNL     1      -3.345   5.761  14.250  1.00  0.00     0.248 C
HETATM   21  F1  UNL     1      -2.879   7.054  14.365  1.00  0.00    -0.253 F
ENDBRANCH  19  20
ENDBRANCH  18  19
ENDBRANCH   5  18
BRANCH   4  22
HETATM   22  C3  UNL     1      -4.369   2.128  15.022  1.00  0.00     0.182 C
BRANCH  22  23
HETATM   23  O3  UNL     1      -4.912   3.056  15.920  1.00  0.00    -0.390 OA
ATOM     24  H3  UNL     1      -5.854   3.103  15.804  1.00  0.00     0.210 HD
ENDBRANCH  22  23
BRANCH  22  25
HETATM   25  C4  UNL     1      -4.690   0.765  15.529  1.00  0.00     0.173 C
BRANCH  25  26
HETATM   26  O4  UNL     1      -3.502   0.318  16.174  1.00  0.00    -0.391 OA
ATOM     27  H4  UNL     1      -3.126  -0.325  15.585  1.00  0.00     0.210 HD
ENDBRANCH  25  26
BRANCH  25  28
HETATM   28  C5  UNL     1      -5.725   0.778  16.655  1.00  0.00     0.198 C
BRANCH  28  29
HETATM   29  O5  UNL     1      -5.756  -0.488  17.279  1.00  0.00    -0.398 OA
ATOM     30  H5  UNL     1      -5.532  -0.393  18.197  1.00  0.00     0.209 HD
ENDBRANCH  28  29
ENDBRANCH  25  28
ENDBRANCH  22  25
ENDBRANCH   4  22
TORSDOF 10
ENDMDL