MODEL 3
REMARK VINA RESULT: -6.963511159      3.519      6.023
REMARK  9 active torsions:
REMARK  status: ('A' for Active; 'I' for Inactive)
REMARK    1  A    between atoms: N1_1  and  C1_5
REMARK    2  A    between atoms: C3_7  and  C4_8
REMARK       I    between atoms: C4_8  and  N2_10
REMARK    3  A    between atoms: N2_10  and  C5_12
REMARK    4  A    between atoms: C5_12  and  C6_13
REMARK    5  A    between atoms: C5_12  and  C13_25
REMARK    6  A    between atoms: C6_13  and  C7_14
REMARK    7  A    between atoms: C9_16  and  C10_17
REMARK    8  A    between atoms: C10_17  and  S1_18
REMARK    9  A    between atoms: S1_18  and  C11_19
ROOT
HETATM    1  C4  UNL     1      -5.302   7.171  10.630  1.00  0.00     0.223 C
HETATM    2  O1  UNL     1      -6.143   6.919  11.569  1.00  0.00    -0.273 OA
HETATM    3  N2  UNL     1      -4.222   6.273  10.534  1.00  0.00    -0.346 N
ATOM      4  H2  UNL     1      -3.516   6.411   9.810  1.00  0.00     0.163 HD
ENDROOT
BRANCH   3   5
HETATM    5  C5  UNL     1      -4.097   5.143  11.456  1.00  0.00     0.188 C
BRANCH   5   6
HETATM    6  C6  UNL     1      -2.940   5.394  12.385  1.00  0.00     0.068 C
BRANCH   6   7
HETATM    7  C7  UNL     1      -3.208   5.070  13.808  1.00  0.00     0.124 C
HETATM    8  C8  UNL     1      -4.699   5.042  14.118  1.00  0.00     0.039 C
HETATM    9  C9  UNL     1      -4.982   3.559  14.173  1.00  0.00     0.021 C
HETATM   10  C12 UNL     1      -3.639   2.922  14.296  1.00  0.00     0.173 C
HETATM   11  O2  UNL     1      -2.670   3.895  14.263  1.00  0.00    -0.385 OA
BRANCH   9  12
HETATM   12  C10 UNL     1      -5.881   3.225  15.357  1.00  0.00     0.089 C
BRANCH  12  13
HETATM   13  S1  UNL     1      -5.174   1.955  16.420  1.00  0.00    -0.055 SA
BRANCH  13  14
HETATM   14  C11 UNL     1      -6.439   1.112  17.389  1.00  0.00     0.443 C
HETATM   15  F1  UNL     1      -6.609   1.730  18.634  1.00  0.00    -0.160 F
HETATM   16  F2  UNL     1      -7.635   1.028  16.735  1.00  0.00    -0.160 F
HETATM   17  F3  UNL     1      -6.018  -0.190  17.700  1.00  0.00    -0.160 F
ENDBRANCH  13  14
ENDBRANCH  12  13
ENDBRANCH   9  12
ENDBRANCH   6   7
ENDBRANCH   5   6
BRANCH   5  18
HETATM   18  C13 UNL     1      -4.035   3.875  10.719  1.00  0.00     0.196 C
HETATM   19  O3  UNL     1      -3.006   3.688   9.986  1.00  0.00    -0.646 OA
HETATM   20  O4  UNL     1      -4.985   2.874  10.745  1.00  0.00    -0.646 OA
ENDBRANCH   5  18
ENDBRANCH   3   5
BRANCH   1  21
HETATM   21  C3  UNL     1      -5.513   8.322   9.763  1.00  0.00     0.086 C
HETATM   22  C2  UNL     1      -6.039   9.563  10.429  1.00  0.00     0.050 C
HETATM   23  C1  UNL     1      -6.239  10.480   9.238  1.00  0.00     0.213 C
HETATM   24  C17 UNL     1      -6.387   9.571   8.027  1.00  0.00     0.156 C
HETATM   25  C14 UNL     1      -6.407   8.158   8.596  1.00  0.00     0.032 C
HETATM   26  O5  UNL     1      -7.586   9.786   7.421  1.00  0.00    -0.383 OA
HETATM   27  C15 UNL     1      -7.865   7.989   8.879  1.00  0.00     0.034 C
HETATM   28  C16 UNL     1      -8.487   8.795   7.759  1.00  0.00     0.168 C
BRANCH  23  29
HETATM   29  N1  UNL     1      -5.011  11.266   9.104  1.00  0.00    -0.073 N
ATOM     30  H13 UNL     1      -5.013  11.882   8.291  1.00  0.00     0.274 HD
ATOM     31  H12 UNL     1      -4.917  11.992   9.814  1.00  0.00     0.274 HD
ATOM     32  H11 UNL     1      -4.238  10.600   9.104  1.00  0.00     0.274 HD
ENDBRANCH  23  29
ENDBRANCH   1  21
TORSDOF 9
ENDMDL