MODEL 3
REMARK VINA RESULT: -6.854982578      2.402      4.833
REMARK  11 active torsions:
REMARK  status: ('A' for Active; 'I' for Inactive)
REMARK    1  A    between atoms: C2_2  and  C4_4
REMARK    2  A    between atoms: C4_4  and  O1_5
REMARK    3  A    between atoms: C4_4  and  C5_7
REMARK    4  A    between atoms: C4_4  and  C18_29
REMARK    5  A    between atoms: C5_7  and  N1_8
REMARK    6  A    between atoms: C5_7  and  C11_17
REMARK       I    between atoms: N1_8  and  C6_10
REMARK    7  A    between atoms: C6_10  and  O3_12
REMARK    8  A    between atoms: O3_12  and  C7_13
REMARK       I    between atoms: C11_17  and  N2_19
REMARK    9  A    between atoms: N2_19  and  C12_21
REMARK   10  A    between atoms: C12_21  and  C13_22
REMARK   11  A    between atoms: C13_22  and  N3_23
ROOT
HETATM    1  C5  UNL     1      -2.752   4.248  11.593  1.00  0.00     0.126 C
ENDROOT
BRANCH   1   2
HETATM    2  C4  UNL     1      -1.799   3.383  10.929  1.00  0.00     0.206 C
BRANCH   2   3
HETATM    3  C2  UNL     1      -1.996   1.911  11.189  1.00  0.00     0.027 C
HETATM    4  C1  UNL     1      -3.390   1.435  11.456  1.00  0.00     0.013 C
HETATM    5  C3  UNL     1      -1.306   0.923  10.343  1.00  0.00     0.013 C
ENDBRANCH   2   3
BRANCH   2   6
HETATM    6  O1  UNL     1      -1.825   3.563   9.547  1.00  0.00    -0.375 OA
ATOM      7  H1  UNL     1      -0.941   3.781   9.276  1.00  0.00     0.211 HD
ENDBRANCH   2   6
BRANCH   2   8
HETATM    8  C18 UNL     1      -0.325   3.727  11.206  1.00  0.00     0.424 C
HETATM    9  F1  UNL     1       0.148   2.755  12.089  1.00  0.00    -0.167 F
HETATM   10  F2  UNL     1       0.404   3.471  10.073  1.00  0.00    -0.167 F
HETATM   11  F3  UNL     1      -0.079   4.961  11.657  1.00  0.00    -0.167 F
ENDBRANCH   2   8
ENDBRANCH   1   2
BRANCH   1  12
HETATM   12  N1  UNL     1      -3.203   5.510  11.042  1.00  0.00    -0.298 N
HETATM   13  C6  UNL     1      -4.475   5.793  10.499  1.00  0.00     0.365 C
HETATM   14  O2  UNL     1      -5.343   4.963  10.348  1.00  0.00    -0.238 OA
ATOM     15  H1  UNL     1      -2.530   6.276  11.047  1.00  0.00     0.171 HD
BRANCH  13  16
HETATM   16  O3  UNL     1      -4.716   7.134  10.145  1.00  0.00    -0.294 OA
BRANCH  16  17
HETATM   17  C7  UNL     1      -5.886   7.824  10.153  1.00  0.00     0.061 C
HETATM   18  C8  UNL     1      -6.712   7.656  11.441  1.00  0.00     0.046 C
HETATM   19  C9  UNL     1      -5.438   9.328  10.285  1.00  0.00     0.046 C
HETATM   20  C10 UNL     1      -6.812   7.809   9.001  1.00  0.00     0.046 C
ENDBRANCH  16  17
ENDBRANCH  13  16
ENDBRANCH   1  12
BRANCH   1  21
HETATM   21  C11 UNL     1      -3.035   4.255  13.058  1.00  0.00     0.267 C
HETATM   22  O4  UNL     1      -2.168   3.989  13.928  1.00  0.00    -0.266 OA
HETATM   23  N2  UNL     1      -4.324   4.536  13.547  1.00  0.00    -0.354 N
ATOM     24  H2  UNL     1      -5.030   4.745  12.841  1.00  0.00     0.162 HD
BRANCH  23  25
HETATM   25  C12 UNL     1      -4.767   4.567  14.889  1.00  0.00     0.153 C
BRANCH  25  26
HETATM   26  C13 UNL     1      -5.929   3.711  15.237  1.00  0.00     0.292 C
BRANCH  26  27
HETATM   27  N3  UNL     1      -5.476   2.524  15.974  1.00  0.00     0.094 N
HETATM   28  C14 UNL     1      -6.598   1.878  16.644  1.00  0.00     0.298 C
HETATM   29  C15 UNL     1      -6.120   0.592  17.287  1.00  0.00     0.198 C
HETATM   30  O5  UNL     1      -5.407  -0.198  16.403  1.00  0.00    -0.388 OA
HETATM   31  C16 UNL     1      -4.362   0.442  15.769  1.00  0.00     0.198 C
HETATM   32  C17 UNL     1      -4.949   1.593  14.975  1.00  0.00     0.298 C
ENDBRANCH  26  27
ENDBRANCH  25  26
ENDBRANCH  23  25
ENDBRANCH   1  21
TORSDOF 11
ENDMDL