MODEL 4
REMARK VINA RESULT: -6.291488206      3.766      4.786
REMARK  14 active torsions:
REMARK  status: ('A' for Active; 'I' for Inactive)
REMARK    1  A    between atoms: C2_2  and  C3_3
REMARK    2  A    between atoms: C3_3  and  N1_4
REMARK    3  A    between atoms: N1_4  and  C4_6
REMARK    4  A    between atoms: C6_10  and  C7_11
REMARK    5  A    between atoms: C7_11  and  O1_12
REMARK    6  A    between atoms: C7_11  and  N3_14
REMARK    7  A    between atoms: C8_15  and  C9_16
REMARK    8  A    between atoms: C9_16  and  O2_17
REMARK    9  A    between atoms: C12_20  and  N4_21
REMARK   10  A    between atoms: N4_21  and  N5_23
REMARK   11  A    between atoms: N5_23  and  N6_24
REMARK   12  A    between atoms: C13_27  and  O3_28
REMARK   13  A    between atoms: O3_28  and  C14_29
REMARK   14  A    between atoms: C15_33  and  N7_34
ROOT
HETATM    1  N3  UNL     1      -3.568   4.071  11.040  1.00  0.00    -0.325 N
HETATM    2  C8  UNL     1      -3.822   5.479  11.293  1.00  0.00     0.115 C
HETATM    3  C11 UNL     1      -2.647   6.186  10.669  1.00  0.00     0.059 C
HETATM    4  C12 UNL     1      -2.432   5.324   9.429  1.00  0.00     0.165 C
HETATM    5  C13 UNL     1      -2.397   3.940  10.175  1.00  0.00     0.260 C
ENDROOT
BRANCH   1   6
HETATM    6  C7  UNL     1      -4.348   3.031  11.535  1.00  0.00     0.156 C
BRANCH   6   7
HETATM    7  C6  UNL     1      -4.352   2.430  12.851  1.00  0.00     0.075 A
HETATM    8  C5  UNL     1      -4.650   3.218  13.959  1.00  0.00     0.125 A
HETATM    9  N2  UNL     1      -4.703   2.685  15.193  1.00  0.00    -0.201 N
HETATM   10  C4  UNL     1      -4.473   1.379  15.413  1.00  0.00     0.679 A
ATOM     11  H2  UNL     1      -4.924   3.289  15.985  1.00  0.00     0.183 HD
HETATM   12  N8  UNL     1      -4.184   0.611  14.347  1.00  0.00    -0.176 N
HETATM   13  C15 UNL     1      -4.119   1.094  13.096  1.00  0.00     0.130 A
ATOM     14  H8  UNL     1      -4.006  -0.382  14.495  1.00  0.00     0.186 HD
BRANCH  10  15
HETATM   15  N1  UNL     1      -4.519   0.847  16.594  1.00  0.00    -0.223 N
ATOM     16  H1  UNL     1      -3.682   0.799  17.173  1.00  0.00     0.178 HD
BRANCH  15  17
HETATM   17  C3  UNL     1      -5.787   0.321  17.083  1.00  0.00     0.164 C
BRANCH  17  18
HETATM   18  C2  UNL     1      -6.602   1.439  17.602  1.00  0.00    -0.017 C
HETATM   19  C1  UNL     1      -6.201   2.153  18.634  1.00  0.00     0.008 C
ENDBRANCH  17  18
ENDBRANCH  15  17
ENDBRANCH  10  15
BRANCH  13  20
HETATM   20  N7  UNL     1      -3.842   0.359  12.075  1.00  0.00    -0.384 N
ATOM     21  H72 UNL     1      -4.442  -0.403  11.761  1.00  0.00     0.157 HD
ATOM     22  H71 UNL     1      -2.978   0.574  11.578  1.00  0.00     0.157 HD
ENDBRANCH  13  20
ENDBRANCH   6   7
BRANCH   6  23
HETATM   23  O1  UNL     1      -5.202   2.515  10.698  1.00  0.00    -0.345 OA
ATOM     24  H1  UNL     1      -5.824   3.134  10.333  1.00  0.00     0.219 HD
ENDBRANCH   6  23
ENDBRANCH   1   6
BRANCH   2  25
HETATM   25  C9  UNL     1      -5.123   5.965  10.691  1.00  0.00     0.192 C
BRANCH  25  26
HETATM   26  O2  UNL     1      -5.911   6.632  11.602  1.00  0.00    -0.394 OA
HETATM   27  C10 UNL     1      -6.580   7.730  11.120  1.00  0.00     0.201 C
ENDBRANCH  25  26
ENDBRANCH   2  25
BRANCH   5  28
HETATM   28  O3  UNL     1      -1.209   3.875  10.819  1.00  0.00    -0.270 OA
BRANCH  28  29
HETATM   29  C14 UNL     1      -0.404   2.804  10.712  1.00  0.00     0.526 C
HETATM   30  F1  UNL     1      -0.712   1.799  11.601  1.00  0.00    -0.144 F
HETATM   31  F2  UNL     1       0.934   3.139  11.025  1.00  0.00    -0.144 F
HETATM   32  F3  UNL     1      -0.314   2.197   9.476  1.00  0.00    -0.144 F
ENDBRANCH  28  29
ENDBRANCH   5  28
BRANCH   4  33
HETATM   33  N4  UNL     1      -1.200   5.662   8.834  1.00  0.00    -0.243 N
ATOM     34  H4  UNL     1      -0.663   6.418   9.260  1.00  0.00     0.197 HD
BRANCH  33  35
HETATM   35  N5  UNL     1      -0.725   5.121   7.849  1.00  0.00    -0.248 NA
BRANCH  35  36
HETATM   36  N6  UNL     1      -0.206   4.434   6.969  1.00  0.00    -0.261 N
ATOM     37  H62 UNL     1      -0.321   3.640   7.598  1.00  0.00     0.193 HD
ATOM     38  H61 UNL     1       0.233   3.995   6.159  1.00  0.00     0.193 HD
ENDBRANCH  35  36
ENDBRANCH  33  35
ENDBRANCH   4  33
TORSDOF 14
ENDMDL