MODEL 2
REMARK VINA RESULT: -7.753867231      2.106      3.849
REMARK  14 active torsions:
REMARK  status: ('A' for Active; 'I' for Inactive)
REMARK    1  A    between atoms: O1_2  and  C2_3
REMARK    2  A    between atoms: C3_5  and  C4_6
REMARK    3  A    between atoms: C11_13  and  O3_14
REMARK    4  A    between atoms: C11_13  and  C12_16
REMARK    5  A    between atoms: C12_16  and  O4_17
REMARK    6  A    between atoms: C12_16  and  C13_19
REMARK    7  A    between atoms: C13_19  and  C14_20
REMARK    8  A    between atoms: C13_19  and  O8_40
REMARK    9  A    between atoms: C14_20  and  C15_21
REMARK   10  A    between atoms: C15_21  and  C16_22
REMARK   11  A    between atoms: C16_22  and  O6_24
REMARK   12  A    between atoms: O6_24  and  C17_25
REMARK   13  A    between atoms: C17_25  and  C18_27
REMARK   14  A    between atoms: O8_40  and  C31_41
ROOT
HETATM    1  C13 UNL     1     -14.925   3.219   1.474  1.00  0.00     0.161 C
ENDROOT
BRANCH   1   2
HETATM    2  C12 UNL     1     -15.072   4.265   2.488  1.00  0.00     0.183 C
BRANCH   2   3
HETATM    3  C11 UNL     1     -16.163   5.234   2.517  1.00  0.00     0.102 C
HETATM    4  C10 UNL     1     -16.980   5.334   1.259  1.00  0.00     0.046 C
HETATM    5  C9  UNL     1     -16.258   6.396   0.459  1.00  0.00     0.038 C
HETATM    6  C8  UNL     1     -16.253   7.432   1.565  1.00  0.00    -0.065 C
HETATM    7  C7  UNL     1     -16.560   8.676   1.739  1.00  0.00     0.009 C
HETATM    8  C36 UNL     1     -15.703   6.616   2.730  1.00  0.00     0.063 C
HETATM    9  C3  UNL     1     -16.403   9.357   3.048  1.00  0.00     0.151 C
HETATM   10  O2  UNL     1     -15.556   8.661   3.896  1.00  0.00    -0.351 OA
HETATM   11  C2  UNL     1     -16.021   7.302   4.018  1.00  0.00     0.275 C
HETATM   12  C37 UNL     1     -14.199   6.813   2.551  1.00  0.00     0.028 C
BRANCH   9  13
HETATM   13  C4  UNL     1     -15.932  10.754   2.872  1.00  0.00     0.010 C
HETATM   14  C5  UNL     1     -16.415  11.732   3.885  1.00  0.00     0.012 C
HETATM   15  C6  UNL     1     -14.411  10.855   2.851  1.00  0.00     0.012 C
ENDBRANCH   9  13
BRANCH  11  16
HETATM   16  O1  UNL     1     -17.309   7.301   4.449  1.00  0.00    -0.365 OA
HETATM   17  C1  UNL     1     -17.523   7.440   5.792  1.00  0.00     0.204 C
ENDBRANCH  11  16
BRANCH   3  18
HETATM   18  O3  UNL     1     -17.087   4.802   3.504  1.00  0.00    -0.386 OA
ATOM     19  H3  UNL     1     -16.663   4.058   3.915  1.00  0.00     0.210 HD
ENDBRANCH   3  18
ENDBRANCH   2   3
BRANCH   2  20
HETATM   20  O4  UNL     1     -15.120   3.551   3.719  1.00  0.00    -0.390 OA
ATOM     21  H4  UNL     1     -14.735   4.113   4.380  1.00  0.00     0.210 HD
ENDBRANCH   2  20
ENDBRANCH   1   2
BRANCH   1  22
HETATM   22  C14 UNL     1     -16.076   2.249   1.357  1.00  0.00     0.045 C
BRANCH  22  23
HETATM   23  C15 UNL     1     -16.692   2.142   0.004  1.00  0.00     0.114 C
BRANCH  23  24
HETATM   24  C16 UNL     1     -16.439   0.914  -0.741  1.00  0.00     0.266 C
HETATM   25  O5  UNL     1     -16.234   0.889  -1.972  1.00  0.00    -0.265 OA
BRANCH  24  26
HETATM   26  O6  UNL     1     -16.408  -0.351  -0.117  1.00  0.00    -0.244 OA
BRANCH  26  27
HETATM   27  C17 UNL     1     -17.561  -1.090   0.082  1.00  0.00     0.274 C
HETATM   28  O7  UNL     1     -18.404  -1.113  -0.846  1.00  0.00    -0.264 OA
BRANCH  27  29
HETATM   29  C18 UNL     1     -17.836  -1.845   1.327  1.00  0.00     0.109 C
HETATM   30  C19 UNL     1     -19.246  -2.310   1.265  1.00  0.00    -0.015 C
HETATM   31  C20 UNL     1     -19.818  -2.689   2.396  1.00  0.00    -0.020 C
HETATM   32  C21 UNL     1     -19.015  -2.624   3.639  1.00  0.00    -0.023 C
HETATM   33  C22 UNL     1     -18.056  -3.822   3.619  1.00  0.00     0.020 C
HETATM   34  C23 UNL     1     -19.965  -2.899   4.781  1.00  0.00     0.014 C
HETATM   35  C29 UNL     1     -18.232  -1.388   3.778  1.00  0.00     0.002 C
HETATM   36  C24 UNL     1     -20.804  -1.677   5.002  1.00  0.00     0.005 C
HETATM   37  C25 UNL     1     -19.846  -0.608   5.543  1.00  0.00    -0.014 C
HETATM   38  C26 UNL     1     -20.693   0.578   5.928  1.00  0.00     0.010 C
HETATM   39  C27 UNL     1     -18.919  -0.237   4.438  1.00  0.00    -0.010 C
HETATM   40  C28 UNL     1     -17.845   0.684   5.034  1.00  0.00     0.011 C
HETATM   41  C30 UNL     1     -17.653  -0.892   2.477  1.00  0.00     0.024 C
ENDBRANCH  27  29
ENDBRANCH  26  27
ENDBRANCH  24  26
ENDBRANCH  23  24
ENDBRANCH  22  23
ENDBRANCH   1  22
BRANCH   1  42
HETATM   42  O8  UNL     1     -14.553   3.603   0.190  1.00  0.00    -0.340 OA
BRANCH  42  43
HETATM   43  C31 UNL     1     -13.362   4.029  -0.297  1.00  0.00     0.107 A
HETATM   44  C32 UNL     1     -12.929   5.332  -0.350  1.00  0.00     0.041 A
HETATM   45  C33 UNL     1     -11.682   5.702  -0.867  1.00  0.00     0.020 A
HETATM   46  C34 UNL     1     -10.868   4.697  -1.339  1.00  0.00     0.089 A
HETATM   47  N1  UNL     1     -11.284   3.419  -1.290  1.00  0.00    -0.354 N
HETATM   48  C35 UNL     1     -12.483   3.054  -0.794  1.00  0.00     0.137 A
ATOM     49  H1  UNL     1     -10.663   2.692  -1.646  1.00  0.00     0.166 HD
HETATM   50 CL1  UNL     1     -12.946   1.351  -0.757  1.00  0.00    -0.061 Cl
ENDBRANCH  42  43
ENDBRANCH   1  42
TORSDOF 14
ENDMDL