MODEL 1
REMARK VINA RESULT: -9.998783379      0.000      0.000
REMARK  14 active torsions:
REMARK  status: ('A' for Active; 'I' for Inactive)
REMARK    1  A    between atoms: C2_2  and  C3_3
REMARK    2  A    between atoms: C3_3  and  C6_6
REMARK    3  A    between atoms: C6_6  and  O2_8
REMARK    4  A    between atoms: O2_8  and  C7_9
REMARK    5  A    between atoms: C8_10  and  O3_11
REMARK    6  A    between atoms: C17_24  and  O7_25
REMARK    7  A    between atoms: C19_27  and  O8_28
REMARK    8  A    between atoms: O8_28  and  C20_29
REMARK    9  A    between atoms: C20_29  and  O9_30
REMARK   10  A    between atoms: C20_29  and  C21_32
REMARK   11  A    between atoms: C22_33  and  C23_34
REMARK   12  A    between atoms: C23_34  and  C24_35
REMARK   13  A    between atoms: C24_35  and  C25_36
REMARK   14  A    between atoms: C25_36  and  C26_37
ROOT
HETATM    1  C7  UNL     1     -15.758   9.320   1.926  1.00  0.00     0.222 C
HETATM    2  C8  UNL     1     -15.645  10.053   0.652  1.00  0.00     0.186 C
HETATM    3  C9  UNL     1     -14.239  10.138   0.178  1.00  0.00     0.191 A
HETATM    4  O4  UNL     1     -14.136  11.254  -0.778  1.00  0.00    -0.364 OA
HETATM    5  C10 UNL     1     -13.378  11.177   0.446  1.00  0.00     0.115 A
HETATM    6  C11 UNL     1     -11.899  10.983   0.067  1.00  0.00     0.052 C
HETATM    7  C12 UNL     1     -13.652  12.185   1.515  1.00  0.00     0.197 C
HETATM    8  O5  UNL     1     -12.527  12.997   1.627  1.00  0.00    -0.344 OA
HETATM    9  C13 UNL     1     -12.248  13.182   2.950  1.00  0.00     0.158 C
HETATM   10  C14 UNL     1     -12.379  14.654   3.277  1.00  0.00     0.078 C
HETATM   11  C15 UNL     1     -10.804  12.803   3.299  1.00  0.00     0.078 C
HETATM   12  O6  UNL     1     -13.075  12.386   3.687  1.00  0.00    -0.341 OA
HETATM   13  C16 UNL     1     -13.748  11.518   2.837  1.00  0.00     0.216 C
HETATM   14  C17 UNL     1     -15.192  11.394   3.345  1.00  0.00     0.109 C
HETATM   15  C19 UNL     1     -15.698   9.981   3.239  1.00  0.00     0.114 C
ENDROOT
BRANCH  15  16
HETATM   16  O8  UNL     1     -16.613   9.724   4.090  1.00  0.00    -0.316 OA
BRANCH  16  17
HETATM   17  C20 UNL     1     -17.262   9.398   5.088  1.00  0.00     0.287 C
BRANCH  17  18
HETATM   18  O9  UNL     1     -17.306  10.319   6.197  1.00  0.00    -0.367 OA
ATOM     19  H9  UNL     1     -16.486  10.689   6.503  1.00  0.00     0.213 HD
ENDBRANCH  17  18
BRANCH  17  20
HETATM   20  C21 UNL     1     -17.128   8.082   5.775  1.00  0.00     0.029 C
HETATM   21  C22 UNL     1     -17.511   6.932   5.301  1.00  0.00    -0.026 C
BRANCH  21  22
HETATM   22  C23 UNL     1     -18.145   6.805   3.980  1.00  0.00     0.027 C
BRANCH  22  23
HETATM   23  C24 UNL     1     -18.308   5.363   3.549  1.00  0.00     0.007 C
BRANCH  23  24
HETATM   24  C25 UNL     1     -17.617   4.423   4.498  1.00  0.00     0.028 C
BRANCH  24  25
HETATM   25  C26 UNL     1     -17.124   3.215   3.785  1.00  0.00    -0.019 C
HETATM   26  C27 UNL     1     -17.698   2.062   4.004  1.00  0.00    -0.058 A
HETATM   27  C28 UNL     1     -17.171   0.912   3.274  1.00  0.00     0.008 A
HETATM   28  C37 UNL     1     -18.820   1.959   4.956  1.00  0.00     0.077 A
HETATM   29  C29 UNL     1     -17.709  -0.263   3.490  1.00  0.00     0.012 A
HETATM   30  C30 UNL     1     -18.796  -0.489   4.412  1.00  0.00    -0.028 A
HETATM   31  C31 UNL     1     -19.314  -1.745   4.610  1.00  0.00     0.036 A
HETATM   32  C36 UNL     1     -19.320   0.579   5.119  1.00  0.00    -0.043 A
HETATM   33  C32 UNL     1     -20.337  -1.945   5.497  1.00  0.00     0.040 A
HETATM   34 CL1  UNL     1     -21.015  -3.549   5.766  1.00  0.00    -0.084 Cl
HETATM   35  C33 UNL     1     -20.869  -0.903   6.206  1.00  0.00    -0.040 A
HETATM   36  C34 UNL     1     -21.980  -1.132   7.173  1.00  0.00     0.050 C
HETATM   37  C35 UNL     1     -20.351   0.359   6.009  1.00  0.00     0.016 A
ENDBRANCH  24  25
ENDBRANCH  23  24
ENDBRANCH  22  23
ENDBRANCH  21  22
ENDBRANCH  17  20
ENDBRANCH  16  17
ENDBRANCH  15  16
BRANCH   1  38
HETATM   38  O2  UNL     1     -14.834   8.253   1.717  1.00  0.00    -0.306 OA
BRANCH  38  39
HETATM   39  C6  UNL     1     -15.123   6.921   1.777  1.00  0.00     0.267 C
HETATM   40  O1  UNL     1     -14.944   6.434   2.924  1.00  0.00    -0.264 OA
BRANCH  39  41
HETATM   41  C3  UNL     1     -15.602   6.100   0.629  1.00  0.00     0.040 C
HETATM   42  C4  UNL     1     -14.819   6.446  -0.631  1.00  0.00     0.025 C
HETATM   43  C5  UNL     1     -17.038   6.509   0.380  1.00  0.00     0.025 C
BRANCH  41  44
HETATM   44  C2  UNL     1     -15.507   4.624   0.941  1.00  0.00     0.014 C
HETATM   45  C1  UNL     1     -16.559   3.851   0.187  1.00  0.00     0.006 C
ENDBRANCH  41  44
ENDBRANCH  39  41
ENDBRANCH  38  39
ENDBRANCH   1  38
BRANCH  14  46
HETATM   46  O7  UNL     1     -15.965  12.425   2.954  1.00  0.00    -0.355 OA
HETATM   47  C18 UNL     1     -16.404  13.298   3.933  1.00  0.00     0.209 C
ENDBRANCH  14  46
BRANCH   2  48
HETATM   48  O3  UNL     1     -16.402  11.180   0.476  1.00  0.00    -0.390 OA
ATOM     49  H3  UNL     1     -17.253  11.096   0.062  1.00  0.00     0.210 HD
ENDBRANCH   2  48
TORSDOF 14
ENDMDL