MODEL 1
REMARK VINA RESULT: -9.465844323      0.000      0.000
REMARK  11 active torsions:
REMARK  status: ('A' for Active; 'I' for Inactive)
REMARK    1  A    between atoms: C15_17  and  C16_18
REMARK    2  A    between atoms: C16_18  and  O3_19
REMARK    3  A    between atoms: O3_19  and  C17_20
REMARK    4  A    between atoms: C17_20  and  C19_23
REMARK    5  A    between atoms: C19_23  and  N2_24
REMARK    6  A    between atoms: N2_24  and  O4_25
REMARK    7  A    between atoms: N2_24  and  C20_27
REMARK    8  A    between atoms: C20_27  and  C21_28
REMARK    9  A    between atoms: C24_31  and  O5_32
REMARK   10  A    between atoms: N3_34  and  C25_35
REMARK   11  A    between atoms: C25_35  and  C26_36
ROOT
HETATM    1  C17 UNL     1     -17.506  -0.443   1.195  1.00  0.00     0.242 C
HETATM    2  C18 UNL     1     -17.978  -1.856   1.013  1.00  0.00     0.092 C
HETATM    3  N1  UNL     1     -18.322  -2.951   0.867  1.00  0.00    -0.194 NA
ENDROOT
BRANCH   1   4
HETATM    4  O3  UNL     1     -16.836   0.042   0.276  1.00  0.00    -0.368 OA
BRANCH   4   5
HETATM    5  C16 UNL     1     -16.162   0.529  -0.649  1.00  0.00     0.201 C
BRANCH   5   6
HETATM    6  C15 UNL     1     -16.105   2.079  -0.748  1.00  0.00     0.149 C
HETATM    7  O2  UNL     1     -16.967   2.538  -1.700  1.00  0.00    -0.354 OA
HETATM    8  C14 UNL     1     -16.673   3.749  -2.274  1.00  0.00     0.261 C
HETATM    9  C13 UNL     1     -17.966   4.580  -2.122  1.00  0.00     0.064 C
HETATM   10  O6  UNL     1     -15.836   4.570  -1.514  1.00  0.00    -0.349 OA
HETATM   11  C12 UNL     1     -17.947   4.580  -0.576  1.00  0.00     0.044 C
HETATM   12  C11 UNL     1     -16.497   4.818  -0.328  1.00  0.00     0.072 C
HETATM   13  C10 UNL     1     -16.382   6.272   0.139  1.00  0.00     0.046 C
HETATM   14  C33 UNL     1     -15.841   3.965   0.721  1.00  0.00    -0.003 C
HETATM   15  C8  UNL     1     -15.766   6.136   1.491  1.00  0.00     0.021 C
HETATM   16  C6  UNL     1     -16.076   4.754   1.984  1.00  0.00    -0.028 C
HETATM   17  C9  UNL     1     -15.948   7.252   2.433  1.00  0.00     0.173 C
HETATM   18  C5  UNL     1     -17.325   4.513   2.680  1.00  0.00     0.010 C
HETATM   19  C7  UNL     1     -14.921   4.372   2.931  1.00  0.00     0.016 C
HETATM   20  C4  UNL     1     -18.166   5.638   3.162  1.00  0.00     0.003 C
HETATM   21  C3  UNL     1     -17.633   6.386   4.350  1.00  0.00     0.031 C
HETATM   22  C2  UNL     1     -17.494   7.848   3.920  1.00  0.00     0.117 C
HETATM   23  C1  UNL     1     -16.388   8.456   4.729  1.00  0.00     0.039 C
HETATM   24  O1  UNL     1     -17.185   7.822   2.540  1.00  0.00    -0.386 OA
HETATM   25  C32 UNL     1     -16.362   2.588   0.656  1.00  0.00     0.047 C
HETATM   26  C34 UNL     1     -14.352   3.854   0.404  1.00  0.00     0.019 C
ENDBRANCH   5   6
ENDBRANCH   4   5
ENDBRANCH   1   4
BRANCH   1  27
HETATM   27  C19 UNL     1     -16.967  -0.412   2.627  1.00  0.00     0.167 C
BRANCH  27  28
HETATM   28  N2  UNL     1     -17.856   0.196   3.565  1.00  0.00    -0.191 NA
BRANCH  28  29
HETATM   29  O4  UNL     1     -17.519   1.474   3.872  1.00  0.00    -0.313 OA
ATOM     30  H4  UNL     1     -17.561   1.660   4.803  1.00  0.00     0.237 HD
ENDBRANCH  28  29
BRANCH  28  31
HETATM   31  C20 UNL     1     -17.865  -0.620   4.797  1.00  0.00     0.177 C
BRANCH  31  32
HETATM   32  C21 UNL     1     -19.050  -1.479   4.841  1.00  0.00     0.029 A
HETATM   33  C22 UNL     1     -19.036  -2.831   4.464  1.00  0.00     0.031 A
HETATM   34  C23 UNL     1     -20.331  -3.274   4.625  1.00  0.00     0.058 A
HETATM   35  C24 UNL     1     -21.067  -2.215   5.081  1.00  0.00     0.142 A
HETATM   36  N3  UNL     1     -20.275  -1.114   5.211  1.00  0.00    -0.326 N
BRANCH  35  37
HETATM   37  O5  UNL     1     -22.426  -2.315   5.350  1.00  0.00    -0.346 OA
ATOM     38  H5  UNL     1     -22.969  -1.553   5.516  1.00  0.00     0.219 HD
ENDBRANCH  35  37
BRANCH  36  39
HETATM   39  C25 UNL     1     -20.741   0.153   5.669  1.00  0.00     0.169 C
BRANCH  39  40
HETATM   40  C26 UNL     1     -21.626   0.158   6.823  1.00  0.00    -0.040 A
HETATM   41  C27 UNL     1     -21.226  -0.266   8.070  1.00  0.00     0.010 A
HETATM   42  C28 UNL     1     -22.083  -0.260   9.150  1.00  0.00     0.019 A
HETATM   43  C29 UNL     1     -23.378   0.179   8.998  1.00  0.00     0.011 A
HETATM   44 BR1  UNL     1     -24.586   0.190  10.503  1.00  0.00    -0.051 Br
HETATM   45  C30 UNL     1     -23.807   0.610   7.763  1.00  0.00     0.019 A
HETATM   46  C31 UNL     1     -22.923   0.587   6.716  1.00  0.00     0.010 A
ENDBRANCH  39  40
ENDBRANCH  36  39
ENDBRANCH  31  32
ENDBRANCH  28  31
ENDBRANCH  27  28
ENDBRANCH   1  27
TORSDOF 11
ENDMDL