MODEL 2
REMARK VINA RESULT: -8.528636829      3.595      6.481
REMARK  14 active torsions:
REMARK  status: ('A' for Active; 'I' for Inactive)
REMARK    1  A    between atoms: C2_2  and  C3_3
REMARK    2  A    between atoms: C2_2  and  C5_7
REMARK    3  A    between atoms: C3_3  and  O2_5
REMARK    4  A    between atoms: C7_9  and  O3_10
REMARK    5  A    between atoms: O3_10  and  C8_11
REMARK    6  A    between atoms: C8_11  and  C9_13
REMARK    7  A    between atoms: C15_20  and  C16_21
REMARK    8  A    between atoms: C16_21  and  S1_23
REMARK    9  A    between atoms: S1_23  and  C17_24
REMARK   10  A    between atoms: C17_24  and  C18_25
REMARK   11  A    between atoms: C18_25  and  O6_26
REMARK   12  A    between atoms: C18_25  and  C19_28
REMARK   13  A    between atoms: C19_28  and  C21_30
REMARK   14  A    between atoms: C27_36  and  O7_37
ROOT
HETATM    1  C16 UNL     1     -16.342  -0.830  -1.119  1.00  0.00     0.196 C
HETATM    2  O5  UNL     1     -15.698  -1.916  -1.186  1.00  0.00    -0.285 OA
ENDROOT
BRANCH   1   3
HETATM    3  C15 UNL     1     -17.518  -0.703  -0.279  1.00  0.00     0.125 C
HETATM    4  C7  UNL     1     -17.674  -1.522   0.939  1.00  0.00     0.149 C
HETATM    5  C6  UNL     1     -19.068  -2.243   0.777  1.00  0.00     0.047 C
HETATM    6  C5  UNL     1     -19.094  -2.463  -0.685  1.00  0.00     0.055 C
HETATM    7  C35 UNL     1     -18.714  -1.095  -1.165  1.00  0.00    -0.066 C
HETATM    8  C36 UNL     1     -19.257  -0.357  -2.067  1.00  0.00     0.016 C
BRANCH   4   9
HETATM    9  O3  UNL     1     -17.798  -0.718   2.126  1.00  0.00    -0.311 OA
BRANCH   9  10
HETATM   10  C8  UNL     1     -17.643  -1.242   3.398  1.00  0.00     0.295 C
HETATM   11  O4  UNL     1     -16.524  -1.736   3.670  1.00  0.00    -0.259 OA
BRANCH  10  12
HETATM   12  C9  UNL     1     -18.760  -1.201   4.356  1.00  0.00     0.061 A
HETATM   13  C10 UNL     1     -19.439  -2.349   4.643  1.00  0.00     0.019 A
HETATM   14  C11 UNL     1     -20.501  -2.308   5.539  1.00  0.00     0.001 A
HETATM   15  C12 UNL     1     -20.897  -1.142   6.153  1.00  0.00     0.002 A
HETATM   16  C13 UNL     1     -20.189   0.017   5.841  1.00  0.00     0.025 A
HETATM   17  C14 UNL     1     -19.137  -0.015   4.956  1.00  0.00     0.050 A
HETATM   18 CL1  UNL     1     -18.225   1.434   4.545  1.00  0.00    -0.083 Cl
ENDBRANCH  10  12
ENDBRANCH   9  10
ENDBRANCH   4   9
BRANCH   6  19
HETATM   19  C2  UNL     1     -20.327  -2.988  -1.266  1.00  0.00     0.016 C
HETATM   20  C1  UNL     1     -20.330  -3.655  -2.426  1.00  0.00     0.026 C
BRANCH  19  21
HETATM   21  C3  UNL     1     -21.603  -2.749  -0.586  1.00  0.00     0.288 C
HETATM   22  O1  UNL     1     -22.193  -1.644  -0.709  1.00  0.00    -0.260 OA
BRANCH  21  23
HETATM   23  O2  UNL     1     -22.249  -3.683   0.222  1.00  0.00    -0.323 OA
HETATM   24  C4  UNL     1     -23.630  -3.965   0.048  1.00  0.00     0.213 C
ENDBRANCH  21  23
ENDBRANCH  19  21
ENDBRANCH   6  19
ENDBRANCH   1   3
BRANCH   1  25
HETATM   25  S1  UNL     1     -15.637   0.463  -2.144  1.00  0.00    -0.089 SA
BRANCH  25  26
HETATM   26  C17 UNL     1     -13.907   0.744  -1.696  1.00  0.00     0.114 C
BRANCH  26  27
HETATM   27  C18 UNL     1     -13.635   1.919  -0.813  1.00  0.00     0.132 C
BRANCH  27  28
HETATM   28  O6  UNL     1     -13.509   1.512   0.482  1.00  0.00    -0.394 OA
ATOM     29  H6  UNL     1     -13.435   2.266   1.055  1.00  0.00     0.210 HD
ENDBRANCH  27  28
BRANCH  27  30
HETATM   30  C19 UNL     1     -14.426   3.137  -1.073  1.00  0.00     0.016 C
HETATM   31  C20 UNL     1     -13.523   4.170  -1.830  1.00  0.00     0.013 C
BRANCH  30  32
HETATM   32  C21 UNL     1     -15.005   3.892   0.049  1.00  0.00    -0.000 C
HETATM   33  C22 UNL     1     -14.004   4.456   1.028  1.00  0.00     0.009 C
HETATM   34  C23 UNL     1     -14.662   5.016   2.241  1.00  0.00     0.038 C
HETATM   35  C24 UNL     1     -15.995   5.669   1.953  1.00  0.00     0.063 C
HETATM   36  C25 UNL     1     -16.631   5.883   3.321  1.00  0.00     0.041 C
HETATM   37  O8  UNL     1     -15.767   6.798   1.236  1.00  0.00    -0.367 OA
HETATM   38  C31 UNL     1     -16.949   4.783   1.193  1.00  0.00     0.047 C
HETATM   39  C26 UNL     1     -17.526   7.082   3.207  1.00  0.00     0.038 C
HETATM   40  C27 UNL     1     -16.587   8.262   2.982  1.00  0.00     0.152 C
HETATM   41  C28 UNL     1     -15.669   8.003   1.808  1.00  0.00     0.080 C
HETATM   42  C29 UNL     1     -14.267   8.441   2.228  1.00  0.00     0.048 C
HETATM   43  C30 UNL     1     -16.079   9.045   0.745  1.00  0.00     0.048 C
HETATM   44  C32 UNL     1     -16.297   3.498   0.653  1.00  0.00    -0.041 C
HETATM   45  C33 UNL     1     -17.252   3.075  -0.484  1.00  0.00     0.015 C
HETATM   46  C34 UNL     1     -16.320   2.410   1.647  1.00  0.00     0.015 C
BRANCH  40  47
HETATM   47  O7  UNL     1     -15.847   8.404   4.150  1.00  0.00    -0.393 OA
ATOM     48  H7  UNL     1     -15.951   9.307   4.425  1.00  0.00     0.210 HD
ENDBRANCH  40  47
ENDBRANCH  30  32
ENDBRANCH  27  30
ENDBRANCH  26  27
ENDBRANCH  25  26
ENDBRANCH   1  25
TORSDOF 14
ENDMDL