MODEL 1
REMARK VINA RESULT: -9.685203815      0.000      0.000
REMARK  12 active torsions:
REMARK  status: ('A' for Active; 'I' for Inactive)
REMARK    1  A    between atoms: C2_2  and  C3_3
REMARK    2  A    between atoms: C3_3  and  C5_5
REMARK    3  A    between atoms: C5_5  and  N1_6
REMARK    4  A    between atoms: C6_7  and  C7_8
REMARK    5  A    between atoms: C12_17  and  N4_18
REMARK    6  A    between atoms: N4_18  and  C13_19
REMARK    7  A    between atoms: C15_21  and  C16_22
REMARK    8  A    between atoms: N6_26  and  C18_27
REMARK    9  A    between atoms: N7_30  and  C21_31
REMARK   10  A    between atoms: C21_31  and  C22_32
REMARK   11  A    between atoms: C29_39  and  N8_40
REMARK   12  A    between atoms: N8_40  and  S1_42
ROOT
HETATM    1  C13 UNL     1     -19.022   0.125   4.747  1.00  0.00     0.136 A
HETATM    2  C14 UNL     1     -19.740   0.396   5.923  1.00  0.00     0.059 A
HETATM    3  C15 UNL     1     -20.515  -0.527   6.510  1.00  0.00    -0.018 A
HETATM    4  C28 UNL     1     -20.608  -1.793   5.930  1.00  0.00     0.044 A
HETATM    5  C29 UNL     1     -19.940  -2.128   4.790  1.00  0.00     0.068 A
HETATM    6  C31 UNL     1     -19.162  -1.186   4.209  1.00  0.00     0.102 A
HETATM    7 CL1  UNL     1     -18.288  -1.560   2.754  1.00  0.00    -0.078 Cl
ENDROOT
BRANCH   1   8
HETATM    8  N4  UNL     1     -18.220   0.998   4.168  1.00  0.00    -0.369 NA
BRANCH   8   9
HETATM    9  C12 UNL     1     -17.516   1.784   3.657  1.00  0.00     0.264 A
HETATM   10  N3  UNL     1     -16.631   1.549   2.643  1.00  0.00    -0.299 N
HETATM   11  C11 UNL     1     -16.003   2.705   2.359  1.00  0.00     0.156 A
ATOM     12  H3  UNL     1     -16.474   0.654   2.180  1.00  0.00     0.171 HD
HETATM   13  N2  UNL     1     -15.073   3.276   1.595  1.00  0.00    -0.328 N
HETATM   14  C33 UNL     1     -16.491   3.687   3.189  1.00  0.00     0.163 A
HETATM   15  C6  UNL     1     -14.937   4.583   1.893  1.00  0.00     0.098 A
ATOM     16  H2  UNL     1     -14.534   2.789   0.878  1.00  0.00     0.169 HD
HETATM   17  N1  UNL     1     -15.811   4.839   2.871  1.00  0.00    -0.297 N
HETATM   18  N9  UNL     1     -17.411   3.125   3.982  1.00  0.00    -0.294 N
HETATM   19  C32 UNL     1     -18.191   3.697   5.018  1.00  0.00     0.162 C
BRANCH  15  20
HETATM   20  C7  UNL     1     -13.942   5.482   1.246  1.00  0.00     0.008 C
HETATM   21  C8  UNL     1     -12.871   5.914   2.236  1.00  0.00     0.022 C
HETATM   22  C9  UNL     1     -13.162   4.603   0.241  1.00  0.00     0.022 C
HETATM   23  C10 UNL     1     -14.475   6.601   0.443  1.00  0.00     0.022 C
ENDBRANCH  15  20
BRANCH  17  24
HETATM   24  C5  UNL     1     -16.049   6.046   3.569  1.00  0.00     0.077 C
BRANCH  24  25
HETATM   25  C3  UNL     1     -17.281   6.830   3.417  1.00  0.00     0.020 C
HETATM   26  C4  UNL     1     -16.769   8.250   2.833  1.00  0.00     0.015 C
BRANCH  25  27
HETATM   27  C2  UNL     1     -18.052   7.272   4.613  1.00  0.00     0.005 C
HETATM   28  C1  UNL     1     -17.233   7.839   5.742  1.00  0.00     0.006 C
ENDBRANCH  25  27
ENDBRANCH  24  25
ENDBRANCH  17  24
ENDBRANCH   8   9
ENDBRANCH   1   8
BRANCH   3  29
HETATM   29  C16 UNL     1     -21.236  -0.350   7.761  1.00  0.00     0.008 A
HETATM   30  C17 UNL     1     -20.829  -0.177   9.057  1.00  0.00     0.121 A
HETATM   31  N5  UNL     1     -21.946  -0.021   9.822  1.00  0.00    -0.309 N
HETATM   32  N6  UNL     1     -23.039  -0.080   9.115  1.00  0.00    -0.298 N
ATOM     33  H5  UNL     1     -21.928   0.126  10.831  1.00  0.00     0.186 HD
HETATM   34  C27 UNL     1     -22.649  -0.282   7.843  1.00  0.00     0.124 A
BRANCH  32  35
HETATM   35  C18 UNL     1     -24.416   0.079   9.503  1.00  0.00     0.111 C
HETATM   36  C19 UNL     1     -24.578   1.053  10.666  1.00  0.00     0.057 C
HETATM   37  C20 UNL     1     -25.930   0.739  11.250  1.00  0.00     0.274 C
HETATM   38  N7  UNL     1     -26.976   0.981  10.237  1.00  0.00     0.088 N
HETATM   39  C25 UNL     1     -26.756   0.334   9.010  1.00  0.00     0.274 C
HETATM   40  C26 UNL     1     -25.319   0.579   8.442  1.00  0.00     0.057 C
BRANCH  38  41
HETATM   41  C21 UNL     1     -28.173   0.624  10.909  1.00  0.00     0.276 C
BRANCH  41  42
HETATM   42  C22 UNL     1     -29.104   1.595  11.455  1.00  0.00     0.006 C
HETATM   43  C23 UNL     1     -29.669   1.253  12.792  1.00  0.00     0.011 C
HETATM   44  C24 UNL     1     -30.207   1.956  10.462  1.00  0.00     0.011 C
ENDBRANCH  41  42
ENDBRANCH  38  41
ENDBRANCH  32  35
ENDBRANCH   3  29
BRANCH   5  45
HETATM   45  N8  UNL     1     -20.009  -3.462   4.236  1.00  0.00    -0.283 N
ATOM     46  H8  UNL     1     -19.403  -4.203   4.589  1.00  0.00     0.178 HD
BRANCH  45  47
HETATM   47  S1  UNL     1     -21.133  -3.775   2.970  1.00  0.00     0.227 S
HETATM   48  C30 UNL     1     -21.712  -5.469   3.125  1.00  0.00     0.186 C
HETATM   49  O1  UNL     1     -20.367  -3.744   1.652  1.00  0.00    -0.206 OA
HETATM   50  O2  UNL     1     -22.223  -2.795   2.850  1.00  0.00    -0.206 OA
ENDBRANCH  45  47
ENDBRANCH   5  45
TORSDOF 12
ENDMDL