MODEL 1
REMARK VINA RESULT: -6.604702407      0.000      0.000
REMARK  14 active torsions:
REMARK  status: ('A' for Active; 'I' for Inactive)
REMARK    1  A    between atoms: C4_4  and  C5_5
REMARK    2  A    between atoms: C5_5  and  C6_6
REMARK    3  A    between atoms: C9_9  and  O1_11
REMARK    4  A    between atoms: C22_26  and  C23_27
REMARK    5  A    between atoms: C22_26  and  C33_40
REMARK    6  A    between atoms: C23_27  and  C24_28
REMARK    7  A    between atoms: C24_28  and  C25_29
REMARK    8  A    between atoms: C25_29  and  C26_30
REMARK    9  A    between atoms: C29_33  and  C30_34
REMARK   10  A    between atoms: C30_34  and  O4_35
REMARK   11  A    between atoms: C31_37  and  C32_38
REMARK   12  A    between atoms: C33_40  and  O6_41
REMARK   13  A    between atoms: O6_41  and  C34_42
REMARK   14  A    between atoms: C34_42  and  C35_44
ROOT
HETATM    1  C6  UNL     1     -18.057   4.101  -1.859  1.00  0.00     0.092 C
HETATM    2  C7  UNL     1     -17.794   4.381  -3.323  1.00  0.00     0.046 C
HETATM    3  C8  UNL     1     -18.847   5.089  -4.067  1.00  0.00     0.041 C
HETATM    4  C9  UNL     1     -20.202   5.225  -3.517  1.00  0.00     0.061 C
HETATM    5  C10 UNL     1     -20.684   6.665  -3.820  1.00  0.00     0.046 C
HETATM    6  C11 UNL     1     -20.381   5.038  -2.038  1.00  0.00     0.047 C
HETATM    7  C12 UNL     1     -21.390   6.008  -1.487  1.00  0.00     0.018 C
HETATM    8  C13 UNL     1     -19.048   5.073  -1.402  1.00  0.00    -0.042 C
HETATM    9  C14 UNL     1     -18.990   6.041  -0.504  1.00  0.00    -0.008 C
HETATM   10  C15 UNL     1     -17.873   6.511   0.396  1.00  0.00     0.080 C
HETATM   11  C16 UNL     1     -18.093   5.854   1.737  1.00  0.00     0.022 C
HETATM   12  C17 UNL     1     -16.629   6.052  -0.278  1.00  0.00     0.196 C
HETATM   13  O2  UNL     1     -15.956   6.922  -0.735  1.00  0.00    -0.291 OA
HETATM   14  C18 UNL     1     -16.237   4.609  -0.383  1.00  0.00     0.230 C
HETATM   15  C19 UNL     1     -14.806   4.648  -0.938  1.00  0.00     0.085 C
HETATM   16  C20 UNL     1     -14.169   3.286  -0.901  1.00  0.00     0.087 C
HETATM   17  C21 UNL     1     -14.312   2.788   0.485  1.00  0.00     0.163 C
HETATM   18  O3  UNL     1     -13.639   1.812   0.789  1.00  0.00    -0.295 OA
HETATM   19  C22 UNL     1     -15.218   3.458   1.407  1.00  0.00     0.146 C
HETATM   20  O8  UNL     1     -16.260   4.146   0.923  1.00  0.00    -0.327 OA
HETATM   21  O9  UNL     1     -16.973   3.836  -1.139  1.00  0.00    -0.333 OA
ENDROOT
BRANCH  19  22
HETATM   22  C23 UNL     1     -15.818   2.336   2.313  1.00  0.00     0.048 C
BRANCH  22  23
HETATM   23  C24 UNL     1     -16.930   1.646   1.651  1.00  0.00     0.004 C
BRANCH  23  24
HETATM   24  C25 UNL     1     -16.776   0.181   1.531  1.00  0.00     0.005 C
BRANCH  24  25
HETATM   25  C26 UNL     1     -17.834  -0.763   1.930  1.00  0.00    -0.003 C
HETATM   26  C27 UNL     1     -17.475  -1.115   3.418  1.00  0.00     0.006 C
HETATM   27  C28 UNL     1     -18.034  -2.487   3.637  1.00  0.00     0.008 C
HETATM   28  C29 UNL     1     -17.752  -3.181   2.314  1.00  0.00     0.020 C
HETATM   29  C31 UNL     1     -17.943  -2.079   1.267  1.00  0.00     0.057 C
BRANCH  28  30
HETATM   30  C30 UNL     1     -16.380  -3.782   2.255  1.00  0.00     0.169 C
BRANCH  30  31
HETATM   31  O4  UNL     1     -16.398  -4.924   3.069  1.00  0.00    -0.400 OA
ATOM     32  H4  UNL     1     -15.587  -4.925   3.564  1.00  0.00     0.209 HD
ENDBRANCH  30  31
ENDBRANCH  28  30
BRANCH  29  33
HETATM   33  C32 UNL     1     -19.337  -2.338   0.740  1.00  0.00     0.236 C
HETATM   34  O5  UNL     1     -19.880  -3.386   0.913  1.00  0.00    -0.306 OA
ENDBRANCH  29  33
ENDBRANCH  24  25
ENDBRANCH  23  24
ENDBRANCH  22  23
ENDBRANCH  19  22
BRANCH  19  35
HETATM   35  C33 UNL     1     -14.463   4.342   2.412  1.00  0.00     0.225 C
BRANCH  35  36
HETATM   36  O6  UNL     1     -13.355   4.955   1.802  1.00  0.00    -0.314 OA
BRANCH  36  37
HETATM   37  C34 UNL     1     -12.936   6.189   2.267  1.00  0.00     0.289 C
HETATM   38  O7  UNL     1     -12.281   6.222   3.336  1.00  0.00    -0.260 OA
BRANCH  37  39
HETATM   39  C35 UNL     1     -13.257   7.410   1.524  1.00  0.00     0.024 C
HETATM   40  C36 UNL     1     -12.443   7.842   0.361  1.00  0.00     0.056 C
HETATM   41  C37 UNL     1     -14.292   8.146   1.894  1.00  0.00     0.097 C
HETATM   42 CL1  UNL     1     -15.319   7.732   3.247  1.00  0.00    -0.096 Cl
ENDBRANCH  37  39
ENDBRANCH  36  37
ENDBRANCH  35  36
ENDBRANCH  19  35
BRANCH   1  43
HETATM   43  C5  UNL     1     -18.790   2.728  -1.860  1.00  0.00     0.070 C
BRANCH  43  44
HETATM   44  C4  UNL     1     -17.696   1.697  -1.893  1.00  0.00    -0.021 C
HETATM   45  C2  UNL     1     -17.934   0.387  -2.013  1.00  0.00    -0.091 C
HETATM   46  C1  UNL     1     -19.321  -0.129  -2.124  1.00  0.00     0.042 C
HETATM   47  C3  UNL     1     -16.818  -0.600  -2.042  1.00  0.00     0.042 C
ENDBRANCH  43  44
ENDBRANCH   1  43
BRANCH   4  48
HETATM   48  O1  UNL     1     -21.149   4.452  -4.241  1.00  0.00    -0.390 OA
ATOM     49  H1  UNL     1     -21.289   3.600  -3.845  1.00  0.00     0.210 HD
ENDBRANCH   4  48
TORSDOF 14
ENDMDL