MODEL 3
REMARK VINA RESULT: -7.638250497      2.844     10.324
REMARK  14 active torsions:
REMARK  status: ('A' for Active; 'I' for Inactive)
REMARK    1  A    between atoms: O1_2  and  C2_3
REMARK    2  A    between atoms: C2_3  and  O2_4
REMARK    3  A    between atoms: O2_4  and  C3_5
REMARK    4  A    between atoms: C6_8  and  O3_9
REMARK    5  A    between atoms: C8_13  and  C10_15
REMARK    6  A    between atoms: C10_15  and  O5_16
REMARK    7  A    between atoms: C11_18  and  O6_19
REMARK    8  A    between atoms: O6_19  and  C12_20
REMARK    9  A    between atoms: C12_20  and  C13_22
REMARK   10  A    between atoms: C21_30  and  C22_31
REMARK   11  A    between atoms: C22_31  and  O8_32
REMARK   12  A    between atoms: O8_32  and  C23_33
REMARK   13  A    between atoms: C31_42  and  C32_43
REMARK   14  A    between atoms: C32_43  and  C33_44
ROOT
HETATM    1  C3  UNL     1     -15.992   2.171  -0.174  1.00  0.00     0.176 C
HETATM    2  C4  UNL     1     -15.322   3.366  -0.700  1.00  0.00     0.079 C
HETATM    3  C5  UNL     1     -16.512   4.355  -0.490  1.00  0.00     0.052 C
HETATM    4  C6  UNL     1     -17.585   3.480  -0.936  1.00  0.00     0.265 C
HETATM    5  O4  UNL     1     -17.075   2.157  -1.116  1.00  0.00    -0.325 OA
HETATM    6  C7  UNL     1     -16.334   4.738   0.943  1.00  0.00     0.016 C
HETATM    7  C8  UNL     1     -17.039   5.973   1.355  1.00  0.00     0.009 C
HETATM    8  C9  UNL     1     -18.314   6.079   0.486  1.00  0.00     0.020 C
HETATM    9  C11 UNL     1     -17.457   6.132   2.760  1.00  0.00     0.142 C
HETATM   10  C17 UNL     1     -16.757   5.183   3.713  1.00  0.00     0.034 C
HETATM   11  C18 UNL     1     -16.909   3.763   3.197  1.00  0.00     0.012 C
HETATM   12  C19 UNL     1     -16.244   3.570   1.871  1.00  0.00    -0.028 C
HETATM   13  C20 UNL     1     -14.787   3.230   2.256  1.00  0.00     0.016 C
HETATM   14  C21 UNL     1     -16.751   2.305   1.161  1.00  0.00     0.081 C
ENDROOT
BRANCH  14  15
HETATM   15  C22 UNL     1     -16.535   1.042   1.893  1.00  0.00     0.179 C
BRANCH  15  16
HETATM   16  O8  UNL     1     -17.523   0.278   2.393  1.00  0.00    -0.380 OA
BRANCH  16  17
HETATM   17  C23 UNL     1     -17.525  -1.059   2.119  1.00  0.00     0.176 C
HETATM   18  C24 UNL     1     -16.517  -1.755   3.131  1.00  0.00     0.203 C
HETATM   19  O9  UNL     1     -16.815  -3.073   2.925  1.00  0.00    -0.377 OA
HETATM   20  C25 UNL     1     -18.192  -3.182   2.740  1.00  0.00     0.175 C
HETATM   21  C26 UNL     1     -18.730  -3.931   3.886  1.00  0.00     0.004 C
HETATM   22  C37 UNL     1     -18.735  -1.761   2.637  1.00  0.00     0.185 C
HETATM   23  C27 UNL     1     -19.835  -3.779   4.571  1.00  0.00    -0.017 C
HETATM   24  C28 UNL     1     -20.901  -2.725   4.339  1.00  0.00    -0.004 C
HETATM   25  C29 UNL     1     -21.999  -3.051   5.302  1.00  0.00     0.021 C
HETATM   26  C30 UNL     1     -21.531  -3.034   2.948  1.00  0.00     0.021 C
HETATM   27  C31 UNL     1     -20.309  -1.386   4.358  1.00  0.00     0.137 C
HETATM   28  O10 UNL     1     -19.004  -1.330   3.871  1.00  0.00    -0.374 OA
BRANCH  27  29
HETATM   29  C32 UNL     1     -20.208  -0.712   5.688  1.00  0.00     0.060 C
BRANCH  29  30
HETATM   30  C33 UNL     1     -21.276   0.166   6.118  1.00  0.00    -0.022 C
HETATM   31  C34 UNL     1     -21.815   0.012   7.326  1.00  0.00    -0.091 C
HETATM   32  C35 UNL     1     -22.928   0.912   7.794  1.00  0.00     0.042 C
HETATM   33  C36 UNL     1     -21.342  -1.045   8.282  1.00  0.00     0.042 C
ENDBRANCH  29  30
ENDBRANCH  27  29
ENDBRANCH  16  17
ENDBRANCH  15  16
ENDBRANCH  14  15
BRANCH   1  34
HETATM   34  O2  UNL     1     -15.231   1.066  -0.200  1.00  0.00    -0.330 OA
BRANCH  34  35
HETATM   35  C2  UNL     1     -14.070   1.069  -0.864  1.00  0.00     0.341 C
BRANCH  35  36
HETATM   36  O1  UNL     1     -12.984   1.069  -0.019  1.00  0.00    -0.372 OA
HETATM   37  C1  UNL     1     -11.764   0.983  -0.666  1.00  0.00     0.204 C
ENDBRANCH  35  36
ENDBRANCH  34  35
ENDBRANCH   1  34
BRANCH   4  38
HETATM   38  O3  UNL     1     -17.858   3.835  -2.298  1.00  0.00    -0.371 OA
ATOM     39  H3  UNL     1     -18.181   3.048  -2.721  1.00  0.00     0.212 HD
ENDBRANCH   4  38
BRANCH   7  40
HETATM   40  C10 UNL     1     -16.257   7.207   0.833  1.00  0.00     0.176 C
BRANCH  40  41
HETATM   41  O5  UNL     1     -15.013   7.322   1.373  1.00  0.00    -0.400 OA
ATOM     42  H5  UNL     1     -14.386   7.731   0.787  1.00  0.00     0.209 HD
ENDBRANCH  40  41
ENDBRANCH   7  40
BRANCH   9  43
HETATM   43  O6  UNL     1     -17.557   7.432   3.200  1.00  0.00    -0.312 OA
BRANCH  43  44
HETATM   44  C12 UNL     1     -16.834   8.029   4.199  1.00  0.00     0.283 C
HETATM   45  O7  UNL     1     -15.667   8.312   3.946  1.00  0.00    -0.260 OA
BRANCH  44  46
HETATM   46  C13 UNL     1     -17.414   8.319   5.503  1.00  0.00     0.084 C
HETATM   47  C14 UNL     1     -17.586   9.528   5.980  1.00  0.00    -0.082 C
HETATM   48  C15 UNL     1     -17.186  10.718   5.195  1.00  0.00     0.043 C
HETATM   49  C16 UNL     1     -18.183   9.731   7.323  1.00  0.00     0.043 C
ENDBRANCH  44  46
ENDBRANCH  43  44
ENDBRANCH   9  43
TORSDOF 14
ENDMDL