MODEL 1
REMARK VINA RESULT: -7.714988131      0.000      0.000
REMARK  13 active torsions:
REMARK  status: ('A' for Active; 'I' for Inactive)
REMARK    1  A    between atoms: O1_2  and  C2_3
REMARK    2  A    between atoms: C2_3  and  C3_4
REMARK    3  A    between atoms: C6_9  and  O4_10
REMARK    4  A    between atoms: C9_14  and  O5_15
REMARK    5  A    between atoms: C10_17  and  O6_18
REMARK    6  A    between atoms: C19_27  and  C20_28
REMARK    7  A    between atoms: C20_28  and  C21_29
REMARK    8  A    between atoms: C22_30  and  C23_31
REMARK    9  A    between atoms: C23_31  and  C24_32
REMARK   10  A    between atoms: C24_32  and  C25_33
REMARK   11  A    between atoms: C25_33  and  O7_35
REMARK   12  A    between atoms: O7_35  and  C27_36
REMARK   13  A    between atoms: C29_40  and  O10_41
ROOT
HETATM    1  C3  UNL     1     -14.639   1.064  -1.976  1.00  0.00     0.178 C
HETATM    2  O2  UNL     1     -13.925   1.225  -0.801  1.00  0.00    -0.312 OA
HETATM    3  C4  UNL     1     -12.627   1.463  -0.538  1.00  0.00     0.261 C
HETATM    4  O3  UNL     1     -11.906   0.598   0.074  1.00  0.00    -0.265 OA
HETATM    5  C5  UNL     1     -11.876   2.721  -0.905  1.00  0.00     0.143 C
HETATM    6  C6  UNL     1     -12.813   3.879  -0.752  1.00  0.00     0.133 C
HETATM    7  C7  UNL     1     -12.127   5.225  -0.607  1.00  0.00     0.042 C
HETATM    8  C8  UNL     1     -11.208   5.451  -1.818  1.00  0.00     0.015 C
HETATM    9  C9  UNL     1     -13.217   6.249  -0.579  1.00  0.00     0.157 C
HETATM   10  C10 UNL     1     -13.600   6.740   0.793  1.00  0.00     0.172 C
HETATM   11  C12 UNL     1     -14.533   7.875   0.660  1.00  0.00     0.007 C
HETATM   12  C13 UNL     1     -15.339   8.421   1.542  1.00  0.00    -0.001 C
HETATM   13  C14 UNL     1     -15.660   8.194   2.901  1.00  0.00     0.006 C
HETATM   14  C15 UNL     1     -16.659   7.574   3.553  1.00  0.00    -0.062 C
HETATM   15  C16 UNL     1     -16.573   7.588   5.099  1.00  0.00     0.048 C
HETATM   16  C17 UNL     1     -17.831   6.933   3.047  1.00  0.00     0.005 C
HETATM   17  C18 UNL     1     -18.133   5.817   2.431  1.00  0.00     0.010 C
HETATM   18  C19 UNL     1     -17.366   4.690   1.977  1.00  0.00     0.176 C
HETATM   19  O9  UNL     1     -16.770   5.005   0.700  1.00  0.00    -0.317 OA
HETATM   20  C29 UNL     1     -17.436   5.165  -0.500  1.00  0.00     0.179 C
HETATM   21  C30 UNL     1     -18.255   4.203  -1.207  1.00  0.00     0.066 C
HETATM   22  C31 UNL     1     -17.890   3.118  -1.889  1.00  0.00    -0.077 C
HETATM   23  C32 UNL     1     -19.051   2.351  -2.493  1.00  0.00     0.043 C
HETATM   24  C33 UNL     1     -16.547   2.626  -2.159  1.00  0.00     0.062 C
HETATM   25  C34 UNL     1     -16.145   1.274  -1.699  1.00  0.00     0.066 C
HETATM   26  C35 UNL     1     -16.856   0.146  -2.443  1.00  0.00     0.036 C
HETATM   27 CL1  UNL     1     -16.482   0.972   0.021  1.00  0.00    -0.116 Cl
ENDROOT
BRANCH  18  28
HETATM   28  C20 UNL     1     -16.410   3.966   2.787  1.00  0.00     0.009 C
BRANCH  28  29
HETATM   29  C21 UNL     1     -16.582   3.465   4.141  1.00  0.00    -0.005 C
HETATM   30  C22 UNL     1     -17.785   3.149   4.880  1.00  0.00    -0.027 C
BRANCH  30  31
HETATM   31  C23 UNL     1     -18.699   2.054   4.551  1.00  0.00     0.029 C
BRANCH  31  32
HETATM   32  C24 UNL     1     -17.847   0.894   3.979  1.00  0.00     0.036 C
BRANCH  32  33
HETATM   33  C25 UNL     1     -18.342  -0.413   4.556  1.00  0.00     0.128 C
HETATM   34  C26 UNL     1     -19.579  -0.086   5.387  1.00  0.00     0.040 C
BRANCH  33  35
HETATM   35  O7  UNL     1     -18.782  -1.276   3.509  1.00  0.00    -0.317 OA
BRANCH  35  36
HETATM   36  C27 UNL     1     -17.867  -1.690   2.560  1.00  0.00     0.255 C
HETATM   37  C28 UNL     1     -18.317  -1.909   1.146  1.00  0.00     0.126 C
HETATM   38  O8  UNL     1     -16.652  -1.905   2.793  1.00  0.00    -0.266 OA
ENDBRANCH  35  36
ENDBRANCH  33  35
ENDBRANCH  32  33
ENDBRANCH  31  32
ENDBRANCH  30  31
ENDBRANCH  28  29
ENDBRANCH  18  28
BRANCH  20  39
HETATM   39  O10 UNL     1     -17.333   6.334  -1.100  1.00  0.00    -0.341 OA
ATOM     40  H10 UNL     1     -17.688   7.091  -0.649  1.00  0.00     0.220 HD
ENDBRANCH  20  39
BRANCH  10  41
HETATM   41  O6  UNL     1     -12.503   7.013   1.583  1.00  0.00    -0.384 OA
HETATM   42  C11 UNL     1     -12.390   6.310   2.746  1.00  0.00     0.202 C
ENDBRANCH  10  41
BRANCH   1  43
HETATM   43  C2  UNL     1     -14.343  -0.223  -2.660  1.00  0.00     0.201 C
BRANCH  43  44
HETATM   44  O1  UNL     1     -13.934  -1.241  -1.821  1.00  0.00    -0.393 OA
HETATM   45  C1  UNL     1     -12.825  -1.921  -2.260  1.00  0.00     0.201 C
ENDBRANCH  43  44
ENDBRANCH   1  43
BRANCH   9  46
HETATM   46  O5  UNL     1     -12.759   7.341  -1.357  1.00  0.00    -0.392 OA
ATOM     47  H5  UNL     1     -13.515   7.896  -1.510  1.00  0.00     0.210 HD
ENDBRANCH   9  46
BRANCH   6  48
HETATM   48  O4  UNL     1     -13.562   3.719   0.415  1.00  0.00    -0.395 OA
ATOM     49  H4  UNL     1     -14.445   3.453   0.189  1.00  0.00     0.210 HD
ENDBRANCH   6  48
TORSDOF 13
ENDMDL