MODEL 1
REMARK VINA RESULT: -6.758838883      0.000      0.000
REMARK  13 active torsions:
REMARK  status: ('A' for Active; 'I' for Inactive)
REMARK    1  A    between atoms: O1_2  and  C2_3
REMARK    2  A    between atoms: C2_3  and  C3_4
REMARK    3  A    between atoms: C2_3  and  C35_43
REMARK    4  A    between atoms: C4_5  and  C5_6
REMARK    5  A    between atoms: C5_6  and  O3_8
REMARK    6  A    between atoms: O3_8  and  C6_9
REMARK    7  A    between atoms: C6_9  and  C7_10
REMARK    8  A    between atoms: C6_9  and  C11_15
REMARK    9  A    between atoms: C7_10  and  C9_12
REMARK   10  A    between atoms: C26_31  and  C27_32
REMARK   11  A    between atoms: C29_35  and  O6_36
REMARK   12  A    between atoms: C35_43  and  O7_44
REMARK   13  A    between atoms: O7_44  and  S1_45
ROOT
HETATM    1  C11 UNL     1     -16.711   7.726   2.206  1.00  0.00     0.025 C
HETATM    2  C12 UNL     1     -16.734   7.910   3.730  1.00  0.00     0.009 C
HETATM    3  C13 UNL     1     -16.449   9.344   4.032  1.00  0.00     0.010 C
HETATM    4  C14 UNL     1     -16.392  10.012   2.728  1.00  0.00     0.023 C
HETATM    5  C15 UNL     1     -15.536  11.227   2.702  1.00  0.00    -0.072 C
HETATM    6  C16 UNL     1     -15.023  11.825   1.661  1.00  0.00    -0.065 C
HETATM    7  C17 UNL     1     -15.069  11.584   0.205  1.00  0.00     0.072 C
HETATM    8  C18 UNL     1     -15.457  10.301  -0.335  1.00  0.00     0.174 C
HETATM    9  F1  UNL     1     -14.387   9.509  -0.738  1.00  0.00    -0.249 F
HETATM   10  C19 UNL     1     -16.372   9.424   0.447  1.00  0.00     0.047 C
HETATM   11  C20 UNL     1     -15.923   8.965   1.752  1.00  0.00    -0.028 C
HETATM   12  C21 UNL     1     -14.480   8.620   1.939  1.00  0.00     0.016 C
HETATM   13  C22 UNL     1     -14.152  13.017   1.870  1.00  0.00    -0.012 C
HETATM   14  C23 UNL     1     -12.775  12.822   1.242  1.00  0.00     0.021 C
HETATM   15  C24 UNL     1     -14.807  14.221   1.207  1.00  0.00     0.015 C
HETATM   16  C25 UNL     1     -13.888  15.322   1.720  1.00  0.00     0.011 C
HETATM   17  C26 UNL     1     -13.597  14.922   3.148  1.00  0.00     0.030 C
HETATM   18  C31 UNL     1     -13.973  13.462   3.267  1.00  0.00    -0.025 C
HETATM   19  C32 UNL     1     -12.853  12.768   4.020  1.00  0.00     0.017 C
HETATM   20  C33 UNL     1     -15.236  13.230   4.062  1.00  0.00     0.015 C
HETATM   21  C34 UNL     1     -15.361  11.690   4.106  1.00  0.00     0.036 C
ENDROOT
BRANCH   1  22
HETATM   22  C6  UNL     1     -16.004   6.461   1.854  1.00  0.00     0.147 C
BRANCH  22  23
HETATM   23  O3  UNL     1     -16.004   5.600   3.034  1.00  0.00    -0.311 OA
BRANCH  23  24
HETATM   24  C5  UNL     1     -15.364   4.375   2.967  1.00  0.00     0.283 C
HETATM   25  O2  UNL     1     -14.151   4.413   2.522  1.00  0.00    -0.260 OA
BRANCH  24  26
HETATM   26  C4  UNL     1     -15.921   3.116   3.341  1.00  0.00     0.081 C
HETATM   27  C3  UNL     1     -16.158   2.113   2.589  1.00  0.00     0.013 C
BRANCH  27  28
HETATM   28  C2  UNL     1     -15.978   1.848   1.169  1.00  0.00     0.169 C
BRANCH  28  29
HETATM   29  O1  UNL     1     -14.624   1.594   0.881  1.00  0.00    -0.385 OA
HETATM   30  C1  UNL     1     -14.155   2.216  -0.243  1.00  0.00     0.202 C
ENDBRANCH  28  29
BRANCH  28  31
HETATM   31  C35 UNL     1     -16.765   0.540   0.859  1.00  0.00     0.229 C
BRANCH  31  32
HETATM   32  O7  UNL     1     -16.751  -0.284   1.964  1.00  0.00    -0.254 OA
BRANCH  32  33
HETATM   33  S1  UNL     1     -17.615  -1.678   1.618  1.00  0.00     0.251 S
HETATM   34  O8  UNL     1     -18.682  -1.938   2.627  1.00  0.00    -0.572 OA
HETATM   35  O9  UNL     1     -16.701  -2.878   1.599  1.00  0.00    -0.572 OA
HETATM   36  O10 UNL     1     -18.257  -1.474   0.072  1.00  0.00    -0.572 OA
ENDBRANCH  32  33
ENDBRANCH  31  32
ENDBRANCH  28  31
ENDBRANCH  27  28
ENDBRANCH  24  26
ENDBRANCH  23  24
ENDBRANCH  22  23
BRANCH  22  37
HETATM   37  C7  UNL     1     -16.624   5.600   0.794  1.00  0.00     0.081 C
HETATM   38  C8  UNL     1     -18.119   6.030   0.733  1.00  0.00     0.020 C
BRANCH  37  39
HETATM   39  C9  UNL     1     -16.115   5.802  -0.569  1.00  0.00     0.129 C
HETATM   40  C10 UNL     1     -14.667   6.035  -0.774  1.00  0.00     0.091 C
HETATM   41  O4  UNL     1     -16.856   5.782  -1.515  1.00  0.00    -0.298 OA
ENDBRANCH  37  39
ENDBRANCH  22  37
ENDBRANCH   1  22
BRANCH  17  42
HETATM   42  C27 UNL     1     -14.273  15.812   4.088  1.00  0.00    -0.026 A
HETATM   43  C28 UNL     1     -15.272  16.719   3.781  1.00  0.00     0.152 A
HETATM   44  O5  UNL     1     -15.626  17.308   4.891  1.00  0.00    -0.300 OA
HETATM   45  C29 UNL     1     -14.952  16.877   5.924  1.00  0.00     0.183 A
HETATM   46  C30 UNL     1     -14.069  15.909   5.442  1.00  0.00     0.073 A
BRANCH  45  47
HETATM   47  O6  UNL     1     -15.052  17.265   7.260  1.00  0.00    -0.341 OA
ATOM     48  H6  UNL     1     -15.078  16.723   8.039  1.00  0.00     0.220 HD
ENDBRANCH  45  47
ENDBRANCH  17  42
TORSDOF 13
ENDMDL