MODEL 1
REMARK VINA RESULT: -9.556485736      0.000      0.000
REMARK  12 active torsions:
REMARK  status: ('A' for Active; 'I' for Inactive)
REMARK    1  A    between atoms: C2_2  and  C4_4
REMARK    2  A    between atoms: C7_7  and  C8_8
REMARK    3  A    between atoms: C8_8  and  N1_9
REMARK    4  A    between atoms: C10_11  and  C11_12
REMARK    5  A    between atoms: C13_17  and  O2_18
REMARK    6  A    between atoms: O2_18  and  C14_19
REMARK    7  A    between atoms: C14_19  and  O3_20
REMARK    8  A    between atoms: C14_19  and  S1_33
REMARK    9  A    between atoms: O3_20  and  C15_21
REMARK   10  A    between atoms: C15_21  and  C16_23
REMARK   11  A    between atoms: S1_33  and  C26_34
REMARK   12  A    between atoms: C32_40  and  C33_41
ROOT
HETATM    1  C11 UNL     1     -14.873   4.344   1.810  1.00  0.00     0.154 C
HETATM    2  N2  UNL     1     -14.022   4.897   2.826  1.00  0.00    -0.348 N
ATOM      3  H2  UNL     1     -13.586   4.365   3.579  1.00  0.00     0.163 HD
HETATM    4  C12 UNL     1     -13.880   6.296   2.624  1.00  0.00     0.248 C
HETATM    5  O1  UNL     1     -12.905   7.022   2.923  1.00  0.00    -0.271 OA
HETATM    6  C13 UNL     1     -15.149   6.709   1.974  1.00  0.00     0.234 C
HETATM    7  C32 UNL     1     -15.543   5.501   1.175  1.00  0.00     0.153 C
ENDROOT
BRANCH   6   8
HETATM    8  O2  UNL     1     -14.953   7.830   1.163  1.00  0.00    -0.336 OA
BRANCH   8   9
HETATM    9  C14 UNL     1     -15.140   8.998   1.898  1.00  0.00     0.336 C
BRANCH   9  10
HETATM   10  O3  UNL     1     -15.181  10.086   0.965  1.00  0.00    -0.280 OA
BRANCH  10  11
HETATM   11  C15 UNL     1     -14.235  11.096   0.984  1.00  0.00     0.270 C
HETATM   12  O4  UNL     1     -13.291  11.021   0.156  1.00  0.00    -0.264 OA
BRANCH  11  13
HETATM   13  C16 UNL     1     -14.356  12.212   1.950  1.00  0.00     0.049 C
HETATM   14  C17 UNL     1     -15.772  12.509   2.330  1.00  0.00     0.024 C
HETATM   15  C18 UNL     1     -15.816  13.728   3.198  1.00  0.00    -0.013 C
HETATM   16  C19 UNL     1     -15.236  14.913   2.456  1.00  0.00     0.009 C
HETATM   17  C23 UNL     1     -15.027  13.454   4.465  1.00  0.00     0.009 C
HETATM   18  C20 UNL     1     -13.786  14.622   2.176  1.00  0.00    -0.013 C
HETATM   19  C21 UNL     1     -12.990  14.322   3.418  1.00  0.00     0.009 C
HETATM   20  C25 UNL     1     -13.722  13.431   1.275  1.00  0.00     0.024 C
HETATM   21  C22 UNL     1     -13.614  13.128   4.105  1.00  0.00    -0.013 C
HETATM   22  C24 UNL     1     -13.541  11.943   3.188  1.00  0.00     0.024 C
ENDBRANCH  11  13
ENDBRANCH  10  11
ENDBRANCH   9  10
BRANCH   9  23
HETATM   23  S1  UNL     1     -16.580   8.942   2.965  1.00  0.00    -0.104 SA
BRANCH  23  24
HETATM   24  C26 UNL     1     -16.192   9.444   4.664  1.00  0.00     0.052 C
HETATM   25  C27 UNL     1     -16.410   8.217   5.548  1.00  0.00     0.015 C
HETATM   26  C28 UNL     1     -17.892   7.991   5.753  1.00  0.00     0.001 C
HETATM   27  C29 UNL     1     -18.393   9.024   6.738  1.00  0.00     0.000 C
HETATM   28  C30 UNL     1     -17.538  10.257   6.601  1.00  0.00     0.001 C
HETATM   29  C31 UNL     1     -17.150  10.498   5.161  1.00  0.00     0.015 C
ENDBRANCH  23  24
ENDBRANCH   9  23
ENDBRANCH   8   9
ENDBRANCH   6   8
BRANCH   7  30
HETATM   30  C33 UNL     1     -17.013   5.353   1.081  1.00  0.00     0.182 C
HETATM   31  O5  UNL     1     -17.506   4.699   0.148  1.00  0.00    -0.648 OA
HETATM   32  O6  UNL     1     -17.819   5.940   2.023  1.00  0.00    -0.648 OA
ENDBRANCH   7  30
BRANCH   1  33
HETATM   33  C10 UNL     1     -15.836   3.363   2.395  1.00  0.00     0.068 A
HETATM   34  C9  UNL     1     -16.354   3.421   3.668  1.00  0.00     0.140 A
HETATM   35  N1  UNL     1     -17.170   2.379   3.827  1.00  0.00    -0.283 N
HETATM   36  N4  UNL     1     -17.165   1.693   2.700  1.00  0.00    -0.240 N
HETATM   37  N3  UNL     1     -16.365   2.272   1.821  1.00  0.00    -0.287 N
ATOM     38  H4  UNL     1     -17.701   0.842   2.532  1.00  0.00     0.208 HD
ATOM     39  H3  UNL     1     -16.181   1.945   0.872  1.00  0.00     0.188 HD
BRANCH  35  40
HETATM   40  C8  UNL     1     -17.934   2.093   5.060  1.00  0.00     0.188 C
BRANCH  40  41
HETATM   41  C7  UNL     1     -18.513   0.725   4.877  1.00  0.00    -0.037 A
HETATM   42  C6  UNL     1     -19.702   0.433   5.479  1.00  0.00     0.009 A
HETATM   43  C5  UNL     1     -20.269  -0.810   5.360  1.00  0.00     0.010 A
HETATM   44  C4  UNL     1     -19.652  -1.801   4.628  1.00  0.00    -0.033 A
HETATM   45  C35 UNL     1     -18.448  -1.480   4.026  1.00  0.00     0.041 A
HETATM   46  C34 UNL     1     -17.869  -0.235   4.139  1.00  0.00     0.033 A
HETATM   47 CL1  UNL     1     -17.609  -2.706   3.076  1.00  0.00    -0.084 Cl
BRANCH  44  48
HETATM   48  C2  UNL     1     -20.247  -3.143   4.501  1.00  0.00     0.012 C
HETATM   49  C1  UNL     1     -20.634  -3.663   5.886  1.00  0.00     0.015 C
HETATM   50  C3  UNL     1     -21.382  -3.241   3.536  1.00  0.00     0.015 C
ENDBRANCH  44  48
ENDBRANCH  40  41
ENDBRANCH  35  40
ENDBRANCH   1  33
TORSDOF 12
ENDMDL