MODEL 1
REMARK VINA RESULT: -8.110785620      0.000      0.000
REMARK  3 active torsions:
REMARK  status: ('A' for Active; 'I' for Inactive)
REMARK    1  A    between atoms: O1_2  and  C2_3
REMARK    2  A    between atoms: C11_12  and  C13_15
REMARK    3  A    between atoms: C13_15  and  O2_18
ROOT
HETATM    1  C2  UNL     1     -20.070  55.850   2.223  1.00  0.00     0.129 C
HETATM    2  C3  UNL     1     -18.598  56.100   2.259  1.00  0.00     0.011 C
HETATM    3  C4  UNL     1     -18.038  56.279   3.623  1.00  0.00     0.012 C
HETATM    4  C5  UNL     1     -18.399  57.346   1.384  1.00  0.00     0.008 C
HETATM    5  C6  UNL     1     -18.592  56.857  -0.029  1.00  0.00     0.014 C
HETATM    6  C7  UNL     1     -19.929  56.214  -0.264  1.00  0.00    -0.021 C
HETATM    7  C8  UNL     1     -20.870  57.403  -0.576  1.00  0.00     0.020 C
HETATM    8  C9  UNL     1     -19.832  55.485  -1.537  1.00  0.00    -0.019 C
HETATM    9  C10 UNL     1     -20.023  54.224  -1.674  1.00  0.00    -0.003 C
HETATM   10  C11 UNL     1     -20.372  53.326  -0.565  1.00  0.00     0.097 C
HETATM   11  C12 UNL     1     -19.383  52.213  -0.630  1.00  0.00     0.076 C
HETATM   12  N1  UNL     1     -18.626  51.340  -0.674  1.00  0.00    -0.196 NA
HETATM   13  C16 UNL     1     -20.233  53.938   0.762  1.00  0.00     0.040 C
HETATM   14  C17 UNL     1     -20.488  55.419   0.823  1.00  0.00     0.029 C
ENDROOT
BRANCH  10  15
HETATM   15  C13 UNL     1     -21.721  52.712  -0.847  1.00  0.00     0.074 C
HETATM   16  C14 UNL     1     -22.333  52.104   0.399  1.00  0.00     0.047 C
HETATM   17  C15 UNL     1     -22.711  53.663  -1.423  1.00  0.00     0.047 C
BRANCH  15  18
HETATM   18  O2  UNL     1     -21.562  51.658  -1.759  1.00  0.00    -0.389 OA
ATOM     19  H2  UNL     1     -21.763  51.972  -2.632  1.00  0.00     0.210 HD
ENDBRANCH  15  18
ENDBRANCH  10  15
BRANCH   1  20
HETATM   20  O1  UNL     1     -20.761  56.970   2.607  1.00  0.00    -0.390 OA
HETATM   21  C1  UNL     1     -22.065  56.683   2.987  1.00  0.00     0.202 C
ENDBRANCH   1  20
TORSDOF 3
ENDMDL