MODEL 5
REMARK VINA RESULT: -7.311738462      2.051      4.740
REMARK  2 active torsions:
REMARK  status: ('A' for Active; 'I' for Inactive)
REMARK    1  A    between atoms: N1_6  and  C6_7
REMARK    2  A    between atoms: C6_7  and  C7_8
ROOT
HETATM    1  C1  UNL     1     -22.782  58.095   0.796  1.00  0.00     0.061 C
HETATM    2  C2  UNL     1     -21.532  57.212   0.576  1.00  0.00     0.134 C
HETATM    3  C3  UNL     1     -21.161  56.529   1.858  1.00  0.00     0.054 C
HETATM    4  C4  UNL     1     -21.105  55.035   1.792  1.00  0.00     0.030 C
HETATM    5  C5  UNL     1     -20.347  54.439   0.663  1.00  0.00     0.104 C
HETATM    6  N1  UNL     1     -19.034  55.093   0.410  1.00  0.00    -0.350 N
HETATM    7  C10 UNL     1     -18.620  56.434   0.445  1.00  0.00     0.194 C
HETATM    8  S1  UNL     1     -17.162  56.810   1.011  1.00  0.00    -0.039 SA
HETATM    9  N2  UNL     1     -19.325  57.637   0.068  1.00  0.00    -0.239 N
ATOM     10  H2  UNL     1     -18.687  58.344  -0.296  1.00  0.00     0.197 HD
HETATM   11  O1  UNL     1     -20.592  58.077   0.066  1.00  0.00    -0.256 OA
HETATM   12  C11 UNL     1     -21.220  54.445  -0.545  1.00  0.00     0.024 C
HETATM   13  C12 UNL     1     -22.329  53.409  -0.315  1.00  0.00     0.029 C
HETATM   14  C13 UNL     1     -20.558  54.098  -1.841  1.00  0.00     0.029 C
HETATM   15  S2  UNL     1     -21.979  56.065  -0.734  1.00  0.00    -0.118 SA
ENDROOT
BRANCH   6  16
HETATM   16  C6  UNL     1     -18.054  54.112   0.079  1.00  0.00     0.130 C
BRANCH  16  17
HETATM   17  C7  UNL     1     -18.116  52.783   0.731  1.00  0.00     0.004 A
HETATM   18  C8  UNL     1     -17.149  51.727   0.080  1.00  0.00     0.007 A
HETATM   19  C9  UNL     1     -18.593  51.526   0.025  1.00  0.00     0.007 A
ENDBRANCH  16  17
ENDBRANCH   6  16
TORSDOF 2
ENDMDL