MODEL 5
REMARK VINA RESULT: -7.873721334      1.844      5.626
REMARK  2 active torsions:
REMARK  status: ('A' for Active; 'I' for Inactive)
REMARK    1  A    between atoms: C2_2  and  C3_3
REMARK    2  A    between atoms: C8_9  and  O2_10
ROOT
HETATM    1  C3  UNL     1     -19.634  56.498   1.815  1.00  0.00     0.016 C
HETATM    2  C4  UNL     1     -20.626  55.420   2.023  1.00  0.00     0.010 C
HETATM    3  C5  UNL     1     -20.352  54.088   1.461  1.00  0.00     0.041 C
HETATM    4  C6  UNL     1     -20.765  53.938  -0.004  1.00  0.00     0.093 C
HETATM    5  O1  UNL     1     -20.363  55.031  -0.755  1.00  0.00    -0.375 OA
HETATM    6  C7  UNL     1     -19.097  55.485  -0.446  1.00  0.00     0.201 C
HETATM    7  C8  UNL     1     -19.247  56.728   0.399  1.00  0.00     0.148 C
HETATM    8  C10 UNL     1     -20.162  52.659  -0.541  1.00  0.00     0.025 C
HETATM    9  C11 UNL     1     -20.755  51.464   0.160  1.00  0.00     0.012 C
HETATM   10  C12 UNL     1     -22.252  51.455  -0.024  1.00  0.00    -0.010 C
HETATM   11  C13 UNL     1     -22.507  51.364  -1.525  1.00  0.00     0.037 C
HETATM   12  C14 UNL     1     -21.963  52.604  -2.178  1.00  0.00     0.187 C
HETATM   13  C15 UNL     1     -20.442  52.578  -2.026  1.00  0.00     0.040 C
HETATM   14  N1  UNL     1     -22.510  53.801  -1.607  1.00  0.00    -0.064 N
ATOM     15  H11 UNL     1     -23.505  53.886  -1.815  1.00  0.00     0.278 HD
ATOM     16  H12 UNL     1     -22.169  54.629  -2.096  1.00  0.00     0.278 HD
HETATM   17  C16 UNL     1     -22.262  53.898  -0.174  1.00  0.00     0.221 C
HETATM   18  C17 UNL     1     -22.909  52.708   0.469  1.00  0.00     0.041 C
ENDROOT
BRANCH   1  19
HETATM   19  C2  UNL     1     -18.509  56.522   2.802  1.00  0.00     0.002 C
HETATM   20  C1  UNL     1     -18.809  56.920   4.192  1.00  0.00     0.005 C
ENDBRANCH   1  19
BRANCH   7  21
HETATM   21  O2  UNL     1     -18.157  57.566   0.272  1.00  0.00    -0.388 OA
HETATM   22  C9  UNL     1     -17.038  56.920  -0.281  1.00  0.00     0.202 C
ENDBRANCH   7  21
TORSDOF 2
ENDMDL