MODEL 2
REMARK VINA RESULT: -8.140193323      1.945      7.259
REMARK  3 active torsions:
REMARK  status: ('A' for Active; 'I' for Inactive)
REMARK       I    between atoms: C1_2  and  N1_3
REMARK    1  A    between atoms: C1_2  and  C8_16
REMARK    2  A    between atoms: N1_3  and  C2_5
REMARK    3  A    between atoms: C3_10  and  C4_11
ROOT
HETATM    1  C2  UNL     1     -18.620  52.375  -3.720  1.00  0.00     0.167 A
HETATM    2  N2  UNL     1     -18.197  51.831  -4.849  1.00  0.00    -0.279 N
ATOM      3  H2  UNL     1     -17.198  51.735  -5.029  1.00  0.00     0.189 HD
HETATM    4  N3  UNL     1     -19.046  51.428  -5.710  1.00  0.00    -0.296 N
ATOM      5  H3  UNL     1     -18.727  51.008  -6.582  1.00  0.00     0.187 HD
HETATM    6  C3  UNL     1     -20.343  51.554  -5.473  1.00  0.00     0.074 A
HETATM    7  S1  UNL     1     -20.318  52.293  -3.927  1.00  0.00    -0.037 SA
ENDROOT
BRANCH   1   8
HETATM    8  N1  UNL     1     -18.048  52.861  -2.691  1.00  0.00    -0.306 N
HETATM    9  C1  UNL     1     -18.351  52.653  -1.355  1.00  0.00     0.227 C
HETATM   10  O1  UNL     1     -18.688  51.499  -0.980  1.00  0.00    -0.273 OA
ATOM     11  H1  UNL     1     -17.264  53.486  -2.875  1.00  0.00     0.171 HD
BRANCH   9  12
HETATM   12  C8  UNL     1     -18.281  53.794  -0.346  1.00  0.00     0.079 C
HETATM   13  C9  UNL     1     -19.212  53.301   0.744  1.00  0.00     0.025 C
HETATM   14  C10 UNL     1     -19.372  54.341   1.904  1.00  0.00     0.081 C
HETATM   15  C11 UNL     1     -18.869  55.554   1.406  1.00  0.00    -0.183 C
HETATM   16  C12 UNL     1     -18.389  56.741   0.839  1.00  0.00     0.080 C
HETATM   17  C13 UNL     1     -17.860  56.353  -0.588  1.00  0.00     0.012 C
HETATM   18  C14 UNL     1     -18.473  55.027  -1.060  1.00  0.00     0.015 C
ENDBRANCH   9  12
ENDBRANCH   1   8
BRANCH   6  19
HETATM   19  C4  UNL     1     -21.545  51.182  -6.276  1.00  0.00     0.044 A
HETATM   20  C5  UNL     1     -21.787  52.039  -7.484  1.00  0.00     0.011 A
HETATM   21  C6  UNL     1     -23.012  52.603  -6.787  1.00  0.00     0.002 A
HETATM   22  C7  UNL     1     -22.788  51.731  -5.594  1.00  0.00     0.011 A
ENDBRANCH   6  19
TORSDOF 3
ENDMDL