MODEL 4
REMARK VINA RESULT: -7.957374063      1.680      4.761
REMARK  3 active torsions:
REMARK  status: ('A' for Active; 'I' for Inactive)
REMARK    1  A    between atoms: C2_2  and  C3_3
REMARK    2  A    between atoms: C9_9  and  O1_11
REMARK    3  A    between atoms: C13_16  and  O3_17
ROOT
HETATM    1  C3  UNL     1     -19.162  54.989  -0.650  1.00  0.00     0.007 C
HETATM    2  C4  UNL     1     -18.584  54.475   0.628  1.00  0.00     0.021 C
HETATM    3  C5  UNL     1     -18.170  53.052   0.339  1.00  0.00    -0.002 C
HETATM    4  C6  UNL     1     -18.981  52.031   1.021  1.00  0.00     0.005 C
HETATM    5  C7  UNL     1     -20.318  52.402   1.533  1.00  0.00     0.004 C
HETATM    6  C8  UNL     1     -21.401  52.723   0.600  1.00  0.00     0.040 C
HETATM    7  C9  UNL     1     -21.423  54.007  -0.106  1.00  0.00     0.081 C
HETATM    8  C10 UNL     1     -22.809  54.062  -0.792  1.00  0.00     0.049 C
HETATM    9  C11 UNL     1     -20.415  54.322  -1.126  1.00  0.00     0.168 C
HETATM   10  O2  UNL     1     -20.224  53.347  -2.103  1.00  0.00    -0.373 OA
HETATM   11  C12 UNL     1     -19.302  52.404  -1.864  1.00  0.00     0.160 C
HETATM   12  C13 UNL     1     -18.341  51.962  -2.927  1.00  0.00     0.151 C
HETATM   13  C15 UNL     1     -17.233  52.118  -1.870  1.00  0.00     0.047 C
HETATM   14  C16 UNL     1     -18.143  53.015  -1.149  1.00  0.00    -0.005 C
HETATM   15  C17 UNL     1     -18.054  54.483  -1.596  1.00  0.00     0.028 C
ENDROOT
BRANCH   7  16
HETATM   16  O1  UNL     1     -21.468  55.085   0.796  1.00  0.00    -0.388 OA
ATOM     17  H1  UNL     1     -22.148  54.961   1.449  1.00  0.00     0.210 HD
ENDBRANCH   7  16
BRANCH   1  18
HETATM   18  C2  UNL     1     -19.235  56.451  -0.605  1.00  0.00    -0.025 C
HETATM   19  C1  UNL     1     -18.283  57.151  -0.039  1.00  0.00     0.008 C
ENDBRANCH   1  18
BRANCH  12  20
HETATM   20  O3  UNL     1     -18.207  52.703  -4.052  1.00  0.00    -0.388 OA
HETATM   21  C14 UNL     1     -18.863  52.145  -5.149  1.00  0.00     0.202 C
ENDBRANCH  12  20
TORSDOF 3
ENDMDL