MODEL 3
REMARK VINA RESULT: -7.189054868      2.343      2.728
REMARK  2 active torsions:
REMARK  status: ('A' for Active; 'I' for Inactive)
REMARK    1  A    between atoms: S1_2  and  C2_4
REMARK    2  A    between atoms: C3_5  and  C4_6
ROOT
HETATM    1  C2  UNL     1     -21.515  54.354  -0.979  1.00  0.00     0.052 A
HETATM    2  C3  UNL     1     -20.228  53.928  -1.180  1.00  0.00     0.007 A
HETATM    3  S2  UNL     1     -19.323  55.369  -1.120  1.00  0.00    -0.095 SA
HETATM    4  C10 UNL     1     -20.581  56.476  -0.840  1.00  0.00     0.016 A
HETATM    5  C11 UNL     1     -21.698  55.680  -0.803  1.00  0.00    -0.022 A
HETATM    6  C12 UNL     1     -22.957  56.510  -0.588  1.00  0.00     0.068 C
HETATM    7  C13 UNL     1     -22.663  57.341   0.640  1.00  0.00     0.237 C
HETATM    8  N1  UNL     1     -21.629  58.314   0.402  1.00  0.00    -0.070 N
ATOM      9  H11 UNL     1     -21.124  58.512   1.266  1.00  0.00     0.277 HD
ATOM     10  H12 UNL     1     -22.038  59.231   0.224  1.00  0.00     0.277 HD
HETATM   11  C14 UNL     1     -20.713  57.968  -0.639  1.00  0.00     0.279 C
ENDROOT
BRANCH   2  12
HETATM   12  C4  UNL     1     -19.753  52.501  -1.370  1.00  0.00     0.027 C
HETATM   13  C5  UNL     1     -18.781  52.472  -2.487  1.00  0.00     0.010 C
HETATM   14  C6  UNL     1     -17.499  51.740  -2.168  1.00  0.00     0.001 C
HETATM   15  C7  UNL     1     -16.932  52.495  -0.964  1.00  0.00     0.000 C
HETATM   16  C8  UNL     1     -17.784  52.102   0.195  1.00  0.00     0.001 C
HETATM   17  C9  UNL     1     -19.242  51.998  -0.059  1.00  0.00     0.010 C
ENDBRANCH   2  12
BRANCH   1  18
HETATM   18  S1  UNL     1     -22.861  53.181  -0.977  1.00  0.00     0.047 S
HETATM   19  C1  UNL     1     -22.787  52.210   0.528  1.00  0.00     0.133 C
HETATM   20  O1  UNL     1     -22.794  52.141  -2.266  1.00  0.00    -0.253 OA
ENDBRANCH   1  18
TORSDOF 2
ENDMDL