MODEL 3
REMARK VINA RESULT: -7.935094442      1.803      5.282
REMARK  3 active torsions:
REMARK  status: ('A' for Active; 'I' for Inactive)
REMARK    1  A    between atoms: C2_2  and  C3_3
REMARK    2  A    between atoms: C3_3  and  C4_4
REMARK    3  A    between atoms: C13_15  and  O3_16
ROOT
HETATM    1  C4  UNL     1     -19.421  53.920   0.247  1.00  0.00     0.169 C
HETATM    2  C5  UNL     1     -19.207  55.252  -0.348  1.00  0.00     0.040 C
HETATM    3  C6  UNL     1     -19.795  56.423   0.408  1.00  0.00    -0.011 C
HETATM    4  C7  UNL     1     -20.650  57.245  -0.491  1.00  0.00     0.009 C
HETATM    5  C8  UNL     1     -22.011  57.630  -0.088  1.00  0.00    -0.013 C
HETATM    6  C9  UNL     1     -22.347  57.326   1.368  1.00  0.00     0.012 C
HETATM    7  C10 UNL     1     -21.892  55.888   1.466  1.00  0.00     0.027 C
HETATM    8  C11 UNL     1     -20.388  56.077   1.725  1.00  0.00     0.012 C
HETATM    9  C12 UNL     1     -22.055  54.994   0.370  1.00  0.00     0.132 A
HETATM   10  O1  UNL     1     -21.590  53.827   0.961  1.00  0.00    -0.226 OA
HETATM   11  O2  UNL     1     -20.646  53.363   0.179  1.00  0.00    -0.234 OA
HETATM   12  C13 UNL     1     -22.571  54.519  -0.868  1.00  0.00     0.163 A
HETATM   13  C14 UNL     1     -23.314  55.469  -0.162  1.00  0.00     0.059 A
HETATM   14  C15 UNL     1     -23.133  56.870  -0.782  1.00  0.00     0.015 C
ENDROOT
BRANCH   1  15
HETATM   15  C3  UNL     1     -18.514  52.965  -0.587  1.00  0.00    -0.011 A
HETATM   16  C16 UNL     1     -17.335  52.387   0.152  1.00  0.00     0.013 A
HETATM   17  C17 UNL     1     -18.500  51.542  -0.254  1.00  0.00     0.013 A
BRANCH  15  18
HETATM   18  C2  UNL     1     -18.293  53.376  -2.004  1.00  0.00     0.007 C
HETATM   19  C1  UNL     1     -19.127  52.580  -2.961  1.00  0.00     0.006 C
ENDBRANCH  15  18
ENDBRANCH   1  15
BRANCH  12  20
HETATM   20  O3  UNL     1     -23.250  53.283  -1.060  1.00  0.00    -0.392 OA
ATOM     21  H3  UNL     1     -22.880  52.421  -0.910  1.00  0.00     0.210 HD
ENDBRANCH  12  20
TORSDOF 3
ENDMDL