MODEL 5
REMARK VINA RESULT: -7.461985159      3.452      5.568
REMARK  3 active torsions:
REMARK  status: ('A' for Active; 'I' for Inactive)
REMARK    1  A    between atoms: O1_2  and  C2_3
REMARK       I    between atoms: C2_3  and  N1_5
REMARK    2  A    between atoms: N1_5  and  C3_7
REMARK    3  A    between atoms: C9_13  and  S1_14
ROOT
HETATM    1  C3  UNL     1     -20.632  54.482   0.912  1.00  0.00     0.046 C
HETATM    2  C4  UNL     1     -21.510  54.251  -0.267  1.00  0.00     0.036 C
HETATM    3  C5  UNL     1     -21.231  52.837  -0.728  1.00  0.00    -0.010 C
HETATM    4  C6  UNL     1     -21.249  52.151   0.637  1.00  0.00     0.012 C
HETATM    5  C7  UNL     1     -20.264  53.054   1.356  1.00  0.00     0.016 C
HETATM    6  C8  UNL     1     -18.914  52.604   0.893  1.00  0.00     0.027 C
HETATM    7  C9  UNL     1     -18.731  53.155  -0.505  1.00  0.00     0.009 C
HETATM    8  C11 UNL     1     -19.896  52.831  -1.388  1.00  0.00     0.025 C
HETATM    9  C12 UNL     1     -18.486  54.630  -0.338  1.00  0.00     0.031 C
HETATM   10  C13 UNL     1     -19.401  55.266   0.707  1.00  0.00    -0.020 C
HETATM   11  C14 UNL     1     -18.682  55.345   2.070  1.00  0.00     0.017 C
HETATM   12  C15 UNL     1     -19.558  56.685   0.275  1.00  0.00     0.017 C
ENDROOT
BRANCH   1  13
HETATM   13  N1  UNL     1     -21.450  55.032   1.976  1.00  0.00    -0.327 N
HETATM   14  C2  UNL     1     -22.542  55.907   1.844  1.00  0.00     0.360 C
HETATM   15  O2  UNL     1     -23.006  56.352   0.763  1.00  0.00    -0.239 OA
ATOM     16  H1  UNL     1     -21.206  54.752   2.926  1.00  0.00     0.165 HD
BRANCH  14  17
HETATM   17  O1  UNL     1     -23.243  56.379   2.981  1.00  0.00    -0.309 OA
HETATM   18  C1  UNL     1     -22.560  56.963   4.071  1.00  0.00     0.215 C
ENDBRANCH  14  17
ENDBRANCH   1  13
BRANCH   7  19
HETATM   19  S1  UNL     1     -17.271  52.338  -1.222  1.00  0.00    -0.163 SA
HETATM   20  C10 UNL     1     -17.692  51.908  -2.945  1.00  0.00     0.090 C
ENDBRANCH   7  19
TORSDOF 3
ENDMDL