MODEL 5
REMARK VINA RESULT: -7.776279581      2.551      6.205
REMARK  3 active torsions:
REMARK  status: ('A' for Active; 'I' for Inactive)
REMARK    1  A    between atoms: O1_1  and  C1_3
REMARK    2  A    between atoms: N1_7  and  C5_8
REMARK    3  A    between atoms: C6_9  and  C7_10
ROOT
HETATM    1  C5  UNL     1     -19.930  55.620   0.351  1.00  0.00     0.046 A
HETATM    2  C6  UNL     1     -18.548  55.747   0.503  1.00  0.00    -0.011 A
HETATM    3  C10 UNL     1     -17.648  54.792   0.113  1.00  0.00     0.097 A
HETATM    4  N2  UNL     1     -18.095  53.653  -0.443  1.00  0.00    -0.368 N
ATOM      5  H2  UNL     1     -17.445  52.926  -0.741  1.00  0.00     0.165 HD
HETATM    6  C11 UNL     1     -19.434  53.497  -0.595  1.00  0.00     0.017 A
HETATM    7  C12 UNL     1     -20.327  54.454  -0.206  1.00  0.00    -0.008 A
HETATM    8  C13 UNL     1     -21.813  54.253  -0.234  1.00  0.00     0.043 C
HETATM    9  C14 UNL     1     -22.016  53.186   0.837  1.00  0.00     0.005 C
HETATM   10  C15 UNL     1     -21.786  51.816   0.297  1.00  0.00     0.001 C
HETATM   11  C16 UNL     1     -20.371  51.400   0.097  1.00  0.00     0.006 C
HETATM   12  C17 UNL     1     -19.754  52.108  -1.138  1.00  0.00     0.057 C
ENDROOT
BRANCH   1  13
HETATM   13  N1  UNL     1     -20.849  56.624   0.759  1.00  0.00    -0.377 N
HETATM   14  C4  UNL     1     -21.222  56.560   2.169  1.00  0.00     0.123 C
HETATM   15  C3  UNL     1     -22.559  57.107   2.462  1.00  0.00     0.022 C
HETATM   16  C2  UNL     1     -22.989  58.284   1.636  1.00  0.00     0.035 C
HETATM   17  C1  UNL     1     -22.764  58.084   0.163  1.00  0.00     0.136 C
HETATM   18  C18 UNL     1     -21.368  57.658  -0.126  1.00  0.00     0.154 C
BRANCH  17  19
HETATM   19  O1  UNL     1     -23.738  57.322  -0.451  1.00  0.00    -0.394 OA
ATOM     20  H1  UNL     1     -23.417  56.498  -0.799  1.00  0.00     0.210 HD
ENDBRANCH  17  19
ENDBRANCH   1  13
BRANCH   2  21
HETATM   21  C7  UNL     1     -18.066  56.986   1.173  1.00  0.00     0.022 A
HETATM   22  C8  UNL     1     -17.770  56.679   2.675  1.00  0.00     0.010 A
HETATM   23  C9  UNL     1     -16.677  56.983   1.755  1.00  0.00     0.010 A
ENDBRANCH   2  21
TORSDOF 3
ENDMDL