MODEL 1
REMARK VINA RESULT: -7.443420984      0.000      0.000
REMARK  5 active torsions:
REMARK  status: ('A' for Active; 'I' for Inactive)
REMARK    1  A    between atoms: C2_2  and  N1_4
REMARK    2  A    between atoms: N1_4  and  C4_6
REMARK    3  A    between atoms: C4_6  and  C7_9
REMARK       I    between atoms: N2_12  and  C10_13
REMARK    4  A    between atoms: C10_13  and  O2_15
REMARK    5  A    between atoms: O2_15  and  C11_16
ROOT
HETATM    1  C7  UNL     1     -20.083  52.252  -0.613  1.00  0.00     0.015 C
HETATM    2  C8  UNL     1     -20.278  53.431  -1.527  1.00  0.00     0.027 C
HETATM    3  C9  UNL     1     -20.739  52.839  -2.843  1.00  0.00     0.128 C
HETATM    4  N2  UNL     1     -22.002  52.176  -2.595  1.00  0.00    -0.328 N
HETATM    5  C10 UNL     1     -22.868  52.052  -3.718  1.00  0.00     0.363 C
HETATM    6  O1  UNL     1     -23.968  51.491  -3.553  1.00  0.00    -0.238 OA
HETATM    7  C15 UNL     1     -22.374  51.671  -1.308  1.00  0.00     0.128 C
HETATM    8  C16 UNL     1     -21.427  51.764  -0.193  1.00  0.00     0.027 C
ENDROOT
BRANCH   1   9
HETATM    9  C4  UNL     1     -19.215  52.631   0.598  1.00  0.00     0.022 C
HETATM   10  C5  UNL     1     -17.808  52.076   0.281  1.00  0.00     0.038 C
HETATM   11  C6  UNL     1     -19.745  51.836   1.747  1.00  0.00     0.038 C
BRANCH   9  12
HETATM   12  N1  UNL     1     -19.092  54.020   0.721  1.00  0.00    -0.410 N
ATOM     13  H1  UNL     1     -18.673  54.561  -0.035  1.00  0.00     0.154 HD
BRANCH  12  14
HETATM   14  C2  UNL     1     -19.542  54.671   1.876  1.00  0.00     0.069 C
HETATM   15  C1  UNL     1     -20.865  55.376   1.735  1.00  0.00     0.031 C
HETATM   16  C3  UNL     1     -18.492  55.669   2.411  1.00  0.00     0.031 C
ENDBRANCH  12  14
ENDBRANCH   9  12
ENDBRANCH   1   9
BRANCH   5  17
HETATM   17  O2  UNL     1     -22.531  52.521  -4.937  1.00  0.00    -0.294 OA
BRANCH  17  18
HETATM   18  C11 UNL     1     -22.192  51.776  -6.068  1.00  0.00     0.061 C
HETATM   19  C12 UNL     1     -22.545  52.589  -7.294  1.00  0.00     0.046 C
HETATM   20  C13 UNL     1     -20.692  51.534  -6.117  1.00  0.00     0.046 C
HETATM   21  C14 UNL     1     -22.868  50.445  -6.178  1.00  0.00     0.046 C
ENDBRANCH  17  18
ENDBRANCH   5  17
TORSDOF 5
ENDMDL