MODEL 3
REMARK VINA RESULT: -8.066912885      3.566      6.050
REMARK  7 active torsions:
REMARK  status: ('A' for Active; 'I' for Inactive)
REMARK    1  A    between atoms: C6_9  and  C7_10
REMARK    2  A    between atoms: C7_10  and  C8_11
REMARK    3  A    between atoms: C8_11  and  O2_12
REMARK    4  A    between atoms: C8_11  and  C9_14
REMARK    5  A    between atoms: C9_14  and  C10_15
REMARK    6  A    between atoms: C16_23  and  C17_24
REMARK    7  A    between atoms: C17_24  and  S1_25
ROOT
HETATM    1  C1  UNL     1      47.917   9.111   8.603  1.00  0.00     0.015 C
HETATM    2  C2  UNL     1      47.530  10.236   8.809  1.00  0.00    -0.085 C
HETATM    3  C3  UNL     1      47.025  11.615   9.059  1.00  0.00     0.105 C
HETATM    4  C4  UNL     1      45.616  11.646   8.596  1.00  0.00     0.054 C
HETATM    5  N1  UNL     1      47.170  11.782  10.517  1.00  0.00    -0.336 N
ATOM      6  H1  UNL     1      47.185  10.962  11.122  1.00  0.00     0.164 HD
HETATM    7  C5  UNL     1      47.291  13.119  11.100  1.00  0.00     0.249 C
HETATM    8  O1  UNL     1      47.929  12.991  12.188  1.00  0.00    -0.268 OA
HETATM    9  C6  UNL     1      46.792  14.336  10.549  1.00  0.00     0.014 C
HETATM   10  C16 UNL     1      47.748  14.886   9.435  1.00  0.00     0.043 C
HETATM   11  C19 UNL     1      47.745  13.959   8.242  1.00  0.00     0.009 C
HETATM   12  C20 UNL     1      48.920  14.369   7.314  1.00  0.00     0.012 C
HETATM   13  C21 UNL     1      47.965  12.536   8.409  1.00  0.00     0.102 C
HETATM   14 BR1  UNL     1      49.686  12.317   9.333  1.00  0.00    -0.087 Br
ENDROOT
BRANCH   9  15
HETATM   15  C7  UNL     1      46.044  15.278  11.314  1.00  0.00     0.018 C
BRANCH  15  16
HETATM   16  C8  UNL     1      46.095  15.708  12.711  1.00  0.00     0.146 C
BRANCH  16  17
HETATM   17  O2  UNL     1      47.287  16.534  12.892  1.00  0.00    -0.391 OA
ATOM     18  H2  UNL     1      47.488  16.567  13.820  1.00  0.00     0.210 HD
ENDBRANCH  16  17
BRANCH  16  19
HETATM   19  C9  UNL     1      45.095  16.787  13.150  1.00  0.00     0.076 C
BRANCH  19  20
HETATM   20  C10 UNL     1      44.134  16.263  14.134  1.00  0.00    -0.034 A
HETATM   21  C11 UNL     1      44.521  16.406  15.489  1.00  0.00     0.095 A
HETATM   22  N2  UNL     1      43.677  16.024  16.448  1.00  0.00    -0.375 N
HETATM   23  C12 UNL     1      42.463  15.503  16.168  1.00  0.00     0.088 A
ATOM     24  H2  UNL     1      43.957  16.128  17.423  1.00  0.00     0.164 HD
HETATM   25  C13 UNL     1      42.044  15.344  14.884  1.00  0.00     0.024 A
HETATM   26  C14 UNL     1      42.927  15.742  13.849  1.00  0.00    -0.053 A
HETATM   27  C15 UNL     1      42.417  15.457  12.455  1.00  0.00     0.049 C
ENDBRANCH  19  20
ENDBRANCH  16  19
ENDBRANCH  15  16
ENDBRANCH   9  15
BRANCH  10  28
HETATM   28  C17 UNL     1      47.138  16.209   9.164  1.00  0.00     0.150 C
BRANCH  28  29
HETATM   29  S1  UNL     1      47.862  17.726   9.501  1.00  0.00     0.141 S
HETATM   30  C18 UNL     1      49.501  17.337  10.223  1.00  0.00     0.161 C
HETATM   31  O3  UNL     1      48.252  18.579   8.354  1.00  0.00    -0.228 OA
HETATM   32  O4  UNL     1      47.277  18.496  10.670  1.00  0.00    -0.228 OA
ENDBRANCH  28  29
ENDBRANCH  10  28
TORSDOF 7
ENDMDL