MODEL 5
REMARK VINA RESULT: -7.765060688      7.533     10.640
REMARK  11 active torsions:
REMARK  status: ('A' for Active; 'I' for Inactive)
REMARK    1  A    between atoms: O1_2  and  C2_3
REMARK    2  A    between atoms: C2_3  and  C3_5
REMARK    3  A    between atoms: C5_7  and  C6_8
REMARK    4  A    between atoms: C6_8  and  N1_14
REMARK    5  A    between atoms: C7_9  and  C8_10
REMARK    6  A    between atoms: C9_11  and  C10_12
REMARK    7  A    between atoms: N1_14  and  C11_16
REMARK    8  A    between atoms: C11_16  and  C12_17
REMARK       I    between atoms: C12_17  and  N2_19
REMARK    9  A    between atoms: N2_19  and  C13_21
REMARK   10  A    between atoms: C18_26  and  C23_31
REMARK   11  A    between atoms: C23_31  and  O4_32
ROOT
HETATM    1  C6  UNL     1      46.163  12.001   8.972  1.00  0.00     0.010 C
HETATM    2  C7  UNL     1      46.519  10.975   8.262  1.00  0.00     0.025 C
ENDROOT
BRANCH   1   3
HETATM    3  C5  UNL     1      47.130  12.748   9.788  1.00  0.00     0.041 C
HETATM    4  C4  UNL     1      47.873  13.764   8.916  1.00  0.00     0.026 C
HETATM    5  C3  UNL     1      48.709  14.426  10.022  1.00  0.00     0.091 C
HETATM    6  C19 UNL     1      47.832  14.825  11.159  1.00  0.00     0.016 C
HETATM    7  C18 UNL     1      47.420  13.746  12.100  1.00  0.00     0.032 C
HETATM    8  C20 UNL     1      46.391  14.907  10.783  1.00  0.00    -0.017 A
HETATM    9  C17 UNL     1      46.527  13.402  10.990  1.00  0.00     0.013 C
HETATM   10  C21 UNL     1      46.240  15.666  12.159  1.00  0.00     0.038 A
HETATM   11  C22 UNL     1      45.375  14.865  11.858  1.00  0.00     0.038 A
HETATM   12  C23 UNL     1      46.442  14.508  12.977  1.00  0.00     0.072 A
BRANCH   5  13
HETATM   13  C2  UNL     1      49.428  15.539   9.406  1.00  0.00     0.263 C
HETATM   14  O2  UNL     1      48.873  16.597   9.012  1.00  0.00    -0.265 OA
BRANCH  13  15
HETATM   15  O1  UNL     1      50.820  15.484   9.216  1.00  0.00    -0.326 OA
HETATM   16  C1  UNL     1      51.491  14.230   9.111  1.00  0.00     0.213 C
ENDBRANCH  13  15
ENDBRANCH   5  13
BRANCH  12  17
HETATM   17  O4  UNL     1      45.891  14.060  14.086  1.00  0.00    -0.389 OA
ATOM     18  H4  UNL     1      45.004  14.236  14.376  1.00  0.00     0.210 HD
ENDBRANCH  12  17
ENDBRANCH   1   3
BRANCH   1  19
HETATM   19  N1  UNL     1      44.772  12.401   8.944  1.00  0.00    -0.384 N
ATOM     20  H1  UNL     1      44.512  13.324   8.595  1.00  0.00     0.160 HD
BRANCH  19  21
HETATM   21  C11 UNL     1      43.766  11.500   9.405  1.00  0.00     0.222 C
BRANCH  21  22
HETATM   22  C12 UNL     1      42.924  11.979  10.503  1.00  0.00     0.235 C
HETATM   23  O3  UNL     1      42.309  13.093  10.326  1.00  0.00    -0.272 OA
HETATM   24  N2  UNL     1      42.700  11.363  11.747  1.00  0.00    -0.352 N
ATOM     25  H2  UNL     1      43.164  10.475  11.940  1.00  0.00     0.163 HD
BRANCH  24  26
HETATM   26  C13 UNL     1      41.840  11.932  12.769  1.00  0.00     0.022 C
HETATM   27  C14 UNL     1      42.328  13.288  13.216  1.00  0.00     0.037 C
HETATM   28  C15 UNL     1      40.419  12.044  12.278  1.00  0.00     0.037 C
HETATM   29  C16 UNL     1      41.866  11.032  13.981  1.00  0.00     0.037 C
ENDBRANCH  24  26
ENDBRANCH  21  22
ENDBRANCH  19  21
ENDBRANCH   1  19
BRANCH   2  30
HETATM   30  C8  UNL     1      47.866  10.408   8.150  1.00  0.00    -0.001 C
HETATM   31  C9  UNL     1      48.073   9.300   7.435  1.00  0.00    -0.016 C
BRANCH  31  32
HETATM   32  C10 UNL     1      49.441   8.743   7.334  1.00  0.00     0.112 C
HETATM   33 BR1  UNL     1      50.703  10.100   7.920  1.00  0.00    -0.092 Br
ENDBRANCH  31  32
ENDBRANCH   2  30
TORSDOF 11
ENDMDL