MODEL 4
REMARK VINA RESULT: -8.211084924      7.953     10.364
REMARK  11 active torsions:
REMARK  status: ('A' for Active; 'I' for Inactive)
REMARK    1  A    between atoms: N1_2  and  S1_4
REMARK    2  A    between atoms: S1_4  and  N2_7
REMARK    3  A    between atoms: N3_10  and  C4_11
REMARK    4  A    between atoms: C4_11  and  O3_12
REMARK    5  A    between atoms: C4_11  and  C5_14
REMARK    6  A    between atoms: C5_14  and  C12_28
REMARK       I    between atoms: N4_15  and  C6_17
REMARK    7  A    between atoms: C6_17  and  C7_19
REMARK    8  A    between atoms: C7_19  and  N5_20
REMARK    9  A    between atoms: C7_19  and  C8_24
REMARK   10  A    between atoms: C8_24  and  C9_25
REMARK   11  A    between atoms: C18_35  and  O5_36
ROOT
HETATM    1  C4  UNL     1      47.445  13.765  12.012  1.00  0.00     0.162 C
ENDROOT
BRANCH   1   2
HETATM    2  N3  UNL     1      46.517  12.743  12.131  1.00  0.00    -0.351 N
HETATM    3  C3  UNL     1      45.125  12.901  12.268  1.00  0.00     0.112 C
HETATM    4  C2  UNL     1      44.619  12.500  13.661  1.00  0.00     0.135 C
HETATM    5  C19 UNL     1      44.290  11.943  11.424  1.00  0.00     0.019 C
HETATM    6  N2  UNL     1      43.190  12.497  13.463  1.00  0.00    -0.191 NA
HETATM    7  C21 UNL     1      42.943  12.041  12.134  1.00  0.00     0.123 C
HETATM    8  C18 UNL     1      44.788  10.551  11.515  1.00  0.00     0.165 C
HETATM    9  C20 UNL     1      44.162  12.446  10.003  1.00  0.00     0.021 C
HETATM   10  C17 UNL     1      46.277  10.435  11.271  1.00  0.00     0.217 C
HETATM   11  C16 UNL     1      47.066  11.366  12.130  1.00  0.00     0.165 C
HETATM   12  F1  UNL     1      46.631   9.142  11.626  1.00  0.00    -0.245 F
BRANCH   6  13
HETATM   13  S1  UNL     1      42.316  11.674  14.669  1.00  0.00     0.298 S
HETATM   14  O1  UNL     1      41.522  12.665  15.467  1.00  0.00    -0.188 OA
HETATM   15  O2  UNL     1      43.212  10.873  15.577  1.00  0.00    -0.188 OA
BRANCH  13  16
HETATM   16  N1  UNL     1      41.196  10.537  13.989  1.00  0.00    -0.311 N
HETATM   17  C1  UNL     1      40.509   9.791  15.036  1.00  0.00     0.160 C
ATOM     18  H1  UNL     1      41.039  10.408  12.989  1.00  0.00     0.172 HD
ENDBRANCH  13  16
ENDBRANCH   6  13
BRANCH   8  19
HETATM   19  O5  UNL     1      44.175   9.820  10.469  1.00  0.00    -0.392 OA
ATOM     20  H5  UNL     1      43.696  10.462   9.958  1.00  0.00     0.210 HD
ENDBRANCH   8  19
ENDBRANCH   1   2
BRANCH   1  21
HETATM   21  O3  UNL     1      47.791  14.316  13.145  1.00  0.00    -0.345 OA
ATOM     22  H3  UNL     1      48.694  14.162  13.397  1.00  0.00     0.219 HD
ENDBRANCH   1  21
BRANCH   1  23
HETATM   23  C5  UNL     1      48.098  14.331  10.827  1.00  0.00     0.070 C
HETATM   24  N4  UNL     1      48.964  13.750  10.203  1.00  0.00    -0.324 N
HETATM   25  C6  UNL     1      49.835  13.734   9.171  1.00  0.00     0.252 C
ATOM     26  H4  UNL     1      49.092  12.858  10.681  1.00  0.00     0.169 HD
HETATM   27  O4  UNL     1      50.925  14.410   9.280  1.00  0.00    -0.271 OA
BRANCH  25  28
HETATM   28  C7  UNL     1      49.657  12.987   7.880  1.00  0.00     0.275 C
BRANCH  28  29
HETATM   29  N5  UNL     1      49.531  13.872   6.764  1.00  0.00    -0.066 N
ATOM     30  H53 UNL     1      49.080  13.410   5.973  1.00  0.00     0.275 HD
ATOM     31  H52 UNL     1      48.837  14.598   6.942  1.00  0.00     0.275 HD
ATOM     32  H51 UNL     1      50.428  14.277   6.495  1.00  0.00     0.275 HD
ENDBRANCH  28  29
BRANCH  28  33
HETATM   33  C8  UNL     1      48.411  12.151   8.014  1.00  0.00     0.046 C
BRANCH  33  34
HETATM   34  C9  UNL     1      48.676  10.689   7.738  1.00  0.00    -0.020 C
HETATM   35  C10 UNL     1      49.560  10.050   8.762  1.00  0.00     0.009 C
HETATM   36  C11 UNL     1      47.392   9.910   7.645  1.00  0.00     0.009 C
ENDBRANCH  33  34
ENDBRANCH  28  33
ENDBRANCH  25  28
BRANCH  23  37
HETATM   37  C12 UNL     1      47.604  15.695  10.448  1.00  0.00    -0.004 C
HETATM   38  C13 UNL     1      47.277  15.740   8.958  1.00  0.00     0.021 C
HETATM   39  C14 UNL     1      48.788  16.664  10.633  1.00  0.00     0.021 C
HETATM   40  C15 UNL     1      46.406  16.167  11.193  1.00  0.00     0.021 C
ENDBRANCH  23  37
ENDBRANCH   1  23
TORSDOF 11
ENDMDL