MODEL 5
REMARK VINA RESULT: -7.762839601      5.368      7.584
REMARK  7 active torsions:
REMARK  status: ('A' for Active; 'I' for Inactive)
REMARK    1  A    between atoms: C4_4  and  N1_5
REMARK    2  A    between atoms: N1_5  and  C5_7
REMARK    3  A    between atoms: C5_7  and  C6_9
REMARK    4  A    between atoms: C6_9  and  N2_10
REMARK    5  A    between atoms: N2_10  and  C7_11
REMARK    6  A    between atoms: N2_10  and  S2_23
REMARK    7  A    between atoms: C7_11  and  C8_12
ROOT
HETATM    1  N2  UNL     1      44.385  12.172  11.270  1.00  0.00    -0.279 N
ENDROOT
BRANCH   1   2
HETATM    2  C6  UNL     1      45.071  11.042  11.729  1.00  0.00     0.145 C
BRANCH   2   3
HETATM    3  C5  UNL     1      45.899  10.270  10.803  1.00  0.00     0.117 C
HETATM    4  S1  UNL     1      46.374   8.803  11.325  1.00  0.00    -0.059 SA
BRANCH   3   5
HETATM    5  N1  UNL     1      46.303  10.738   9.570  1.00  0.00    -0.346 N
ATOM      6  H1  UNL     1      45.558  10.850   8.881  1.00  0.00     0.167 HD
BRANCH   5   7
HETATM    7  C4  UNL     1      47.592  11.084   9.123  1.00  0.00     0.034 A
HETATM    8  C3  UNL     1      48.152  12.337   9.155  1.00  0.00     0.037 A
HETATM    9  C2  UNL     1      49.433  12.620   8.664  1.00  0.00    -0.042 A
HETATM   10  C1  UNL     1      49.967  14.018   8.737  1.00  0.00     0.049 C
HETATM   11  C17 UNL     1      50.176  11.594   8.121  1.00  0.00     0.022 A
HETATM   12  C15 UNL     1      49.663  10.316   8.065  1.00  0.00    -0.042 A
HETATM   13 BR1  UNL     1      51.928  11.989   7.453  1.00  0.00    -0.050 Br
HETATM   14  C14 UNL     1      48.424  10.095   8.550  1.00  0.00     0.037 A
HETATM   15  C16 UNL     1      50.505   9.249   7.472  1.00  0.00     0.049 C
ENDBRANCH   5   7
ENDBRANCH   3   5
ENDBRANCH   2   3
ENDBRANCH   1   2
BRANCH   1  16
HETATM   16  C7  UNL     1      45.046  13.413  11.150  1.00  0.00     0.187 C
BRANCH  16  17
HETATM   17  C8  UNL     1      45.104  14.223  12.388  1.00  0.00     0.051 A
HETATM   18  C9  UNL     1      46.333  14.320  13.039  1.00  0.00     0.023 A
HETATM   19  C10 UNL     1      47.508  13.629  12.456  1.00  0.00     0.069 C
HETATM   20  N3  UNL     1      46.415  15.035  14.171  1.00  0.00    -0.312 N
HETATM   21  C11 UNL     1      45.336  15.653  14.678  1.00  0.00     0.327 A
ATOM     22  H3  UNL     1      47.311  15.111  14.653  1.00  0.00     0.170 HD
HETATM   23  O1  UNL     1      45.451  16.324  15.755  1.00  0.00    -0.247 OA
HETATM   24  N4  UNL     1      44.165  15.554  14.051  1.00  0.00    -0.275 N
HETATM   25  C12 UNL     1      43.998  14.845  12.892  1.00  0.00     0.259 A
ATOM     26  H4  UNL     1      43.356  16.029  14.452  1.00  0.00     0.173 HD
HETATM   27  O2  UNL     1      42.888  14.785  12.351  1.00  0.00    -0.267 OA
ENDBRANCH  16  17
ENDBRANCH   1  16
BRANCH   1  28
HETATM   28  S2  UNL     1      43.253  11.865  10.018  1.00  0.00     0.228 S
HETATM   29  C13 UNL     1      42.553  10.246  10.176  1.00  0.00     0.186 C
HETATM   30  O3  UNL     1      43.855  11.986   8.650  1.00  0.00    -0.206 OA
HETATM   31  O4  UNL     1      42.142  12.865  10.127  1.00  0.00    -0.206 OA
ENDBRANCH   1  28
TORSDOF 7
ENDMDL