MODEL 3
REMARK VINA RESULT: -7.516521359      1.194      1.539
REMARK  6 active torsions:
REMARK  status: ('A' for Active; 'I' for Inactive)
REMARK    1  A    between atoms: C2_2  and  C3_3
REMARK    2  A    between atoms: C3_3  and  C5_5
REMARK    3  A    between atoms: C7_10  and  C8_11
REMARK    4  A    between atoms: C8_11  and  S1_12
REMARK    5  A    between atoms: C18_27  and  C19_28
REMARK    6  A    between atoms: C19_28  and  N3_29
ROOT
HETATM    1  C5  UNL     1      47.520  10.909   9.904  1.00  0.00     0.180 C
HETATM    2  N1  UNL     1      46.780  10.685  11.101  1.00  0.00    -0.346 N
ATOM      3  H1  UNL     1      47.338  10.273  11.849  1.00  0.00     0.163 HD
HETATM    4  C6  UNL     1      45.461  10.911  11.462  1.00  0.00     0.241 C
HETATM    5  O1  UNL     1      44.764   9.891  11.831  1.00  0.00    -0.271 OA
HETATM    6  C7  UNL     1      44.658  12.154  11.507  1.00  0.00     0.185 C
HETATM    7  N2  UNL     1      44.411  12.586  12.881  1.00  0.00    -0.347 N
ATOM      8  H2  UNL     1      44.139  11.889  13.575  1.00  0.00     0.163 HD
HETATM    9  C10 UNL     1      44.537  13.942  13.286  1.00  0.00     0.218 C
HETATM   10  O2  UNL     1      43.928  14.385  14.297  1.00  0.00    -0.274 OA
HETATM   11  C11 UNL     1      45.413  14.816  12.474  1.00  0.00     0.103 C
HETATM   12  C12 UNL     1      45.588  16.176  13.101  1.00  0.00     0.009 C
HETATM   13  C13 UNL     1      46.749  16.897  12.447  1.00  0.00     0.002 C
HETATM   14  C14 UNL     1      46.846  16.541  10.993  1.00  0.00     0.020 C
HETATM   15  C15 UNL     1      48.100  17.168  10.424  1.00  0.00     0.089 C
HETATM   16 CL1  UNL     1      47.745  17.854   8.836  1.00  0.00    -0.125 Cl
HETATM   17  C16 UNL     1      49.200  16.147  10.305  1.00  0.00     0.101 C
HETATM   18  C17 UNL     1      48.870  15.178   9.269  1.00  0.00     0.152 C
HETATM   19  O3  UNL     1      48.576  15.564   8.149  1.00  0.00    -0.296 OA
HETATM   20  C18 UNL     1      48.849  13.682   9.439  1.00  0.00     0.182 C
HETATM   21  N4  UNL     1      47.734  13.162   8.685  1.00  0.00    -0.346 N
ATOM     22  H4  UNL     1      47.438  13.686   7.861  1.00  0.00     0.163 HD
HETATM   23  C22 UNL     1      47.015  11.973   9.003  1.00  0.00     0.241 C
HETATM   24  O4  UNL     1      45.881  11.885   8.441  1.00  0.00    -0.271 OA
ENDROOT
BRANCH   1  25
HETATM   25  C3  UNL     1      47.834   9.652   9.131  1.00  0.00     0.013 C
HETATM   26  C4  UNL     1      47.500   9.800   7.646  1.00  0.00     0.012 C
BRANCH  25  27
HETATM   27  C2  UNL     1      47.103   8.436   9.584  1.00  0.00     0.002 C
HETATM   28  C1  UNL     1      47.872   7.541  10.518  1.00  0.00     0.005 C
ENDBRANCH  25  27
ENDBRANCH   1  25
BRANCH   6  29
HETATM   29  C8  UNL     1      43.270  11.861  10.940  1.00  0.00     0.108 C
BRANCH  29  30
HETATM   30  S1  UNL     1      41.954  12.151  12.111  1.00  0.00    -0.171 SA
HETATM   31  C9  UNL     1      41.117  10.542  12.375  1.00  0.00     0.089 C
ENDBRANCH  29  30
ENDBRANCH   6  29
BRANCH  20  32
HETATM   32  C19 UNL     1      50.180  13.221   8.847  1.00  0.00     0.304 C
BRANCH  32  33
HETATM   33  N3  UNL     1      49.970  12.318   7.730  1.00  0.00     0.082 N
HETATM   34  C20 UNL     1      50.122  13.020   6.446  1.00  0.00     0.309 C
HETATM   35  C21 UNL     1      50.943  11.252   7.708  1.00  0.00     0.309 C
ENDBRANCH  32  33
ENDBRANCH  20  32
TORSDOF 6
ENDMDL