MODEL 4
REMARK VINA RESULT: -7.802111563      1.887      2.292
REMARK  7 active torsions:
REMARK  status: ('A' for Active; 'I' for Inactive)
REMARK    1  A    between atoms: C2_2  and  C3_3
REMARK    2  A    between atoms: C3_3  and  C4_4
REMARK    3  A    between atoms: C7_10  and  C8_11
REMARK    4  A    between atoms: C14_20  and  O3_21
REMARK    5  A    between atoms: C15_25  and  C16_26
REMARK    6  A    between atoms: C16_26  and  C17_27
REMARK    7  A    between atoms: C20_30  and  O4_31
ROOT
HETATM    1  C4  UNL     1      44.973  11.638  11.237  1.00  0.00     0.000 C
HETATM    2  C5  UNL     1      43.667  11.920  11.867  1.00  0.00     0.155 C
HETATM    3  C6  UNL     1      42.698  12.758  11.202  1.00  0.00     0.223 C
HETATM    4  O1  UNL     1      42.666  12.878   9.960  1.00  0.00    -0.273 OA
HETATM    5  N1  UNL     1      41.728  13.488  11.934  1.00  0.00    -0.347 N
ATOM      6  H1  UNL     1      40.760  13.459  11.614  1.00  0.00     0.163 HD
HETATM    7  C7  UNL     1      42.040  14.282  13.126  1.00  0.00     0.180 C
HETATM    8  C11 UNL     1      42.456  15.623  12.708  1.00  0.00     0.241 C
HETATM    9  O2  UNL     1      42.022  16.004  11.553  1.00  0.00    -0.271 OA
HETATM   10  N2  UNL     1      43.252  16.558  13.371  1.00  0.00    -0.348 N
ATOM     11  H2  UNL     1      42.873  17.505  13.392  1.00  0.00     0.163 HD
HETATM   12  C12 UNL     1      44.514  16.403  14.027  1.00  0.00     0.155 C
HETATM   13  C13 UNL     1      44.571  15.274  15.039  1.00  0.00     0.041 C
HETATM   14  C14 UNL     1      45.711  16.458  13.149  1.00  0.00     0.135 C
HETATM   15  N3  UNL     1      45.917  16.116  11.828  1.00  0.00    -0.359 N
ATOM     16  H3  UNL     1      46.098  16.929  11.239  1.00  0.00     0.162 HD
HETATM   17  C15 UNL     1      45.936  14.879  11.086  1.00  0.00     0.180 C
HETATM   18  C24 UNL     1      46.375  13.702  11.857  1.00  0.00     0.246 C
HETATM   19  O5  UNL     1      47.156  14.061  12.821  1.00  0.00    -0.271 OA
HETATM   20  N4  UNL     1      46.118  12.360  11.743  1.00  0.00    -0.328 N
HETATM   21  C25 UNL     1      47.233  11.467  12.228  1.00  0.00     0.159 C
ENDROOT
BRANCH  17  22
HETATM   22  C16 UNL     1      46.791  15.002   9.804  1.00  0.00     0.073 C
BRANCH  22  23
HETATM   23  C17 UNL     1      47.530  16.235   9.675  1.00  0.00    -0.053 A
HETATM   24  C18 UNL     1      48.596  16.552  10.531  1.00  0.00     0.010 A
HETATM   25  C19 UNL     1      49.289  17.731  10.373  1.00  0.00     0.040 A
HETATM   26  C20 UNL     1      48.970  18.629   9.391  1.00  0.00     0.106 A
HETATM   27  C22 UNL     1      47.926  18.330   8.545  1.00  0.00     0.150 A
HETATM   28  F1  UNL     1      47.604  19.229   7.559  1.00  0.00    -0.203 F
HETATM   29  C23 UNL     1      47.236  17.154   8.702  1.00  0.00     0.052 A
BRANCH  26  30
HETATM   30  O4  UNL     1      49.674  19.821   9.238  1.00  0.00    -0.353 OA
HETATM   31  C21 UNL     1      49.061  21.011   9.644  1.00  0.00     0.210 C
ENDBRANCH  26  30
ENDBRANCH  22  23
ENDBRANCH  17  22
BRANCH  14  32
HETATM   32  O3  UNL     1      46.752  16.927  13.779  1.00  0.00    -0.348 OA
ATOM     33  H3  UNL     1      47.128  16.283  14.367  1.00  0.00     0.219 HD
ENDBRANCH  14  32
BRANCH   1  34
HETATM   34  C3  UNL     1      45.010  11.430   9.748  1.00  0.00     0.053 C
BRANCH  34  35
HETATM   35  C2  UNL     1      46.176  10.599   9.273  1.00  0.00     0.001 C
HETATM   36  C1  UNL     1      47.069  11.436   8.386  1.00  0.00     0.005 C
ENDBRANCH  34  35
ENDBRANCH   1  34
BRANCH   7  37
HETATM   37  C8  UNL     1      40.794  14.273  13.983  1.00  0.00     0.009 C
HETATM   38  C9  UNL     1      41.238  13.769  15.363  1.00  0.00     0.012 C
HETATM   39  C10 UNL     1      39.705  13.406  13.457  1.00  0.00     0.012 C
ENDBRANCH   7  37
TORSDOF 7
ENDMDL