MODEL 3
REMARK VINA RESULT: -8.767639758      3.957      7.670
REMARK  8 active torsions:
REMARK  status: ('A' for Active; 'I' for Inactive)
REMARK    1  A    between atoms: C2_2  and  S1_3
REMARK    2  A    between atoms: S1_3  and  N1_6
REMARK    3  A    between atoms: N1_6  and  C3_8
REMARK    4  A    between atoms: C3_8  and  C4_9
REMARK    5  A    between atoms: C5_10  and  C6_11
REMARK    6  A    between atoms: C6_11  and  O3_12
REMARK    7  A    between atoms: C13_19  and  C14_20
REMARK    8  A    between atoms: C19_27  and  C20_29
ROOT
HETATM    1  C6  UNL     1      45.354  11.345  10.594  1.00  0.00     0.131 C
HETATM    2  C8  UNL     1      45.103  11.717   9.091  1.00  0.00     0.053 C
HETATM    3  C9  UNL     1      46.282  12.692   8.867  1.00  0.00     0.010 C
HETATM    4  C10 UNL     1      46.068  13.536  10.075  1.00  0.00     0.003 C
HETATM    5  C11 UNL     1      47.060  14.595  10.353  1.00  0.00     0.004 A
HETATM    6  C12 UNL     1      46.763  15.855   9.603  1.00  0.00     0.008 A
HETATM    7  C13 UNL     1      47.895  16.607   8.999  1.00  0.00     0.080 C
HETATM    8  C15 UNL     1      47.963  17.908   9.763  1.00  0.00     0.014 C
HETATM    9  C16 UNL     1      47.541  17.546  11.151  1.00  0.00     0.006 C
HETATM   10  C17 UNL     1      46.451  16.526  10.932  1.00  0.00    -0.001 A
HETATM   11  C18 UNL     1      46.686  15.243  11.666  1.00  0.00     0.044 A
HETATM   12  C19 UNL     1      45.468  14.705  12.321  1.00  0.00     0.186 C
HETATM   13  F1  UNL     1      44.286  15.307  11.859  1.00  0.00    -0.233 F
HETATM   14  C21 UNL     1      45.353  13.193  12.338  1.00  0.00     0.067 C
HETATM   15  C22 UNL     1      46.028  12.495  11.206  1.00  0.00     0.006 C
HETATM   16  C23 UNL     1      47.454  12.197  11.645  1.00  0.00     0.020 C
ENDROOT
BRANCH   1  17
HETATM   17  C5  UNL     1      46.290  10.171  10.552  1.00  0.00    -0.066 C
HETATM   18  C4  UNL     1      47.034   9.224  10.494  1.00  0.00    -0.083 C
BRANCH  18  19
HETATM   19  C3  UNL     1      47.948   8.082  10.406  1.00  0.00     0.225 C
BRANCH  19  20
HETATM   20  N1  UNL     1      49.154   8.509   9.764  1.00  0.00    -0.308 N
ATOM     21  H1  UNL     1      50.044   8.567  10.258  1.00  0.00     0.173 HD
BRANCH  20  22
HETATM   22  S1  UNL     1      48.999   8.912   8.129  1.00  0.00     0.227 S
HETATM   23  O1  UNL     1      47.896   8.084   7.531  1.00  0.00    -0.206 OA
HETATM   24  O2  UNL     1      50.263   8.537   7.411  1.00  0.00    -0.206 OA
BRANCH  22  25
HETATM   25  C2  UNL     1      48.652  10.600   7.807  1.00  0.00     0.158 C
HETATM   26  C1  UNL     1      49.671  11.535   8.419  1.00  0.00     0.023 C
ENDBRANCH  22  25
ENDBRANCH  20  22
ENDBRANCH  19  20
ENDBRANCH  18  19
ENDBRANCH   1  17
BRANCH   1  27
HETATM   27  O3  UNL     1      44.202  10.868  11.135  1.00  0.00    -0.371 OA
HETATM   28  C7  UNL     1      43.185  10.535  10.275  1.00  0.00     0.204 C
ENDBRANCH   1  27
BRANCH  12  29
HETATM   29  C20 UNL     1      45.552  15.129  13.769  1.00  0.00     0.271 C
HETATM   30  N3  UNL     1      45.616  16.503  14.135  1.00  0.00    -0.059 NA
HETATM   31  O5  UNL     1      45.570  14.292  14.701  1.00  0.00    -0.273 OA
ENDBRANCH  12  29
BRANCH   7  32
HETATM   32  C14 UNL     1      49.186  15.908   8.978  1.00  0.00     0.235 C
HETATM   33  N2  UNL     1      50.247  16.217   9.868  1.00  0.00    -0.062 NA
HETATM   34  O4  UNL     1      49.411  14.977   8.141  1.00  0.00    -0.276 OA
ENDBRANCH   7  32
TORSDOF 8
ENDMDL