MODEL 3
REMARK VINA RESULT: -9.215460213      3.252      4.704
REMARK  7 active torsions:
REMARK  status: ('A' for Active; 'I' for Inactive)
REMARK    1  A    between atoms: C1_2  and  C2_3
REMARK       I    between atoms: C1_2  and  N5_26
REMARK    2  A    between atoms: C2_3  and  N1_4
REMARK    3  A    between atoms: C5_9  and  N3_10
REMARK    4  A    between atoms: N3_10  and  S1_12
REMARK    5  A    between atoms: S1_12  and  N4_15
REMARK    6  A    between atoms: N4_15  and  C6_17
REMARK    7  A    between atoms: N5_26  and  C13_28
ROOT
HETATM    1  N1  UNL     1      46.398  14.990  11.719  1.00  0.00    -0.175 N
HETATM    2  C3  UNL     1      46.932  15.778  10.742  1.00  0.00     0.055 A
HETATM    3  C4  UNL     1      47.405  16.904  11.346  1.00  0.00     0.052 A
HETATM    4  N2  UNL     1      47.150  16.775  12.660  1.00  0.00    -0.193 N
ATOM      5  H2  UNL     1      47.390  17.467  13.370  1.00  0.00     0.184 HD
HETATM    6  C5  UNL     1      46.533  15.606  12.907  1.00  0.00     0.696 A
HETATM    7  C10 UNL     1      48.013  17.823  10.318  1.00  0.00     0.097 C
HETATM    8  C11 UNL     1      48.404  16.796   9.247  1.00  0.00     0.181 C
HETATM    9  F1  UNL     1      49.472  16.087   9.741  1.00  0.00    -0.249 F
HETATM   10  C12 UNL     1      47.197  15.888   9.287  1.00  0.00     0.097 C
ENDROOT
BRANCH   1  11
HETATM   11  C2  UNL     1      45.798  13.701  11.432  1.00  0.00     0.250 C
BRANCH  11  12
HETATM   12  C1  UNL     1      46.818  12.638  11.332  1.00  0.00     0.236 C
HETATM   13  O1  UNL     1      47.247  12.120  12.386  1.00  0.00    -0.272 OA
HETATM   14  N5  UNL     1      47.281  12.236  10.062  1.00  0.00    -0.354 N
ATOM     15  H5  UNL     1      46.902  12.687   9.229  1.00  0.00     0.162 HD
BRANCH  14  16
HETATM   16  C13 UNL     1      48.284  11.195   9.908  1.00  0.00     0.092 C
HETATM   17  C14 UNL     1      47.624   9.864   9.758  1.00  0.00     0.009 C
HETATM   18  C15 UNL     1      48.710   8.808   9.759  1.00  0.00     0.011 C
HETATM   19  C19 UNL     1      46.828   9.781   8.488  1.00  0.00     0.011 C
HETATM   20  C16 UNL     1      49.583   9.039   8.566  1.00  0.00    -0.013 C
HETATM   21  C17 UNL     1      48.784   8.909   7.299  1.00  0.00     0.009 C
HETATM   22  C22 UNL     1      50.244  10.389   8.688  1.00  0.00     0.011 C
HETATM   23  C18 UNL     1      47.724   9.993   7.285  1.00  0.00    -0.013 C
HETATM   24  C20 UNL     1      48.350  11.361   7.433  1.00  0.00     0.011 C
HETATM   25  C21 UNL     1      49.140  11.452   8.698  1.00  0.00     0.009 C
ENDBRANCH  14  16
ENDBRANCH  11  12
ENDBRANCH   1  11
BRANCH   6  26
HETATM   26  N3  UNL     1      46.129  15.132  14.057  1.00  0.00    -0.099 N
ATOM     27  H3  UNL     1      46.759  14.553  14.613  1.00  0.00     0.199 HD
BRANCH  26  28
HETATM   28  S1  UNL     1      44.540  15.474  14.646  1.00  0.00     0.333 S
HETATM   29  O2  UNL     1      44.615  15.955  16.046  1.00  0.00    -0.182 OA
HETATM   30  O3  UNL     1      43.740  14.191  14.530  1.00  0.00    -0.182 OA
BRANCH  28  31
HETATM   31  N4  UNL     1      43.860  16.639  13.580  1.00  0.00    -0.295 N
ATOM     32  H4  UNL     1      43.712  16.466  12.585  1.00  0.00     0.174 HD
BRANCH  31  33
HETATM   33  C6  UNL     1      43.525  17.869  14.215  1.00  0.00     0.120 C
HETATM   34  C7  UNL     1      44.369  18.967  13.556  1.00  0.00     0.054 C
HETATM   35  C8  UNL     1      43.353  19.637  12.681  1.00  0.00     0.169 C
HETATM   36  O4  UNL     1      42.241  18.800  12.614  1.00  0.00    -0.389 OA
HETATM   37  C9  UNL     1      42.135  18.359  13.936  1.00  0.00     0.193 C
ENDBRANCH  31  33
ENDBRANCH  28  31
ENDBRANCH  26  28
ENDBRANCH   6  26
TORSDOF 7
ENDMDL