MODEL 1
REMARK VINA RESULT: -9.835229142      0.000      0.000
REMARK  7 active torsions:
REMARK  status: ('A' for Active; 'I' for Inactive)
REMARK    1  A    between atoms: N1_2  and  C3_4
REMARK    2  A    between atoms: C3_4  and  C4_5
REMARK    3  A    between atoms: C4_5  and  C5_6
REMARK    4  A    between atoms: C8_9  and  N2_10
REMARK       I    between atoms: N2_10  and  C9_12
REMARK    5  A    between atoms: C9_12  and  C10_14
REMARK    6  A    between atoms: C14_21  and  C15_22
REMARK       I    between atoms: C15_22  and  N4_24
REMARK    7  A    between atoms: N4_24  and  C16_26
ROOT
HETATM    1  C10 UNL     1      47.212  17.073   9.698  1.00  0.00     0.109 C
HETATM    2  C11 UNL     1      47.275  15.754   8.981  1.00  0.00     0.103 C
HETATM    3  N3  UNL     1      48.543  15.341   8.513  1.00  0.00    -0.364 N
ATOM      4  H3  UNL     1      49.125  16.019   8.022  1.00  0.00     0.162 HD
HETATM    5  C12 UNL     1      48.985  14.175   8.674  1.00  0.00     0.162 C
HETATM    6  F1  UNL     1      50.203  13.829   8.208  1.00  0.00    -0.192 F
HETATM    7  C13 UNL     1      48.169  13.180   9.382  1.00  0.00     0.104 C
HETATM    8  C14 UNL     1      47.454  13.807  10.592  1.00  0.00     0.092 C
HETATM    9  C21 UNL     1      46.815  15.113  10.257  1.00  0.00     0.031 C
HETATM   10  C22 UNL     1      47.229  16.317  11.000  1.00  0.00    -0.027 C
HETATM   11  C23 UNL     1      46.157  16.906  11.929  1.00  0.00     0.016 C
HETATM   12  C24 UNL     1      48.553  16.311  11.698  1.00  0.00     0.016 C
ENDROOT
BRANCH   1  13
HETATM   13  C9  UNL     1      48.306  18.002   9.468  1.00  0.00     0.225 C
HETATM   14  N2  UNL     1      48.044  19.365   9.206  1.00  0.00    -0.356 N
ATOM     15  H2  UNL     1      47.077  19.690   9.177  1.00  0.00     0.162 HD
HETATM   16  O1  UNL     1      49.493  17.610   9.499  1.00  0.00    -0.273 OA
BRANCH  14  17
HETATM   17  C8  UNL     1      49.132  20.329   8.972  1.00  0.00     0.084 C
HETATM   18  C7  UNL     1      49.053  20.739   7.532  1.00  0.00     0.025 C
HETATM   19  C6  UNL     1      48.988  22.248   7.378  1.00  0.00     0.007 C
HETATM   20  C5  UNL     1      47.668  22.649   8.051  1.00  0.00    -0.013 C
HETATM   21  C26 UNL     1      47.832  22.424   9.514  1.00  0.00     0.007 C
HETATM   22  C25 UNL     1      48.896  21.472   9.920  1.00  0.00     0.025 C
BRANCH  20  23
HETATM   23  C4  UNL     1      47.443  24.093   7.748  1.00  0.00     0.034 C
BRANCH  23  24
HETATM   24  C3  UNL     1      46.578  24.733   8.795  1.00  0.00     0.271 C
BRANCH  24  25
HETATM   25  N1  UNL     1      45.562  25.587   8.234  1.00  0.00     0.080 N
HETATM   26  C1  UNL     1      44.582  25.915   9.246  1.00  0.00     0.309 C
HETATM   27  C2  UNL     1      44.910  24.919   7.140  1.00  0.00     0.309 C
ENDBRANCH  24  25
ENDBRANCH  23  24
ENDBRANCH  20  23
ENDBRANCH  14  17
ENDBRANCH   1  13
BRANCH   8  28
HETATM   28  C15 UNL     1      46.397  12.842  10.968  1.00  0.00     0.223 C
HETATM   29  O2  UNL     1      46.631  11.597  10.856  1.00  0.00    -0.273 OA
HETATM   30  N4  UNL     1      45.121  13.242  11.454  1.00  0.00    -0.352 N
ATOM     31  H4  UNL     1      44.929  14.240  11.547  1.00  0.00     0.163 HD
BRANCH  30  32
HETATM   32  C16 UNL     1      44.095  12.319  11.817  1.00  0.00     0.141 C
HETATM   33  C17 UNL     1      44.115  11.927  13.291  1.00  0.00     0.195 C
HETATM   34  O3  UNL     1      42.849  11.426  13.474  1.00  0.00    -0.380 OA
HETATM   35  C18 UNL     1      41.948  12.139  12.728  1.00  0.00     0.179 C
HETATM   36  C19 UNL     1      41.446  11.450  11.473  1.00  0.00     0.266 C
HETATM   37  C20 UNL     1      42.725  13.011  11.760  1.00  0.00     0.240 C
HETATM   38  N5  UNL     1      41.893  12.597  10.668  1.00  0.00    -0.064 N
ATOM     39  H52 UNL     1      42.292  12.452   9.741  1.00  0.00     0.277 HD
ATOM     40  H51 UNL     1      41.213  13.241  10.266  1.00  0.00     0.277 HD
ENDBRANCH  30  32
ENDBRANCH   8  28
TORSDOF 7
ENDMDL