MODEL 5
REMARK VINA RESULT: -7.530826854      1.515      2.376
REMARK  6 active torsions:
REMARK  status: ('A' for Active; 'I' for Inactive)
REMARK    1  A    between atoms: C2_2  and  C3_3
REMARK    2  A    between atoms: C3_3  and  C4_4
REMARK    3  A    between atoms: C4_4  and  C5_5
REMARK    4  A    between atoms: C18_29  and  C19_30
REMARK    5  A    between atoms: C19_30  and  C20_31
REMARK    6  A    between atoms: C20_31  and  C21_32
ROOT
HETATM    1  C5  UNL     1      48.452  15.501  10.731  1.00  0.00     0.176 C
HETATM    2  N1  UNL     1      47.910  16.434  11.684  1.00  0.00    -0.348 N
ATOM      3  H1  UNL     1      48.586  16.856  12.322  1.00  0.00     0.163 HD
HETATM    4  C6  UNL     1      46.572  16.843  11.856  1.00  0.00     0.218 C
HETATM    5  O1  UNL     1      46.274  18.071  11.879  1.00  0.00    -0.274 OA
HETATM    6  C7  UNL     1      45.392  15.959  12.021  1.00  0.00     0.104 C
HETATM    7  C8  UNL     1      44.274  16.624  12.785  1.00  0.00     0.027 C
HETATM    8  C9  UNL     1      43.571  15.748  13.773  1.00  0.00     0.034 C
HETATM    9  C10 UNL     1      44.480  15.173  14.814  1.00  0.00     0.025 C
HETATM   10  C11 UNL     1      42.617  16.685  14.545  1.00  0.00     0.025 C
HETATM   11  C12 UNL     1      42.670  14.756  13.140  1.00  0.00     0.232 C
HETATM   12  O2  UNL     1      42.204  15.131  12.001  1.00  0.00    -0.272 OA
HETATM   13  N2  UNL     1      42.285  13.503  13.620  1.00  0.00    -0.297 N
ATOM     14  H2  UNL     1      41.279  13.344  13.672  1.00  0.00     0.171 HD
HETATM   15  C13 UNL     1      43.090  12.430  14.043  1.00  0.00     0.227 C
HETATM   16  O3  UNL     1      42.770  11.823  15.099  1.00  0.00    -0.273 OA
HETATM   17  C14 UNL     1      44.301  11.939  13.348  1.00  0.00     0.142 C
HETATM   18  C15 UNL     1      43.994  10.784  12.437  1.00  0.00     0.196 C
HETATM   19  F1  UNL     1      42.973  11.216  11.617  1.00  0.00    -0.247 F
HETATM   20  C16 UNL     1      45.116  10.372  11.536  1.00  0.00     0.160 C
HETATM   21  N3  UNL     1      46.354  10.882  12.087  1.00  0.00    -0.357 N
ATOM     22  H3  UNL     1      46.716  10.366  12.889  1.00  0.00     0.162 HD
HETATM   23  C17 UNL     1      47.127  11.972  11.684  1.00  0.00     0.240 C
HETATM   24  O4  UNL     1      47.489  12.747  12.646  1.00  0.00    -0.271 OA
HETATM   25  C18 UNL     1      47.608  12.395  10.366  1.00  0.00     0.178 C
HETATM   26  N4  UNL     1      46.978  13.577   9.807  1.00  0.00    -0.341 N
HETATM   27  C23 UNL     1      45.701  13.315   9.164  1.00  0.00     0.153 C
HETATM   28  C24 UNL     1      47.482  14.889   9.838  1.00  0.00     0.243 C
HETATM   29  O5  UNL     1      47.007  15.667   8.934  1.00  0.00    -0.271 OA
ENDROOT
BRANCH   1  30
HETATM   30  C4  UNL     1      49.395  16.326   9.833  1.00  0.00     0.035 C
BRANCH  30  31
HETATM   31  C3  UNL     1      49.468  17.757  10.260  1.00  0.00     0.002 C
BRANCH  31  32
HETATM   32  C2  UNL     1      48.684  18.564   9.216  1.00  0.00    -0.004 C
HETATM   33  C1  UNL     1      48.856  20.039   9.465  1.00  0.00     0.005 C
ENDBRANCH  31  32
ENDBRANCH  30  31
ENDBRANCH   1  30
BRANCH  25  34
HETATM   34  C19 UNL     1      47.744  11.253   9.382  1.00  0.00     0.035 C
BRANCH  34  35
HETATM   35  C20 UNL     1      49.138  11.165   8.805  1.00  0.00     0.002 C
BRANCH  35  36
HETATM   36  C21 UNL     1      49.047  11.617   7.342  1.00  0.00    -0.004 C
HETATM   37  C22 UNL     1      49.448  13.062   7.183  1.00  0.00     0.005 C
ENDBRANCH  35  36
ENDBRANCH  34  35
ENDBRANCH  25  34
TORSDOF 6
ENDMDL