MODEL 1
REMARK VINA RESULT: -6.026471359      0.000      0.000
REMARK  6 active torsions:
REMARK  status: ('A' for Active; 'I' for Inactive)
REMARK    1  A    between atoms: O1_2  and  C2_3
REMARK    2  A    between atoms: C2_3  and  C3_4
REMARK    3  A    between atoms: C3_4  and  C4_5
REMARK    4  A    between atoms: C4_5  and  O2_6
REMARK    5  A    between atoms: O2_6  and  C5_7
REMARK    6  A    between atoms: C26_29  and  C27_30
ROOT
HETATM    1  C5  UNL     1      13.791  35.452   8.844  1.00  0.00     0.131 C
HETATM    2  C6  UNL     1      14.939  34.962   8.000  1.00  0.00     0.039 C
HETATM    3  C7  UNL     1      16.275  35.613   8.220  1.00  0.00     0.008 C
HETATM    4  C8  UNL     1      17.367  34.612   8.199  1.00  0.00    -0.043 C
HETATM    5  C9  UNL     1      17.619  34.078   9.605  1.00  0.00     0.015 C
HETATM    6  C10 UNL     1      17.025  33.363   7.368  1.00  0.00     0.015 C
HETATM    7  C11 UNL     1      18.677  35.089   7.669  1.00  0.00     0.009 C
HETATM    8  C12 UNL     1      18.443  35.634   6.298  1.00  0.00     0.002 C
HETATM    9  C13 UNL     1      17.297  36.580   6.166  1.00  0.00     0.014 C
HETATM   10  C14 UNL     1      16.570  36.898   7.416  1.00  0.00    -0.015 C
HETATM   11  C15 UNL     1      17.555  37.723   8.264  1.00  0.00     0.020 C
HETATM   12  C16 UNL     1      15.293  37.591   7.304  1.00  0.00    -0.050 C
HETATM   13  C17 UNL     1      14.923  38.183   8.580  1.00  0.00     0.001 C
HETATM   14  C18 UNL     1      13.627  38.373   9.157  1.00  0.00    -0.020 C
HETATM   15  C19 UNL     1      12.542  37.404   9.285  1.00  0.00     0.027 C
HETATM   16  C20 UNL     1      11.153  37.977   8.966  1.00  0.00    -0.039 C
HETATM   17  C21 UNL     1      11.092  39.478   9.304  1.00  0.00     0.015 C
HETATM   18  C22 UNL     1      10.076  37.360   9.780  1.00  0.00     0.015 C
HETATM   19  C23 UNL     1      11.115  37.728   7.496  1.00  0.00     0.022 C
HETATM   20  C24 UNL     1      12.385  36.968   7.119  1.00  0.00     0.069 C
HETATM   21  C25 UNL     1      13.199  38.000   6.465  1.00  0.00     0.150 C
HETATM   22  O3  UNL     1      12.534  38.763   5.803  1.00  0.00    -0.296 OA
HETATM   23  C26 UNL     1      14.661  38.463   6.321  1.00  0.00     0.186 C
HETATM   24  C28 UNL     1      12.684  36.219   8.298  1.00  0.00     0.000 C
HETATM   25  C29 UNL     1      11.479  35.259   8.415  1.00  0.00     0.019 C
ENDROOT
BRANCH   1  26
HETATM   26  O2  UNL     1      13.304  34.306   9.526  1.00  0.00    -0.385 OA
BRANCH  26  27
HETATM   27  C4  UNL     1      14.189  33.345   9.825  1.00  0.00     0.170 C
BRANCH  27  28
HETATM   28  C3  UNL     1      13.600  31.990   9.490  1.00  0.00     0.052 C
BRANCH  28  29
HETATM   29  C2  UNL     1      14.627  30.968   9.927  1.00  0.00     0.169 C
BRANCH  29  30
HETATM   30  O1  UNL     1      14.267  29.663   9.719  1.00  0.00    -0.396 OA
HETATM   31  C1  UNL     1      12.908  29.407   9.721  1.00  0.00     0.201 C
ENDBRANCH  29  30
ENDBRANCH  28  29
ENDBRANCH  27  28
ENDBRANCH  26  27
ENDBRANCH   1  26
BRANCH  23  32
HETATM   32  C27 UNL     1      14.919  38.343   4.900  1.00  0.00     0.188 C
HETATM   33  O4  UNL     1      15.431  39.255   4.162  1.00  0.00    -0.647 OA
HETATM   34  O5  UNL     1      14.608  37.174   4.233  1.00  0.00    -0.647 OA
ENDBRANCH  23  32
TORSDOF 6
ENDMDL