MODEL 5
REMARK VINA RESULT: -6.440001333      1.404      1.924
REMARK  7 active torsions:
REMARK  status: ('A' for Active; 'I' for Inactive)
REMARK    1  A    between atoms: O1_2  and  C2_3
REMARK    2  A    between atoms: C2_3  and  C3_5
REMARK    3  A    between atoms: C3_5  and  C4_6
REMARK    4  A    between atoms: C4_6  and  C5_7
REMARK    5  A    between atoms: C5_7  and  C7_9
REMARK    6  A    between atoms: C19_21  and  C21_23
REMARK    7  A    between atoms: C27_31  and  C28_32
ROOT
HETATM    1  C28 UNL     1      14.875  37.510   9.356  1.00  0.00     0.101 C
HETATM    2  C29 UNL     1      13.482  37.242   9.398  1.00  0.00     0.088 C
HETATM    3  N1  UNL     1      12.363  37.020   9.412  1.00  0.00    -0.192 NA
ENDROOT
BRANCH   1   4
HETATM    4  C27 UNL     1      15.739  36.972   8.308  1.00  0.00    -0.036 C
HETATM    5  C11 UNL     1      15.749  35.478   8.045  1.00  0.00    -0.063 C
HETATM    6  C10 UNL     1      15.949  34.640   9.234  1.00  0.00     0.024 C
HETATM    7  C12 UNL     1      14.820  34.952   7.024  1.00  0.00     0.016 C
HETATM    8  C9  UNL     1      17.321  33.948   9.305  1.00  0.00     0.010 C
HETATM    9  C15 UNL     1      15.053  33.466   9.484  1.00  0.00    -0.033 C
HETATM   10  C8  UNL     1      17.122  32.616   8.615  1.00  0.00     0.006 C
HETATM   11  C7  UNL     1      15.687  32.241   8.993  1.00  0.00    -0.002 C
HETATM   12  C14 UNL     1      13.695  33.581   8.836  1.00  0.00     0.011 C
HETATM   13  C16 UNL     1      14.786  33.489  10.993  1.00  0.00     0.016 C
HETATM   14  C13 UNL     1      13.647  34.176   7.491  1.00  0.00     0.010 C
HETATM   15  C17 UNL     1      14.351  36.030   6.036  1.00  0.00     0.016 C
HETATM   16  C18 UNL     1      15.502  36.952   5.839  1.00  0.00     0.017 C
HETATM   17  C19 UNL     1      15.544  37.631   4.522  1.00  0.00     0.049 C
HETATM   18  C25 UNL     1      15.826  37.786   7.040  1.00  0.00    -0.011 C
HETATM   19  C20 UNL     1      15.710  36.486   3.483  1.00  0.00     0.027 C
HETATM   20  C22 UNL     1      16.740  38.513   4.321  1.00  0.00     0.020 C
HETATM   21  C23 UNL     1      17.437  38.996   5.535  1.00  0.00     0.002 C
HETATM   22  C24 UNL     1      17.282  38.217   6.769  1.00  0.00     0.014 C
HETATM   23  C26 UNL     1      15.098  39.094   7.129  1.00  0.00     0.021 C
BRANCH  11  24
HETATM   24  C5  UNL     1      15.743  30.993   9.788  1.00  0.00    -0.013 C
HETATM   25  C6  UNL     1      16.419  30.986  11.091  1.00  0.00     0.010 C
BRANCH  24  26
HETATM   26  C4  UNL     1      14.397  30.333   9.720  1.00  0.00     0.014 C
BRANCH  26  27
HETATM   27  C3  UNL     1      14.295  28.867   9.802  1.00  0.00     0.111 C
BRANCH  27  28
HETATM   28  C2  UNL     1      13.505  28.302  10.918  1.00  0.00     0.258 C
HETATM   29  O2  UNL     1      12.258  28.277  10.843  1.00  0.00    -0.265 OA
BRANCH  28  30
HETATM   30  O1  UNL     1      14.127  27.790  12.064  1.00  0.00    -0.326 OA
HETATM   31  C1  UNL     1      13.287  27.117  13.003  1.00  0.00     0.213 C
ENDBRANCH  28  30
ENDBRANCH  27  28
ENDBRANCH  26  27
ENDBRANCH  24  26
ENDBRANCH  11  24
BRANCH  17  32
HETATM   32  C21 UNL     1      14.287  38.266   4.066  1.00  0.00     0.181 C
HETATM   33  O3  UNL     1      14.033  39.477   4.227  1.00  0.00    -0.647 OA
HETATM   34  O4  UNL     1      13.302  37.509   3.418  1.00  0.00    -0.647 OA
ENDBRANCH  17  32
ENDBRANCH   1   4
TORSDOF 7
ENDMDL