MODEL 3
REMARK VINA RESULT: -7.662576806      1.712      2.336
REMARK  6 active torsions:
REMARK  status: ('A' for Active; 'I' for Inactive)
REMARK    1  A    between atoms: O1_2  and  C2_3
REMARK    2  A    between atoms: C2_3  and  C3_4
REMARK    3  A    between atoms: C3_4  and  C4_5
REMARK    4  A    between atoms: C4_5  and  N1_6
REMARK    5  A    between atoms: N1_6  and  C5_8
REMARK    6  A    between atoms: C17_22  and  C18_23
ROOT
HETATM    1  C5  UNL     1      16.460  28.491  13.258  1.00  0.00     0.085 C
HETATM    2  C6  UNL     1      17.850  28.228  12.845  1.00  0.00     0.026 C
HETATM    3  C7  UNL     1      17.800  28.250  11.294  1.00  0.00     0.012 C
HETATM    4  C8  UNL     1      16.472  28.681  10.887  1.00  0.00    -0.030 C
HETATM    5  C9  UNL     1      15.634  27.457  10.589  1.00  0.00     0.016 C
HETATM    6  C10 UNL     1      15.937  29.376  12.130  1.00  0.00     0.018 C
HETATM    7  C11 UNL     1      16.597  30.693  12.073  1.00  0.00     0.020 C
HETATM    8  C12 UNL     1      16.788  31.044  10.587  1.00  0.00    -0.008 C
HETATM    9  C13 UNL     1      18.281  31.283  10.403  1.00  0.00     0.018 C
HETATM   10  C14 UNL     1      16.105  32.297  10.304  1.00  0.00     0.145 C
HETATM   11  O2  UNL     1      16.887  33.301   9.614  1.00  0.00    -0.315 OA
HETATM   12  C15 UNL     1      16.462  33.759   8.360  1.00  0.00     0.264 C
HETATM   13  O3  UNL     1      17.197  33.733   7.346  1.00  0.00    -0.265 OA
HETATM   14  C16 UNL     1      15.092  34.284   8.242  1.00  0.00     0.095 C
HETATM   15  C17 UNL     1      14.852  35.674   8.023  1.00  0.00     0.003 C
HETATM   16  C21 UNL     1      13.392  36.057   8.253  1.00  0.00     0.006 C
HETATM   17  C22 UNL     1      12.716  35.338   9.335  1.00  0.00     0.005 C
HETATM   18  C23 UNL     1      12.866  33.804   9.185  1.00  0.00    -0.013 C
HETATM   19  C24 UNL     1      11.961  33.248  10.227  1.00  0.00     0.010 C
HETATM   20  C25 UNL     1      14.309  33.585   9.378  1.00  0.00     0.010 C
HETATM   21  C26 UNL     1      14.870  32.218   9.381  1.00  0.00     0.021 C
HETATM   22  C27 UNL     1      14.094  31.084   9.850  1.00  0.00     0.008 C
HETATM   23  C28 UNL     1      14.861  29.816   9.529  1.00  0.00     0.011 C
HETATM   24  C29 UNL     1      16.304  29.802   9.895  1.00  0.00    -0.027 C
HETATM   25  C30 UNL     1      17.086  29.518   8.628  1.00  0.00     0.017 C
ENDROOT
BRANCH   1  26
HETATM   26  N1  UNL     1      16.208  29.030  14.506  1.00  0.00    -0.397 N
ATOM     27  H1  UNL     1      15.869  29.991  14.559  1.00  0.00     0.159 HD
BRANCH  26  28
HETATM   28  C4  UNL     1      16.392  28.328  15.691  1.00  0.00     0.058 C
BRANCH  28  29
HETATM   29  C3  UNL     1      17.749  27.798  15.925  1.00  0.00     0.070 C
BRANCH  29  30
HETATM   30  C2  UNL     1      18.241  28.131  17.307  1.00  0.00     0.172 C
BRANCH  30  31
HETATM   31  O1  UNL     1      17.250  28.302  18.224  1.00  0.00    -0.396 OA
HETATM   32  C1  UNL     1      17.546  27.941  19.518  1.00  0.00     0.201 C
ENDBRANCH  30  31
ENDBRANCH  29  30
ENDBRANCH  28  29
ENDBRANCH  26  28
ENDBRANCH   1  26
BRANCH  15  33
HETATM   33  C18 UNL     1      15.742  36.778   8.424  1.00  0.00    -0.018 C
HETATM   34  C19 UNL     1      15.077  38.038   8.930  1.00  0.00     0.010 C
HETATM   35  C20 UNL     1      16.760  37.239   7.433  1.00  0.00     0.010 C
ENDBRANCH  15  33
TORSDOF 6
ENDMDL