MODEL 2
REMARK VINA RESULT: -6.930255306      2.013      3.481
REMARK  6 active torsions:
REMARK  status: ('A' for Active; 'I' for Inactive)
REMARK    1  A    between atoms: C4_4  and  O1_5
REMARK    2  A    between atoms: C17_19  and  O2_20
REMARK    3  A    between atoms: O2_20  and  C18_21
REMARK    4  A    between atoms: C18_21  and  C19_22
REMARK    5  A    between atoms: C19_22  and  C20_23
REMARK    6  A    between atoms: C20_23  and  N1_24
ROOT
HETATM    1  C1  UNL     1      16.714  37.430   3.985  1.00  0.00     0.010 C
HETATM    2  C2  UNL     1      16.210  36.105   4.531  1.00  0.00    -0.015 C
HETATM    3  C3  UNL     1      14.702  36.099   4.432  1.00  0.00     0.040 C
HETATM    4  C4  UNL     1      14.158  36.875   5.584  1.00  0.00     0.147 C
HETATM    5  C5  UNL     1      14.541  36.179   6.878  1.00  0.00    -0.050 C
HETATM    6  C6  UNL     1      13.904  36.406   7.974  1.00  0.00    -0.021 C
HETATM    7  C7  UNL     1      14.211  35.781   9.247  1.00  0.00     0.033 C
HETATM    8  C8  UNL     1      15.384  34.857   9.308  1.00  0.00     0.006 C
HETATM    9  C9  UNL     1      16.308  34.958   8.152  1.00  0.00    -0.032 C
HETATM   10  C10 UNL     1      17.246  36.165   8.381  1.00  0.00     0.016 C
HETATM   11  C11 UNL     1      17.226  33.802   7.953  1.00  0.00     0.011 C
HETATM   12  C12 UNL     1      16.567  32.448   8.253  1.00  0.00     0.007 C
HETATM   13  C13 UNL     1      16.195  32.560   9.707  1.00  0.00     0.004 C
HETATM   14  C14 UNL     1      15.982  31.221  10.347  1.00  0.00    -0.017 C
HETATM   15  C15 UNL     1      16.362  31.237  11.816  1.00  0.00     0.018 C
HETATM   16  C16 UNL     1      17.057  30.305   9.721  1.00  0.00     0.018 C
HETATM   17  C17 UNL     1      14.637  30.633  10.134  1.00  0.00     0.129 C
HETATM   18  C25 UNL     1      13.787  31.388   9.129  1.00  0.00     0.033 C
HETATM   19  C26 UNL     1      13.847  32.852   9.136  1.00  0.00     0.012 C
HETATM   20  C27 UNL     1      15.018  33.480   9.791  1.00  0.00    -0.035 C
HETATM   21  C28 UNL     1      14.621  33.635  11.273  1.00  0.00     0.016 C
HETATM   22  C29 UNL     1      15.663  35.243   6.830  1.00  0.00     0.026 C
HETATM   23  C30 UNL     1      16.705  35.924   5.926  1.00  0.00     0.014 C
ENDROOT
BRANCH  17  24
HETATM   24  O2  UNL     1      14.777  29.358   9.618  1.00  0.00    -0.385 OA
BRANCH  24  25
HETATM   25  C18 UNL     1      13.947  28.376  10.088  1.00  0.00     0.170 C
BRANCH  25  26
HETATM   26  C19 UNL     1      14.054  28.001  11.506  1.00  0.00     0.056 C
BRANCH  26  27
HETATM   27  C20 UNL     1      12.828  27.340  12.057  1.00  0.00     0.274 C
BRANCH  27  28
HETATM   28  N1  UNL     1      12.962  26.163  12.792  1.00  0.00     0.092 N
HETATM   29  C21 UNL     1      11.851  25.400  13.172  1.00  0.00     0.298 C
HETATM   30  C22 UNL     1      11.878  25.026  14.661  1.00  0.00     0.198 C
HETATM   31  O3  UNL     1      12.094  26.101  15.481  1.00  0.00    -0.388 OA
HETATM   32  C23 UNL     1      13.006  27.022  15.020  1.00  0.00     0.198 C
HETATM   33  C24 UNL     1      13.833  26.386  13.928  1.00  0.00     0.298 C
ENDBRANCH  27  28
ENDBRANCH  26  27
ENDBRANCH  25  26
ENDBRANCH  24  25
ENDBRANCH  17  24
BRANCH   4  34
HETATM   34  O1  UNL     1      14.675  38.161   5.585  1.00  0.00    -0.391 OA
ATOM     35  H1  UNL     1      14.328  38.655   6.319  1.00  0.00     0.210 HD
ENDBRANCH   4  34
TORSDOF 6
ENDMDL