MODEL 5
REMARK VINA RESULT: -7.119944964      2.412      8.070
REMARK  9 active torsions:
REMARK  status: ('A' for Active; 'I' for Inactive)
REMARK    1  A    between atoms: C3_3  and  C4_4
REMARK    2  A    between atoms: C4_4  and  C7_7
REMARK    3  A    between atoms: C7_7  and  C8_8
REMARK    4  A    between atoms: C7_7  and  C13_14
REMARK    5  A    between atoms: C8_8  and  C9_9
REMARK    6  A    between atoms: C9_9  and  C10_10
REMARK    7  A    between atoms: C10_10  and  C12_12
REMARK    8  A    between atoms: C27_29  and  O3_30
REMARK    9  A    between atoms: C30_33  and  O4_34
ROOT
HETATM    1  C1  UNL     1      16.864  28.563  14.529  1.00  0.00     0.112 C
HETATM    2  C2  UNL     1      16.127  28.612  13.261  1.00  0.00    -0.110 C
HETATM    3  C3  UNL     1      15.506  28.640  12.228  1.00  0.00    -0.093 C
ENDROOT
BRANCH   3   4
HETATM    4  C4  UNL     1      14.727  28.663  11.032  1.00  0.00     0.040 C
HETATM    5  C5  UNL     1      13.561  27.670  11.114  1.00  0.00     0.034 C
HETATM    6  C6  UNL     1      15.639  27.941   9.977  1.00  0.00     0.034 C
BRANCH   4   7
HETATM    7  C7  UNL     1      14.421  29.935  10.381  1.00  0.00    -0.055 C
BRANCH   7   8
HETATM    8  C8  UNL     1      13.302  29.959   9.375  1.00  0.00     0.037 C
BRANCH   8   9
HETATM    9  C9  UNL     1      11.992  30.502   9.746  1.00  0.00     0.015 C
BRANCH   9  10
HETATM   10  C10 UNL     1      10.918  29.365   9.748  1.00  0.00     0.043 C
HETATM   11  C11 UNL     1       9.544  29.998   9.766  1.00  0.00     0.017 C
BRANCH  10  12
HETATM   12  C12 UNL     1      11.065  28.634   8.458  1.00  0.00     0.235 C
HETATM   13  O1  UNL     1      10.304  28.965   7.555  1.00  0.00    -0.306 OA
ENDBRANCH  10  12
ENDBRANCH   9  10
ENDBRANCH   8   9
ENDBRANCH   7   8
BRANCH   7  14
HETATM   14  C13 UNL     1      15.472  30.879   9.978  1.00  0.00    -0.042 C
HETATM   15  C14 UNL     1      16.775  30.901  10.676  1.00  0.00     0.038 C
HETATM   16  C15 UNL     1      17.511  32.038   9.971  1.00  0.00     0.013 C
HETATM   17  C16 UNL     1      16.538  32.637   8.983  1.00  0.00     0.029 C
HETATM   18  C17 UNL     1      16.645  34.111   8.891  1.00  0.00    -0.002 A
HETATM   19  C30 UNL     1      15.186  32.317   9.703  1.00  0.00     0.088 C
HETATM   20  C18 UNL     1      17.670  34.789   8.064  1.00  0.00     0.011 A
HETATM   21  C19 UNL     1      16.331  34.552   7.542  1.00  0.00    -0.001 A
HETATM   22  C20 UNL     1      15.224  35.568   7.558  1.00  0.00    -0.033 C
HETATM   23  C21 UNL     1      15.404  36.682   8.527  1.00  0.00     0.016 C
HETATM   24  C22 UNL     1      15.295  36.183   6.150  1.00  0.00     0.017 C
HETATM   25  C26 UNL     1      13.884  34.891   7.661  1.00  0.00     0.030 C
HETATM   26  C23 UNL     1      14.212  37.151   5.853  1.00  0.00     0.079 C
HETATM   27  C24 UNL     1      12.903  36.783   6.398  1.00  0.00     0.127 C
HETATM   28  O2  UNL     1      11.888  37.093   5.858  1.00  0.00    -0.298 OA
HETATM   29  C25 UNL     1      12.856  36.000   7.661  1.00  0.00     0.086 C
HETATM   30  C27 UNL     1      13.655  34.054   8.867  1.00  0.00     0.129 C
HETATM   31  C29 UNL     1      14.139  32.622   8.697  1.00  0.00     0.075 C
BRANCH  30  32
HETATM   32  O3  UNL     1      12.251  34.001   9.058  1.00  0.00    -0.390 OA
HETATM   33  C28 UNL     1      11.885  34.146  10.384  1.00  0.00     0.202 C
ENDBRANCH  30  32
BRANCH  19  34
HETATM   34  O4  UNL     1      15.195  33.159  10.792  1.00  0.00    -0.385 OA
ATOM     35  H4  UNL     1      14.404  33.665  10.939  1.00  0.00     0.211 HD
ENDBRANCH  19  34
ENDBRANCH   7  14
ENDBRANCH   4   7
ENDBRANCH   3   4
TORSDOF 9
ENDMDL