MODEL 4
REMARK VINA RESULT: -7.772112183      2.924      4.889
REMARK  7 active torsions:
REMARK  status: ('A' for Active; 'I' for Inactive)
REMARK    1  A    between atoms: C2_2  and  C3_3
REMARK    2  A    between atoms: C2_2  and  C10_12
REMARK    3  A    between atoms: C3_3  and  C4_4
REMARK    4  A    between atoms: C4_4  and  C5_5
REMARK    5  A    between atoms: C5_5  and  N1_6
REMARK    6  A    between atoms: C10_12  and  C12_14
REMARK    7  A    between atoms: C16_18  and  C17_19
ROOT
HETATM    1  C12 UNL     1      16.007  29.432  11.265  1.00  0.00    -0.002 C
HETATM    2  C13 UNL     1      15.495  28.821   9.977  1.00  0.00     0.006 C
HETATM    3  C14 UNL     1      14.565  29.850   9.394  1.00  0.00     0.010 C
HETATM    4  C15 UNL     1      14.823  31.101  10.217  1.00  0.00     0.023 C
HETATM    5  C16 UNL     1      14.765  32.310   9.409  1.00  0.00    -0.074 C
HETATM    6  C27 UNL     1      15.877  32.618   8.700  1.00  0.00    -0.023 C
HETATM    7  C28 UNL     1      17.050  31.735   8.784  1.00  0.00     0.028 C
HETATM    8  C29 UNL     1      17.303  31.393  10.261  1.00  0.00     0.014 C
HETATM    9  C30 UNL     1      16.146  30.859  10.960  1.00  0.00    -0.032 C
HETATM   10  C31 UNL     1      15.966  31.609  12.305  1.00  0.00     0.016 C
ENDROOT
BRANCH   1  11
HETATM   11  C10 UNL     1      16.923  28.644  12.059  1.00  0.00    -0.010 C
HETATM   12  C11 UNL     1      17.937  27.745  11.486  1.00  0.00     0.011 C
BRANCH  11  13
HETATM   13  C2  UNL     1      16.236  27.865  13.201  1.00  0.00    -0.014 C
HETATM   14  C1  UNL     1      16.976  27.870  14.478  1.00  0.00     0.010 C
BRANCH  13  15
HETATM   15  C3  UNL     1      14.783  28.131  13.327  1.00  0.00     0.006 C
BRANCH  15  16
HETATM   16  C4  UNL     1      14.124  27.884  14.627  1.00  0.00     0.030 C
BRANCH  16  17
HETATM   17  C5  UNL     1      12.742  27.290  14.298  1.00  0.00     0.272 C
BRANCH  17  18
HETATM   18  N1  UNL     1      12.784  25.862  14.342  1.00  0.00     0.092 N
HETATM   19  C6  UNL     1      11.986  25.306  15.390  1.00  0.00     0.298 C
HETATM   20  C7  UNL     1      10.497  25.557  15.202  1.00  0.00     0.198 C
HETATM   21  O1  UNL     1      10.208  25.653  13.848  1.00  0.00    -0.388 OA
HETATM   22  C8  UNL     1      11.002  24.763  13.141  1.00  0.00     0.198 C
HETATM   23  C9  UNL     1      12.446  25.257  13.077  1.00  0.00     0.298 C
ENDBRANCH  17  18
ENDBRANCH  16  17
ENDBRANCH  15  16
ENDBRANCH  13  15
ENDBRANCH  11  13
ENDBRANCH   1  11
BRANCH   5  24
HETATM   24  C17 UNL     1      13.627  33.194   9.241  1.00  0.00     0.023 C
HETATM   25  C18 UNL     1      12.322  32.650   9.796  1.00  0.00     0.010 C
HETATM   26  C19 UNL     1      11.383  33.804   9.498  1.00  0.00     0.006 C
HETATM   27  C20 UNL     1      12.236  35.040   9.349  1.00  0.00     0.001 C
HETATM   28  C21 UNL     1      12.269  35.614   7.973  1.00  0.00     0.083 C
HETATM   29  C25 UNL     1      13.654  34.566   9.778  1.00  0.00    -0.032 C
HETATM   30  C22 UNL     1      13.121  36.847   8.052  1.00  0.00     0.127 C
HETATM   31  O2  UNL     1      12.940  37.802   7.355  1.00  0.00    -0.298 OA
HETATM   32  C23 UNL     1      14.221  36.838   9.051  1.00  0.00     0.079 C
HETATM   33  C24 UNL     1      14.716  35.399   9.107  1.00  0.00     0.017 C
HETATM   34  C26 UNL     1      13.678  34.749  11.252  1.00  0.00     0.016 C
ENDBRANCH   5  24
TORSDOF 7
ENDMDL