MODEL 2
REMARK VINA RESULT: -9.216416182      4.667      8.129
REMARK  7 active torsions:
REMARK  status: ('A' for Active; 'I' for Inactive)
REMARK    1  A    between atoms: C11_11  and  O1_12
REMARK    2  A    between atoms: C18_20  and  C19_21
REMARK    3  A    between atoms: C19_21  and  C20_22
REMARK    4  A    between atoms: C20_22  and  C21_23
REMARK    5  A    between atoms: C21_23  and  C22_24
REMARK    6  A    between atoms: C22_24  and  C23_25
REMARK    7  A    between atoms: C23_25  and  N1_26
ROOT
HETATM    1  C1  UNL     1      15.969  32.015  11.795  1.00  0.00     0.024 C
HETATM    2  C2  UNL     1      15.641  32.088  10.292  1.00  0.00     0.021 C
HETATM    3  C3  UNL     1      14.434  32.914  10.158  1.00  0.00     0.018 C
HETATM    4  C4  UNL     1      14.334  33.748   8.905  1.00  0.00     0.007 C
HETATM    5  C5  UNL     1      15.622  34.523   8.854  1.00  0.00    -0.002 C
HETATM    6  C6  UNL     1      16.687  33.535   8.503  1.00  0.00    -0.004 C
HETATM    7  C7  UNL     1      17.950  34.192   8.094  1.00  0.00     0.006 C
HETATM    8  C8  UNL     1      18.100  35.623   8.396  1.00  0.00     0.006 C
HETATM    9  C9  UNL     1      16.887  36.479   8.270  1.00  0.00    -0.004 C
HETATM   10  C10 UNL     1      17.080  37.685   7.404  1.00  0.00     0.037 C
HETATM   11  C11 UNL     1      16.612  37.542   6.004  1.00  0.00     0.118 C
HETATM   12  C12 UNL     1      16.327  36.144   5.572  1.00  0.00     0.032 C
HETATM   13  C13 UNL     1      15.450  35.384   6.511  1.00  0.00     0.012 C
HETATM   14  C14 UNL     1      15.617  35.706   7.950  1.00  0.00    -0.036 C
HETATM   15  C15 UNL     1      14.461  36.613   8.399  1.00  0.00     0.016 C
HETATM   16  C16 UNL     1      16.867  32.497   9.586  1.00  0.00     0.006 C
HETATM   17  C17 UNL     1      17.537  31.301   8.894  1.00  0.00     0.011 C
HETATM   18  C18 UNL     1      17.668  30.124   9.833  1.00  0.00    -0.007 C
HETATM   19  C29 UNL     1      16.317  29.645  10.320  1.00  0.00     0.083 C
HETATM   20  C30 UNL     1      15.325  30.684   9.909  1.00  0.00     0.136 C
HETATM   21  O3  UNL     1      14.305  30.452   9.299  1.00  0.00    -0.297 OA
ENDROOT
BRANCH  18  22
HETATM   22  C19 UNL     1      18.251  28.990   8.985  1.00  0.00     0.005 C
BRANCH  22  23
HETATM   23  C20 UNL     1      19.733  28.963   9.239  1.00  0.00     0.000 C
BRANCH  23  24
HETATM   24  C21 UNL     1      20.123  29.677  10.529  1.00  0.00     0.002 C
BRANCH  24  25
HETATM   25  C22 UNL     1      21.362  30.484  10.400  1.00  0.00     0.020 C
BRANCH  25  26
HETATM   26  C23 UNL     1      22.120  30.490  11.695  1.00  0.00     0.125 C
BRANCH  26  27
HETATM   27  N1  UNL     1      23.333  31.215  11.575  1.00  0.00    -0.352 N
HETATM   28  C24 UNL     1      24.584  30.684  11.082  1.00  0.00     0.125 C
HETATM   29  C25 UNL     1      24.942  31.539   9.871  1.00  0.00     0.020 C
HETATM   30  C26 UNL     1      25.286  32.915  10.368  1.00  0.00     0.011 C
HETATM   31  C27 UNL     1      24.707  33.261  11.700  1.00  0.00     0.103 C
HETATM   32  C28 UNL     1      23.373  32.611  11.938  1.00  0.00     0.219 C
HETATM   33  O2  UNL     1      22.387  33.208  12.404  1.00  0.00    -0.273 OA
ENDBRANCH  26  27
ENDBRANCH  25  26
ENDBRANCH  24  25
ENDBRANCH  23  24
ENDBRANCH  22  23
ENDBRANCH  18  22
BRANCH  11  34
HETATM   34  O1  UNL     1      15.520  38.395   5.715  1.00  0.00    -0.396 OA
ATOM     35  H1  UNL     1      14.743  37.911   5.462  1.00  0.00     0.210 HD
ENDBRANCH  11  34
TORSDOF 7
ENDMDL