MODEL 2
REMARK VINA RESULT: -7.458572126      3.382      5.349
REMARK  8 active torsions:
REMARK  status: ('A' for Active; 'I' for Inactive)
REMARK    1  A    between atoms: C2_2  and  C4_4
REMARK    2  A    between atoms: C4_4  and  C5_5
REMARK    3  A    between atoms: C5_5  and  C6_6
REMARK    4  A    between atoms: C6_6  and  C7_8
REMARK    5  A    between atoms: C12_13  and  O2_14
REMARK    6  A    between atoms: C17_20  and  C19_22
REMARK    7  A    between atoms: C19_22  and  O4_24
REMARK    8  A    between atoms: O4_24  and  C20_25
ROOT
HETATM    1  C7  UNL     1      16.421  29.661  10.272  1.00  0.00     0.064 C
HETATM    2  C8  UNL     1      17.875  30.052  10.321  1.00  0.00     0.013 C
HETATM    3  C9  UNL     1      17.938  31.484   9.773  1.00  0.00     0.007 C
HETATM    4  C10 UNL     1      16.536  31.705   9.301  1.00  0.00     0.001 C
HETATM    5  C11 UNL     1      16.107  33.043   8.940  1.00  0.00     0.024 C
HETATM    6  C12 UNL     1      17.048  34.168   9.267  1.00  0.00     0.123 C
HETATM    7  C13 UNL     1      16.471  35.442   8.653  1.00  0.00     0.042 C
HETATM    8  C14 UNL     1      15.038  35.636   9.056  1.00  0.00     0.026 C
HETATM    9  C15 UNL     1      14.549  36.936   8.570  1.00  0.00    -0.066 C
HETATM   10  C16 UNL     1      15.236  37.761   7.820  1.00  0.00     0.016 C
HETATM   11  C17 UNL     1      13.148  37.298   8.998  1.00  0.00     0.067 C
HETATM   12  C18 UNL     1      12.282  37.684   7.847  1.00  0.00     0.031 C
HETATM   13  C22 UNL     1      12.637  36.121   9.787  1.00  0.00     0.025 C
HETATM   14  C23 UNL     1      12.742  34.823   9.030  1.00  0.00     0.012 C
HETATM   15  C24 UNL     1      14.155  34.485   8.627  1.00  0.00    -0.032 C
HETATM   16  C25 UNL     1      14.163  34.256   7.143  1.00  0.00     0.016 C
HETATM   17  C26 UNL     1      14.684  33.286   9.402  1.00  0.00     0.001 C
HETATM   18  C27 UNL     1      13.914  32.030   9.109  1.00  0.00     0.007 C
HETATM   19  C28 UNL     1      14.310  31.004  10.148  1.00  0.00     0.011 C
HETATM   20  C29 UNL     1      15.771  31.020  10.442  1.00  0.00    -0.030 C
HETATM   21  C30 UNL     1      16.142  31.552  11.769  1.00  0.00     0.016 C
ENDROOT
BRANCH   1  22
HETATM   22  C6  UNL     1      15.983  28.602  11.141  1.00  0.00     0.132 C
HETATM   23  O1  UNL     1      14.954  27.988  10.774  1.00  0.00    -0.298 OA
BRANCH  22  24
HETATM   24  C5  UNL     1      16.553  28.119  12.398  1.00  0.00     0.083 C
BRANCH  24  25
HETATM   25  C4  UNL     1      16.046  28.764  13.646  1.00  0.00     0.040 C
BRANCH  25  26
HETATM   26  C2  UNL     1      14.973  28.051  14.348  1.00  0.00    -0.093 C
HETATM   27  C1  UNL     1      14.412  28.592  15.413  1.00  0.00     0.014 C
HETATM   28  C3  UNL     1      14.505  26.726  13.874  1.00  0.00     0.042 C
ENDBRANCH  25  26
ENDBRANCH  24  25
ENDBRANCH  22  24
ENDBRANCH   1  22
BRANCH   6  29
HETATM   29  O2  UNL     1      18.219  33.925   8.506  1.00  0.00    -0.395 OA
ATOM     30  H2  UNL     1      18.811  34.641   8.706  1.00  0.00     0.210 HD
ENDBRANCH   6  29
BRANCH  11  31
HETATM   31  C19 UNL     1      13.211  38.466   9.940  1.00  0.00     0.271 C
HETATM   32  O3  UNL     1      14.129  38.587  10.782  1.00  0.00    -0.264 OA
BRANCH  31  33
HETATM   33  O4  UNL     1      12.238  39.452   9.896  1.00  0.00    -0.321 OA
BRANCH  33  34
HETATM   34  C20 UNL     1      11.190  39.478  10.870  1.00  0.00     0.174 C
HETATM   35  C21 UNL     1       9.883  39.438  10.120  1.00  0.00     0.034 C
ENDBRANCH  33  34
ENDBRANCH  31  33
ENDBRANCH  11  31
TORSDOF 8
ENDMDL