MODEL 5
REMARK VINA RESULT: -8.171336554      3.439      5.368
REMARK  6 active torsions:
REMARK  status: ('A' for Active; 'I' for Inactive)
REMARK    1  A    between atoms: N1_2  and  C2_5
REMARK    2  A    between atoms: N2_19  and  O1_21
REMARK    3  A    between atoms: O1_21  and  C16_22
REMARK    4  A    between atoms: C16_22  and  C17_23
REMARK    5  A    between atoms: C17_23  and  C18_24
REMARK    6  A    between atoms: C18_24  and  N3_25
ROOT
HETATM    1  C2  UNL     1      15.403  38.269   6.670  1.00  0.00     0.189 C
HETATM    2  C3  UNL     1      16.063  38.098   8.001  1.00  0.00     0.034 C
HETATM    3  C4  UNL     1      17.062  36.997   8.086  1.00  0.00     0.012 C
HETATM    4  C5  UNL     1      16.812  35.842   7.191  1.00  0.00    -0.036 C
HETATM    5  C6  UNL     1      17.652  36.000   5.937  1.00  0.00     0.016 C
HETATM    6  C7  UNL     1      15.365  35.758   6.721  1.00  0.00    -0.000 C
HETATM    7  C8  UNL     1      14.418  35.407   7.798  1.00  0.00     0.006 C
HETATM    8  C9  UNL     1      14.992  34.890   9.056  1.00  0.00     0.006 C
HETATM    9  C10 UNL     1      16.286  34.182   8.993  1.00  0.00    -0.004 C
HETATM   10  C11 UNL     1      16.197  32.681   9.050  1.00  0.00     0.008 C
HETATM   11  C12 UNL     1      15.506  32.132  10.237  1.00  0.00    -0.008 C
HETATM   12  C13 UNL     1      14.284  31.335   9.798  1.00  0.00     0.011 C
HETATM   13  C14 UNL     1      16.459  31.132  10.851  1.00  0.00     0.060 C
HETATM   14  C15 UNL     1      17.741  31.239  10.167  1.00  0.00     0.019 C
HETATM   15  N2  UNL     1      18.828  30.664  10.498  1.00  0.00    -0.274 N
ATOM     16  H2  UNL     1      19.668  30.815   9.940  1.00  0.00     0.193 HD
HETATM   17  C24 UNL     1      17.584  32.138   9.002  1.00  0.00     0.001 C
HETATM   18  C25 UNL     1      17.836  31.307   7.751  1.00  0.00     0.022 C
HETATM   19  C26 UNL     1      18.671  33.180   9.129  1.00  0.00     0.016 C
HETATM   20  C27 UNL     1      18.556  34.284   8.121  1.00  0.00     0.007 C
HETATM   21  C28 UNL     1      17.122  34.494   7.777  1.00  0.00    -0.002 C
HETATM   22  C29 UNL     1      15.076  37.012   5.961  1.00  0.00     0.017 C
HETATM   23  C30 UNL     1      13.662  36.924   5.439  1.00  0.00     0.012 C
ENDROOT
BRANCH  15  24
HETATM   24  O1  UNL     1      18.882  29.845  11.595  1.00  0.00    -0.281 OA
BRANCH  24  25
HETATM   25  C16 UNL     1      18.325  28.537  11.537  1.00  0.00     0.203 C
BRANCH  25  26
HETATM   26  C17 UNL     1      18.384  27.924  12.898  1.00  0.00     0.059 C
BRANCH  26  27
HETATM   27  C18 UNL     1      17.022  27.638  13.456  1.00  0.00     0.274 C
BRANCH  27  28
HETATM   28  N3  UNL     1      16.077  28.668  13.013  1.00  0.00     0.088 N
HETATM   29  C19 UNL     1      14.866  28.095  12.461  1.00  0.00     0.272 C
HETATM   30  C20 UNL     1      14.166  27.178  13.428  1.00  0.00     0.030 C
HETATM   31  C21 UNL     1      13.921  27.845  14.753  1.00  0.00     0.003 C
HETATM   32  C22 UNL     1      15.076  28.658  15.250  1.00  0.00     0.030 C
HETATM   33  C23 UNL     1      15.738  29.483  14.167  1.00  0.00     0.272 C
ENDBRANCH  27  28
ENDBRANCH  26  27
ENDBRANCH  25  26
ENDBRANCH  24  25
ENDBRANCH  15  24
BRANCH   1  34
HETATM   34  N1  UNL     1      14.145  38.983   6.914  1.00  0.00    -0.074 N
HETATM   35  C1  UNL     1      13.909  39.143   8.336  1.00  0.00     0.267 C
ATOM     36  H12 UNL     1      13.358  38.528   6.451  1.00  0.00     0.277 HD
ATOM     37  H11 UNL     1      14.117  39.877   6.424  1.00  0.00     0.277 HD
ENDBRANCH   1  34
TORSDOF 6
ENDMDL