MODEL 1
REMARK VINA RESULT: -6.801376411      0.000      0.000
REMARK  8 active torsions:
REMARK  status: ('A' for Active; 'I' for Inactive)
REMARK    1  A    between atoms: C14_17  and  O4_18
REMARK    2  A    between atoms: C20_25  and  C22_27
REMARK    3  A    between atoms: C22_27  and  C23_28
REMARK    4  A    between atoms: C23_28  and  C24_29
REMARK    5  A    between atoms: C24_29  and  C25_30
REMARK    6  A    between atoms: C25_30  and  C26_31
REMARK    7  A    between atoms: C26_31  and  C27_32
REMARK    8  A    between atoms: C27_32  and  N1_33
ROOT
HETATM    1  C1  UNL     1      19.278  29.856   7.828  1.00  0.00     0.041 C
HETATM    2  C2  UNL     1      18.069  29.784   8.701  1.00  0.00     0.137 C
HETATM    3  O1  UNL     1      17.601  31.054   8.855  1.00  0.00    -0.315 OA
HETATM    4  C3  UNL     1      17.588  31.597  10.077  1.00  0.00     0.264 C
HETATM    5  O2  UNL     1      17.986  32.761  10.395  1.00  0.00    -0.265 OA
HETATM    6  C4  UNL     1      17.054  30.764  11.184  1.00  0.00     0.096 C
HETATM    7  C5  UNL     1      15.622  31.211  11.208  1.00  0.00     0.016 C
HETATM    8  C6  UNL     1      15.069  30.442  10.082  1.00  0.00     0.014 C
HETATM    9  C7  UNL     1      15.828  29.147  10.047  1.00  0.00     0.066 C
HETATM   10  C8  UNL     1      14.837  28.119  10.439  1.00  0.00     0.132 C
HETATM   11  O3  UNL     1      14.354  27.271   9.705  1.00  0.00    -0.298 OA
HETATM   12  C9  UNL     1      14.468  28.207  11.827  1.00  0.00     0.085 C
HETATM   13  C10 UNL     1      15.703  27.898  12.619  1.00  0.00     0.012 C
HETATM   14  C11 UNL     1      15.222  27.921  13.989  1.00  0.00    -0.017 C
HETATM   15  C12 UNL     1      14.064  28.870  14.265  1.00  0.00     0.018 C
HETATM   16  C13 UNL     1      14.513  26.550  14.233  1.00  0.00     0.018 C
HETATM   17  C14 UNL     1      16.166  27.994  15.135  1.00  0.00     0.126 C
HETATM   18  C15 UNL     1      17.384  28.711  14.737  1.00  0.00     0.033 C
HETATM   19  C16 UNL     1      17.286  29.477  13.438  1.00  0.00     0.013 C
HETATM   20  C17 UNL     1      16.999  28.569  12.220  1.00  0.00    -0.029 C
HETATM   21  C18 UNL     1      18.072  27.521  12.535  1.00  0.00     0.016 C
HETATM   22  C19 UNL     1      17.071  29.256  10.920  1.00  0.00    -0.000 C
HETATM   23  C20 UNL     1      18.205  28.908   9.941  1.00  0.00    -0.008 C
HETATM   24  C21 UNL     1      18.049  27.518   9.351  1.00  0.00     0.019 C
ENDROOT
BRANCH  23  25
HETATM   25  C22 UNL     1      19.592  28.963  10.414  1.00  0.00     0.012 C
BRANCH  25  26
HETATM   26  C23 UNL     1      20.240  29.862  11.311  1.00  0.00     0.001 C
BRANCH  26  27
HETATM   27  C24 UNL     1      21.314  30.638  10.530  1.00  0.00     0.000 C
BRANCH  27  28
HETATM   28  C25 UNL     1      22.018  31.655  11.379  1.00  0.00     0.002 C
BRANCH  28  29
HETATM   29  C26 UNL     1      23.086  30.995  12.226  1.00  0.00     0.030 C
BRANCH  29  30
HETATM   30  C27 UNL     1      24.477  31.390  11.864  1.00  0.00     0.271 C
BRANCH  30  31
HETATM   31  N1  UNL     1      24.569  31.975  10.535  1.00  0.00     0.080 N
HETATM   32  C28 UNL     1      25.499  33.113  10.531  1.00  0.00     0.309 C
HETATM   33  C29 UNL     1      25.240  30.954   9.712  1.00  0.00     0.309 C
ENDBRANCH  30  31
ENDBRANCH  29  30
ENDBRANCH  28  29
ENDBRANCH  27  28
ENDBRANCH  26  27
ENDBRANCH  25  26
ENDBRANCH  23  25
BRANCH  17  34
HETATM   34  O4  UNL     1      15.565  28.534  16.271  1.00  0.00    -0.395 OA
ATOM     35  H4  UNL     1      15.766  28.032  17.052  1.00  0.00     0.210 HD
ENDBRANCH  17  34
TORSDOF 8
ENDMDL