MODEL 3
REMARK VINA RESULT: -6.290239500      2.989      5.913
REMARK  6 active torsions:
REMARK  status: ('A' for Active; 'I' for Inactive)
REMARK    1  A    between atoms: C2_5  and  C3_6
REMARK    2  A    between atoms: C3_6  and  N3_7
REMARK    3  A    between atoms: C3_6  and  C4_11
REMARK       I    between atoms: C4_11  and  N4_13
REMARK    4  A    between atoms: N4_13  and  N5_15
REMARK    5  A    between atoms: N5_15  and  C5_17
REMARK    6  A    between atoms: N7_21  and  O2_22
ROOT
HETATM    1  C3  UNL     1     -18.810  60.087 -35.809  1.00  0.00     0.328 C
ENDROOT
BRANCH   1   2
HETATM    2  C2  UNL     1     -17.344  60.166 -35.592  1.00  0.00     0.086 A
HETATM    3  N2  UNL     1     -16.523  61.154 -36.058  1.00  0.00    -0.283 N
HETATM    4  N1  UNL     1     -15.284  60.942 -35.691  1.00  0.00    -0.212 N
ATOM      5  H2  UNL     1     -16.833  61.950 -36.616  1.00  0.00     0.188 HD
HETATM    6  C1  UNL     1     -14.109  61.775 -36.007  1.00  0.00     0.202 C
HETATM    7  N7  UNL     1     -15.234  59.837 -34.985  1.00  0.00    -0.157 N
HETATM    8  C6  UNL     1     -16.493  59.333 -34.907  1.00  0.00     0.174 A
BRANCH   7   9
HETATM    9  O2  UNL     1     -14.124  59.268 -34.406  1.00  0.00    -0.267 OA
ATOM     10  H2  UNL     1     -13.384  59.716 -34.016  1.00  0.00     0.247 HD
ENDBRANCH   7   9
ENDBRANCH   1   2
BRANCH   1  11
HETATM   11  N3  UNL     1     -19.395  61.378 -35.554  1.00  0.00    -0.061 N
ATOM     12  H33 UNL     1     -19.606  61.519 -34.566  1.00  0.00     0.275 HD
ATOM     13  H32 UNL     1     -18.724  62.137 -35.667  1.00  0.00     0.275 HD
ATOM     14  H31 UNL     1     -20.216  61.495 -36.147  1.00  0.00     0.275 HD
ENDBRANCH   1  11
BRANCH   1  15
HETATM   15  C4  UNL     1     -19.452  58.965 -35.153  1.00  0.00     0.273 C
HETATM   16  O1  UNL     1     -20.000  59.073 -34.022  1.00  0.00    -0.269 OA
HETATM   17  N4  UNL     1     -19.505  57.676 -35.763  1.00  0.00    -0.266 N
ATOM     18  H4  UNL     1     -19.054  57.562 -36.670  1.00  0.00     0.190 HD
BRANCH  17  19
HETATM   19  N5  UNL     1     -20.126  56.568 -35.210  1.00  0.00    -0.276 N
ATOM     20  H5  UNL     1     -21.087  56.360 -35.482  1.00  0.00     0.189 HD
BRANCH  19  21
HETATM   21  C5  UNL     1     -19.497  55.725 -34.298  1.00  0.00     0.199 C
HETATM   22  N6  UNL     1     -18.276  55.093 -34.590  1.00  0.00    -0.068 NA
HETATM   23  S1  UNL     1     -20.196  55.443 -32.847  1.00  0.00    -0.043 SA
ENDBRANCH  19  21
ENDBRANCH  17  19
ENDBRANCH   1  15
TORSDOF 6
ENDMDL