MODEL 3
REMARK VINA RESULT: -6.559835610      2.312      3.700
REMARK  6 active torsions:
REMARK  status: ('A' for Active; 'I' for Inactive)
REMARK    1  A    between atoms: O1_2  and  C2_3
REMARK    2  A    between atoms: C2_3  and  O2_4
REMARK    3  A    between atoms: C2_3  and  C3_6
REMARK    4  A    between atoms: C3_6  and  O3_7
REMARK    5  A    between atoms: C3_6  and  N1_9
REMARK       I    between atoms: N1_9  and  C4_10
REMARK       I    between atoms: C4_10  and  N4_15
REMARK    6  A    between atoms: N4_15  and  C6_17
ROOT
HETATM    1  N1  UNL     1     -19.291  57.940 -34.373  1.00  0.00    -0.344 NA
HETATM    2  C4  UNL     1     -18.186  57.237 -34.729  1.00  0.00     0.285 C
HETATM    3  N2  UNL     1     -18.255  55.930 -34.665  1.00  0.00    -0.252 N
ATOM      4  H2  UNL     1     -17.425  55.398 -34.928  1.00  0.00     0.182 HD
HETATM    5  C5  UNL     1     -19.371  55.223 -34.268  1.00  0.00     0.185 C
HETATM    6  N3  UNL     1     -20.311  54.597 -33.923  1.00  0.00    -0.172 NA
HETATM    7  N4  UNL     1     -16.961  57.706 -35.210  1.00  0.00    -0.145 N
ATOM      8  H4  UNL     1     -16.608  57.207 -36.026  1.00  0.00     0.188 HD
ENDROOT
BRANCH   1   9
HETATM    9  C3  UNL     1     -20.386  58.635 -34.022  1.00  0.00     0.249 C
BRANCH   9  10
HETATM   10  C2  UNL     1     -20.846  59.976 -34.539  1.00  0.00     0.348 C
BRANCH  10  11
HETATM   11  O1  UNL     1     -20.510  60.085 -35.858  1.00  0.00    -0.358 OA
HETATM   12  C1  UNL     1     -19.472  60.784 -36.299  1.00  0.00     0.205 C
ENDBRANCH  10  11
BRANCH  10  13
HETATM   13  O2  UNL     1     -22.303  59.816 -34.631  1.00  0.00    -0.363 OA
ATOM     14  H2  UNL     1     -22.367  59.032 -35.163  1.00  0.00     0.213 HD
ENDBRANCH  10  13
ENDBRANCH   9  10
BRANCH   9  15
HETATM   15  O3  UNL     1     -21.250  58.220 -33.140  1.00  0.00    -0.335 OA
ATOM     16  H3  UNL     1     -21.143  57.281 -33.038  1.00  0.00     0.220 HD
ENDBRANCH   9  15
ENDBRANCH   1   9
BRANCH   7  17
HETATM   17  C6  UNL     1     -16.215  58.642 -34.807  1.00  0.00     0.717 A
HETATM   18  N5  UNL     1     -14.894  58.862 -34.797  1.00  0.00    -0.115 N
HETATM   19  N6  UNL     1     -14.645  60.007 -34.211  1.00  0.00    -0.213 N
ATOM     20  H5  UNL     1     -14.190  58.234 -35.185  1.00  0.00     0.207 HD
HETATM   21  N7  UNL     1     -15.785  60.565 -33.822  1.00  0.00    -0.213 N
ATOM     22  H6  UNL     1     -13.717  60.407 -34.074  1.00  0.00     0.210 HD
HETATM   23  N8  UNL     1     -16.748  59.748 -34.179  1.00  0.00    -0.115 N
ATOM     24  H7  UNL     1     -15.891  61.457 -33.340  1.00  0.00     0.210 HD
ATOM     25  H8  UNL     1     -17.742  59.907 -34.015  1.00  0.00     0.207 HD
ENDBRANCH   7  17
TORSDOF 6
ENDMDL