MODEL 5
REMARK VINA RESULT: -6.856799326      1.363      1.449
REMARK  4 active torsions:
REMARK  status: ('A' for Active; 'I' for Inactive)
REMARK    1  A    between atoms: C1_2  and  C2_4
REMARK    2  A    between atoms: C4_9  and  N4_10
REMARK    3  A    between atoms: C9_20  and  N7_21
REMARK    4  A    between atoms: N7_21  and  O2_23
ROOT
HETATM    1  C2  UNL     1     -18.536  58.057 -34.765  1.00  0.00     0.117 A
HETATM    2  C3  UNL     1     -17.280  57.634 -35.129  1.00  0.00     0.151 A
HETATM    3  N2  UNL     1     -17.020  56.214 -35.165  1.00  0.00    -0.081 NA
HETATM    4  N3  UNL     1     -16.318  58.520 -35.445  1.00  0.00    -0.178 N
ATOM      5  H3  UNL     1     -15.394  58.179 -35.712  1.00  0.00     0.185 HD
HETATM    6  C4  UNL     1     -16.548  59.848 -35.416  1.00  0.00     0.683 A
HETATM    7  N6  UNL     1     -17.780  60.251 -35.058  1.00  0.00    -0.174 N
ATOM      8  H6  UNL     1     -17.968  61.253 -35.031  1.00  0.00     0.186 HD
HETATM    9  C9  UNL     1     -18.778  59.412 -34.732  1.00  0.00     0.159 A
ENDROOT
BRANCH   6  10
HETATM   10  N4  UNL     1     -15.504  60.784 -35.758  1.00  0.00    -0.214 N
HETATM   11  C5  UNL     1     -15.670  61.626 -36.899  1.00  0.00     0.168 C
HETATM   12  C6  UNL     1     -14.619  62.712 -36.916  1.00  0.00     0.252 C
HETATM   13  N5  UNL     1     -13.330  62.055 -36.776  1.00  0.00    -0.072 N
HETATM   14  C7  UNL     1     -13.158  61.474 -35.469  1.00  0.00     0.252 C
ATOM     15  H52 UNL     1     -13.186  61.362 -37.510  1.00  0.00     0.277 HD
ATOM     16  H51 UNL     1     -12.565  62.691 -37.002  1.00  0.00     0.277 HD
HETATM   17  C8  UNL     1     -14.356  60.808 -34.919  1.00  0.00     0.168 C
ENDBRANCH   6  10
BRANCH   9  18
HETATM   18  N7  UNL     1     -19.955  59.811 -34.390  1.00  0.00    -0.252 N
ATOM     19  H7  UNL     1     -20.103  60.122 -33.430  1.00  0.00     0.196 HD
BRANCH  18  20
HETATM   20  O2  UNL     1     -21.013  59.838 -35.252  1.00  0.00    -0.288 OA
ATOM     21  H2  UNL     1     -21.381  59.056 -35.646  1.00  0.00     0.244 HD
ENDBRANCH  18  20
ENDBRANCH   9  18
BRANCH   1  22
HETATM   22  C1  UNL     1     -19.611  57.144 -34.414  1.00  0.00     0.272 C
HETATM   23  N1  UNL     1     -20.479  56.619 -35.406  1.00  0.00    -0.057 NA
HETATM   24  O1  UNL     1     -19.803  56.790 -33.222  1.00  0.00    -0.271 OA
ENDBRANCH   1  22
TORSDOF 4
ENDMDL