MODEL 4
REMARK VINA RESULT: -7.302686212      1.409      2.803
REMARK  4 active torsions:
REMARK  status: ('A' for Active; 'I' for Inactive)
REMARK    1  A    between atoms: C2_7  and  C3_8
REMARK    2  A    between atoms: C4_9  and  C5_10
REMARK    3  A    between atoms: N3_11  and  O1_12
REMARK    4  A    between atoms: N5_16  and  O3_17
ROOT
HETATM    1  N1  UNL     1     -16.699  55.301 -35.364  1.00  0.00    -0.234 N
ATOM      2  H11 UNL     1     -17.198  54.411 -35.361  1.00  0.00     0.174 HD
ATOM      3  H12 UNL     1     -15.691  55.348 -35.510  1.00  0.00     0.174 HD
HETATM    4  C1  UNL     1     -17.323  56.419 -35.184  1.00  0.00     0.678 A
HETATM    5  N2  UNL     1     -16.629  57.657 -35.189  1.00  0.00    -0.190 N
ATOM      6  H2  UNL     1     -15.621  57.644 -35.340  1.00  0.00     0.184 HD
HETATM    7  C2  UNL     1     -17.207  58.807 -35.011  1.00  0.00     0.079 A
HETATM    8  C6  UNL     1     -18.641  58.814 -34.798  1.00  0.00     0.098 A
HETATM    9  N6  UNL     1     -19.265  59.922 -34.619  1.00  0.00    -0.394 N
ATOM     10  H61 UNL     1     -20.274  59.927 -34.469  1.00  0.00     0.156 HD
ATOM     11  H62 UNL     1     -18.721  60.784 -34.631  1.00  0.00     0.156 HD
HETATM   12  C7  UNL     1     -19.427  57.567 -34.781  1.00  0.00     0.143 A
HETATM   13  N7  UNL     1     -20.700  57.552 -34.594  1.00  0.00    -0.383 N
ATOM     14  H71 UNL     1     -21.244  56.690 -34.582  1.00  0.00     0.157 HD
ATOM     15  H72 UNL     1     -21.203  58.428 -34.451  1.00  0.00     0.157 HD
HETATM   16  N8  UNL     1     -18.731  56.353 -34.980  1.00  0.00    -0.175 N
ATOM     17  H8  UNL     1     -19.221  55.459 -34.977  1.00  0.00     0.186 HD
ENDROOT
BRANCH   7  18
HETATM   18  C3  UNL     1     -16.390  60.043 -35.034  1.00  0.00     0.036 C
HETATM   19  C4  UNL     1     -15.833  60.456 -36.141  1.00  0.00     0.059 C
BRANCH  19  20
HETATM   20  C5  UNL     1     -15.019  61.622 -36.328  1.00  0.00     0.204 A
HETATM   21  N3  UNL     1     -13.761  61.845 -35.921  1.00  0.00    -0.118 N
HETATM   22  N4  UNL     1     -13.457  63.075 -36.341  1.00  0.00     0.080 NA
HETATM   23  O2  UNL     1     -14.473  63.561 -36.964  1.00  0.00    -0.110 OA
HETATM   24  N5  UNL     1     -15.454  62.738 -36.994  1.00  0.00    -0.084 N
BRANCH  21  25
HETATM   25  O1  UNL     1     -12.933  61.018 -35.225  1.00  0.00    -0.267 OA
ATOM     26  H1  UNL     1     -12.240  60.458 -35.554  1.00  0.00     0.246 HD
ENDBRANCH  21  25
BRANCH  24  27
HETATM   27  O3  UNL     1     -16.692  62.942 -37.580  1.00  0.00    -0.260 OA
ATOM     28  H3  UNL     1     -17.513  62.517 -37.362  1.00  0.00     0.247 HD
ENDBRANCH  24  27
ENDBRANCH  19  20
ENDBRANCH   7  18
TORSDOF 4
ENDMDL