MODEL 5
REMARK VINA RESULT: -6.108135345      1.377      1.680
REMARK  8 active torsions:
REMARK  status: ('A' for Active; 'I' for Inactive)
REMARK    1  A    between atoms: C2_2  and  O2_4
REMARK    2  A    between atoms: O2_4  and  C3_5
REMARK    3  A    between atoms: C3_5  and  C4_6
REMARK    4  A    between atoms: C5_7  and  C6_8
REMARK    5  A    between atoms: C7_9  and  C8_10
REMARK    6  A    between atoms: C8_10  and  N3_16
REMARK    7  A    between atoms: N1_11  and  N2_13
REMARK    8  A    between atoms: N3_16  and  N4_18
ROOT
HETATM    1  C6  UNL     1     -18.478  57.375 -34.774  1.00  0.00     0.133 A
HETATM    2  C7  UNL     1     -19.799  57.718 -34.731  1.00  0.00     0.129 A
HETATM    3  N5  UNL     1     -20.487  56.561 -34.843  1.00  0.00    -0.278 N
ATOM      4  H5  UNL     1     -21.503  56.482 -34.845  1.00  0.00     0.184 HD
HETATM    5  N6  UNL     1     -19.647  55.545 -34.952  1.00  0.00    -0.019 NA
HETATM    6  N7  UNL     1     -18.414  56.024 -34.912  1.00  0.00    -0.270 N
HETATM    7  C9  UNL     1     -17.180  55.266 -34.997  1.00  0.00     0.176 C
ENDROOT
BRANCH   2   8
HETATM    8  C8  UNL     1     -20.407  59.021 -34.594  1.00  0.00     0.165 C
HETATM    9  N1  UNL     1     -20.365  59.836 -35.575  1.00  0.00    -0.289 N
ATOM     10  H1  UNL     1     -20.800  60.751 -35.457  1.00  0.00     0.188 HD
BRANCH   9  11
HETATM   11  N2  UNL     1     -19.759  59.551 -36.800  1.00  0.00    -0.344 N
ATOM     12  H22 UNL     1     -18.897  59.005 -36.774  1.00  0.00     0.176 HD
ATOM     13  H21 UNL     1     -20.126  59.855 -37.701  1.00  0.00     0.176 HD
ENDBRANCH   9  11
BRANCH   8  14
HETATM   14  N3  UNL     1     -21.046  59.413 -33.401  1.00  0.00    -0.289 N
ATOM     15  H3  UNL     1     -20.523  59.378 -32.526  1.00  0.00     0.188 HD
BRANCH  14  16
HETATM   16  N4  UNL     1     -22.390  59.855 -33.376  1.00  0.00    -0.344 N
ATOM     17  H42 UNL     1     -23.060  59.376 -33.977  1.00  0.00     0.176 HD
ATOM     18  H41 UNL     1     -22.698  60.626 -32.783  1.00  0.00     0.176 HD
ENDBRANCH  14  16
ENDBRANCH   8  14
ENDBRANCH   2   8
BRANCH   1  19
HETATM   19  C5  UNL     1     -17.386  58.302 -34.688  1.00  0.00    -0.043 C
HETATM   20  C4  UNL     1     -16.467  59.088 -34.634  1.00  0.00    -0.073 C
BRANCH  20  21
HETATM   21  C3  UNL     1     -15.340  60.042 -34.595  1.00  0.00     0.272 C
BRANCH  21  22
HETATM   22  O2  UNL     1     -15.868  61.302 -34.955  1.00  0.00    -0.310 OA
BRANCH  22  23
HETATM   23  C2  UNL     1     -16.506  61.395 -36.184  1.00  0.00     0.255 C
HETATM   24  C1  UNL     1     -15.770  61.202 -37.472  1.00  0.00     0.126 C
HETATM   25  O1  UNL     1     -17.741  61.647 -36.278  1.00  0.00    -0.266 OA
ENDBRANCH  22  23
ENDBRANCH  21  22
ENDBRANCH  20  21
ENDBRANCH   1  19
TORSDOF 8
ENDMDL