MODEL 5
REMARK VINA RESULT: -6.562279264      1.977      2.532
REMARK  5 active torsions:
REMARK  status: ('A' for Active; 'I' for Inactive)
REMARK    1  A    between atoms: N1_1  and  C1_4
REMARK    2  A    between atoms: C2_7  and  N3_8
REMARK    3  A    between atoms: C7_16  and  N5_17
REMARK       I    between atoms: N5_17  and  C8_19
REMARK    4  A    between atoms: C8_19  and  O3_21
REMARK    5  A    between atoms: O3_21  and  N6_22
ROOT
HETATM    1  C1  UNL     1     -17.006  55.761 -35.223  1.00  0.00     0.705 A
HETATM    2  N2  UNL     1     -16.398  56.955 -35.321  1.00  0.00    -0.022 N
ATOM      3  H2  UNL     1     -15.457  57.009 -35.711  1.00  0.00     0.203 HD
HETATM    4  C2  UNL     1     -17.024  58.096 -34.907  1.00  0.00     0.709 A
HETATM    5  N4  UNL     1     -18.259  57.930 -34.407  1.00  0.00    -0.021 N
ATOM      6  H4  UNL     1     -18.756  58.762 -34.087  1.00  0.00     0.203 HD
HETATM    7  C7  UNL     1     -18.888  56.746 -34.297  1.00  0.00     0.715 A
HETATM    8  N7  UNL     1     -18.246  55.646 -34.713  1.00  0.00    -0.021 N
ATOM      9  H7  UNL     1     -18.693  54.731 -34.644  1.00  0.00     0.203 HD
ENDROOT
BRANCH   7  10
HETATM   10  N5  UNL     1     -20.080  56.666 -33.803  1.00  0.00    -0.132 N
HETATM   11  C8  UNL     1     -20.536  55.605 -33.013  1.00  0.00     0.400 C
HETATM   12  O2  UNL     1     -21.056  54.548 -33.453  1.00  0.00    -0.236 OA
ATOM     13  H5  UNL     1     -20.731  57.425 -34.003  1.00  0.00     0.190 HD
BRANCH  11  14
HETATM   14  O3  UNL     1     -20.409  55.722 -31.617  1.00  0.00    -0.188 OA
BRANCH  14  15
HETATM   15  N6  UNL     1     -20.437  54.622 -30.799  1.00  0.00    -0.301 N
ATOM     16  H62 UNL     1     -19.866  54.634 -29.954  1.00  0.00     0.184 HD
ATOM     17  H61 UNL     1     -21.011  53.807 -31.020  1.00  0.00     0.184 HD
ENDBRANCH  14  15
ENDBRANCH  11  14
ENDBRANCH   7  10
BRANCH   4  18
HETATM   18  N3  UNL     1     -16.390  59.356 -35.008  1.00  0.00    -0.213 N
HETATM   19  C3  UNL     1     -17.146  60.537 -35.330  1.00  0.00     0.167 C
HETATM   20  C4  UNL     1     -16.357  61.384 -36.274  1.00  0.00     0.188 C
HETATM   21  O1  UNL     1     -15.032  61.517 -35.962  1.00  0.00    -0.388 OA
HETATM   22  C5  UNL     1     -14.697  60.998 -34.717  1.00  0.00     0.188 C
HETATM   23  C6  UNL     1     -14.974  59.490 -34.792  1.00  0.00     0.167 C
ENDBRANCH   4  18
BRANCH   1  24
HETATM   24  N1  UNL     1     -16.400  54.675 -35.621  1.00  0.00    -0.234 N
ATOM     25  H12 UNL     1     -15.405  54.730 -35.837  1.00  0.00     0.174 HD
ATOM     26  H11 UNL     1     -16.916  53.800 -35.713  1.00  0.00     0.174 HD
ENDBRANCH   1  24
TORSDOF 5
ENDMDL