MODEL 1
REMARK VINA RESULT: -6.743236518      0.000      0.000
REMARK  5 active torsions:
REMARK  status: ('A' for Active; 'I' for Inactive)
REMARK    1  A    between atoms: O1_2  and  C2_3
REMARK    2  A    between atoms: C3_6  and  N2_7
REMARK    3  A    between atoms: C6_12  and  N4_13
REMARK       I    between atoms: N4_13  and  C7_14
REMARK       I    between atoms: C7_14  and  N5_16
REMARK    4  A    between atoms: N5_16  and  N6_18
REMARK    5  A    between atoms: N6_18  and  N7_19
ROOT
HETATM    1  C2  UNL     1     -20.334  57.029 -33.523  1.00  0.00     0.241 A
HETATM    2  N1  UNL     1     -19.207  57.748 -33.439  1.00  0.00    -0.154 N
ATOM      3  H1  UNL     1     -18.713  57.809 -32.548  1.00  0.00     0.188 HD
HETATM    4  C3  UNL     1     -18.718  58.393 -34.519  1.00  0.00     0.686 A
HETATM    5  N3  UNL     1     -19.365  58.316 -35.685  1.00  0.00    -0.148 N
ATOM      6  H3  UNL     1     -18.983  58.809 -36.492  1.00  0.00     0.188 HD
HETATM    7  C6  UNL     1     -20.526  57.596 -35.840  1.00  0.00     0.281 A
HETATM    8  N8  UNL     1     -20.947  56.973 -34.689  1.00  0.00    -0.281 N
ATOM      9  H8  UNL     1     -21.803  56.422 -34.741  1.00  0.00     0.173 HD
ENDROOT
BRANCH   7  10
HETATM   10  N4  UNL     1     -21.144  57.518 -36.865  1.00  0.00    -0.314 NA
HETATM   11  C7  UNL     1     -21.643  57.402 -38.065  1.00  0.00     0.413 C
HETATM   12  O2  UNL     1     -22.782  56.839 -38.283  1.00  0.00    -0.229 OA
HETATM   13  N5  UNL     1     -20.988  57.879 -39.228  1.00  0.00    -0.224 N
ATOM     14  H5  UNL     1     -20.082  58.336 -39.128  1.00  0.00     0.190 HD
BRANCH  13  15
HETATM   15  N6  UNL     1     -21.529  57.748 -40.494  1.00  0.00    -0.025 NA
BRANCH  15  16
HETATM   16  N7  UNL     1     -20.666  57.095 -41.364  1.00  0.00    -0.329 N
ATOM     17  H72 UNL     1     -19.706  56.851 -41.119  1.00  0.00     0.174 HD
ATOM     18  H71 UNL     1     -21.108  56.894 -42.261  1.00  0.00     0.174 HD
ENDBRANCH  15  16
ENDBRANCH  13  15
ENDBRANCH   7  10
BRANCH   4  19
HETATM   19  N2  UNL     1     -17.513  59.166 -34.438  1.00  0.00    -0.226 N
HETATM   20  C4  UNL     1     -17.472  60.513 -33.913  1.00  0.00     0.168 C
HETATM   21  C5  UNL     1     -16.259  58.584 -34.889  1.00  0.00     0.168 C
ENDBRANCH   4  19
BRANCH   1  22
HETATM   22  O1  UNL     1     -20.801  56.387 -32.405  1.00  0.00    -0.327 OA
HETATM   23  C1  UNL     1     -20.252  55.349 -31.683  1.00  0.00     0.213 C
ENDBRANCH   1  22
TORSDOF 5
ENDMDL