MODEL 1
REMARK VINA RESULT: -7.307629921      0.000      0.000
REMARK  5 active torsions:
REMARK  status: ('A' for Active; 'I' for Inactive)
REMARK    1  A    between atoms: C4_7  and  N3_8
REMARK    2  A    between atoms: N3_8  and  N4_10
REMARK    3  A    between atoms: C6_15  and  N6_16
REMARK    4  A    between atoms: N6_16  and  N7_18
REMARK    5  A    between atoms: C8_22  and  N8_23
ROOT
HETATM    1  N4  UNL     1     -16.871  57.166 -35.362  1.00  0.00    -0.268 N
ATOM      2  H4  UNL     1     -16.381  56.291 -35.177  1.00  0.00     0.189 HD
HETATM    3  C5  UNL     1     -18.078  57.265 -34.924  1.00  0.00     0.170 C
HETATM    4  N5  UNL     1     -18.886  58.407 -35.097  1.00  0.00    -0.327 N
ATOM      5  H5  UNL     1     -18.519  59.219 -35.594  1.00  0.00     0.169 HD
HETATM    6  C6  UNL     1     -20.088  58.428 -34.629  1.00  0.00     0.099 C
HETATM    7  C7  UNL     1     -20.721  57.315 -33.895  1.00  0.00     0.119 C
HETATM    8  C8  UNL     1     -19.741  56.392 -33.249  1.00  0.00     0.268 C
HETATM    9  C9  UNL     1     -18.637  56.125 -34.208  1.00  0.00     0.225 C
HETATM   10  O1  UNL     1     -18.194  54.942 -34.397  1.00  0.00    -0.287 OA
ENDROOT
BRANCH   1  11
HETATM   11  N3  UNL     1     -16.186  58.131 -36.054  1.00  0.00    -0.131 N
ATOM     12  H3  UNL     1     -16.086  58.058 -37.067  1.00  0.00     0.205 HD
BRANCH  11  13
HETATM   13  C4  UNL     1     -15.608  59.247 -35.351  1.00  0.00     0.690 C
HETATM   14  N1  UNL     1     -15.844  60.606 -35.696  1.00  0.00    -0.220 N
HETATM   15  C1  UNL     1     -16.945  61.177 -36.436  1.00  0.00     0.168 C
HETATM   16  C2  UNL     1     -14.723  61.336 -35.140  1.00  0.00     0.161 C
HETATM   17  C3  UNL     1     -14.442  60.519 -33.897  1.00  0.00     0.158 C
HETATM   18  N2  UNL     1     -14.810  59.187 -34.327  1.00  0.00    -0.223 N
ATOM     19  H2  UNL     1     -14.489  58.324 -33.889  1.00  0.00     0.177 HD
ENDBRANCH  11  13
ENDBRANCH   1  11
BRANCH   6  20
HETATM   20  N6  UNL     1     -20.915  59.600 -34.807  1.00  0.00    -0.295 N
ATOM     21  H6  UNL     1     -20.679  60.313 -35.498  1.00  0.00     0.187 HD
BRANCH  20  22
HETATM   22  N7  UNL     1     -22.051  59.722 -33.998  1.00  0.00    -0.344 N
ATOM     23  H72 UNL     1     -21.992  59.534 -32.997  1.00  0.00     0.176 HD
ATOM     24  H71 UNL     1     -22.923  60.001 -34.446  1.00  0.00     0.176 HD
ENDBRANCH  20  22
ENDBRANCH   6  20
BRANCH   8  25
HETATM   25  N8  UNL     1     -20.359  55.135 -32.887  1.00  0.00    -0.067 N
ATOM     26  H83 UNL     1     -20.996  55.244 -32.098  1.00  0.00     0.275 HD
ATOM     27  H82 UNL     1     -21.032  54.832 -33.592  1.00  0.00     0.275 HD
ATOM     28  H81 UNL     1     -19.660  54.415 -32.705  1.00  0.00     0.275 HD
ENDBRANCH   8  25
TORSDOF 5
ENDMDL