MODEL 5
REMARK VINA RESULT: -6.061935679      7.758     11.519
REMARK  4 active torsions:
REMARK  status: ('A' for Active; 'I' for Inactive)
REMARK    1  A    between atoms: O1_2  and  N1_3
REMARK       I    between atoms: N1_3  and  C3_5
REMARK    2  A    between atoms: C3_5  and  C4_7
REMARK    3  A    between atoms: C5_10  and  N3_11
REMARK    4  A    between atoms: N6_21  and  N7_23
ROOT
HETATM    1  C4  UNL     1     -10.274  62.469 -37.912  1.00  0.00     0.164 C
HETATM    2  N2  UNL     1     -10.498  62.240 -39.220  1.00  0.00    -0.182 N
ATOM      3  H2  UNL     1     -10.587  61.263 -39.499  1.00  0.00     0.184 HD
HETATM    4  C5  UNL     1     -10.621  63.165 -40.212  1.00  0.00     0.680 C
HETATM    5  N4  UNL     1     -10.049  64.393 -40.248  1.00  0.00    -0.141 N
ATOM      6  H4  UNL     1     -10.055  64.849 -41.160  1.00  0.00     0.189 HD
HETATM    7  C6  UNL     1      -9.476  65.098 -39.261  1.00  0.00     0.340 C
HETATM    8  O3  UNL     1      -9.362  66.365 -39.442  1.00  0.00    -0.246 OA
HETATM    9  N5  UNL     1      -9.009  64.602 -38.107  1.00  0.00    -0.291 N
ATOM     10  H5  UNL     1      -8.306  65.166 -37.631  1.00  0.00     0.172 HD
HETATM   11  C7  UNL     1      -9.356  63.440 -37.491  1.00  0.00     0.157 C
HETATM   12  N6  UNL     1      -8.794  63.137 -36.379  1.00  0.00    -0.290 N
ATOM     13  H6  UNL     1      -9.020  62.271 -35.888  1.00  0.00     0.188 HD
ENDROOT
BRANCH   1  14
HETATM   14  C3  UNL     1     -10.943  61.736 -36.875  1.00  0.00     0.297 C
HETATM   15  N1  UNL     1     -12.169  62.023 -36.236  1.00  0.00    -0.226 N
HETATM   16  C2  UNL     1     -12.950  63.182 -36.761  1.00  0.00     0.189 C
HETATM   17  O2  UNL     1     -10.347  60.676 -36.465  1.00  0.00    -0.264 OA
BRANCH  15  18
HETATM   18  O1  UNL     1     -12.752  61.367 -35.250  1.00  0.00    -0.280 OA
HETATM   19  C1  UNL     1     -14.027  61.023 -35.178  1.00  0.00     0.238 C
ENDBRANCH  15  18
ENDBRANCH   1  14
BRANCH   4  20
HETATM   20  N3  UNL     1     -11.338  62.866 -41.227  1.00  0.00    -0.234 N
ATOM     21  H32 UNL     1     -12.270  62.512 -41.014  1.00  0.00     0.174 HD
ATOM     22  H31 UNL     1     -10.939  63.006 -42.155  1.00  0.00     0.174 HD
ENDBRANCH   4  20
BRANCH  12  23
HETATM   23  N7  UNL     1      -7.851  64.047 -35.862  1.00  0.00    -0.344 N
ATOM     24  H72 UNL     1      -7.103  64.409 -36.454  1.00  0.00     0.176 HD
ATOM     25  H71 UNL     1      -7.952  64.321 -34.884  1.00  0.00     0.176 HD
ENDBRANCH  12  23
TORSDOF 4
ENDMDL