MODEL 3
REMARK VINA RESULT: -6.697469145      3.455      6.079
REMARK  4 active torsions:
REMARK  status: ('A' for Active; 'I' for Inactive)
REMARK    1  A    between atoms: O1_3  and  C2_4
REMARK    2  A    between atoms: C6_9  and  N2_10
REMARK    3  A    between atoms: C6_9  and  C7_14
REMARK       I    between atoms: C7_14  and  N3_16
REMARK       I    between atoms: N3_16  and  C8_18
REMARK    4  A    between atoms: N5_20  and  N6_22
ROOT
HETATM    1  N1  UNL     1     -22.548  56.636 -38.120  1.00  0.00    -0.164 NA
HETATM    2  C1  UNL     1     -21.751  57.313 -37.625  1.00  0.00     0.234 C
HETATM    3  O1  UNL     1     -20.801  58.112 -37.012  1.00  0.00    -0.242 OA
ENDROOT
BRANCH   3   4
HETATM    4  C2  UNL     1     -20.568  57.885 -35.645  1.00  0.00     0.116 C
HETATM    5  C3  UNL     1     -20.780  56.723 -35.056  1.00  0.00     0.087 C
HETATM    6  C4  UNL     1     -20.442  56.815 -33.639  1.00  0.00     0.155 C
HETATM    7  O2  UNL     1     -20.832  56.131 -32.700  1.00  0.00    -0.293 OA
HETATM    8  C5  UNL     1     -19.490  57.954 -33.577  1.00  0.00     0.139 C
HETATM    9  C6  UNL     1     -20.076  58.839 -34.671  1.00  0.00     0.259 C
BRANCH   9  10
HETATM   10  N2  UNL     1     -21.249  59.500 -34.085  1.00  0.00    -0.055 N
ATOM     11  H23 UNL     1     -22.089  59.406 -34.656  1.00  0.00     0.276 HD
ATOM     12  H22 UNL     1     -21.603  59.026 -33.254  1.00  0.00     0.276 HD
ATOM     13  H21 UNL     1     -20.990  60.471 -33.911  1.00  0.00     0.276 HD
ENDBRANCH   9  10
BRANCH   9  14
HETATM   14  C7  UNL     1     -19.126  59.822 -35.166  1.00  0.00     0.267 C
HETATM   15  O3  UNL     1     -17.921  59.791 -34.833  1.00  0.00    -0.270 OA
HETATM   16  N3  UNL     1     -19.563  60.848 -36.047  1.00  0.00    -0.297 N
HETATM   17  C8  UNL     1     -18.694  61.834 -36.564  1.00  0.00     0.209 C
ATOM     18  H3  UNL     1     -20.546  60.873 -36.318  1.00  0.00     0.171 HD
HETATM   19  N4  UNL     1     -17.336  61.794 -36.186  1.00  0.00    -0.062 NA
HETATM   20  N5  UNL     1     -19.130  62.737 -37.352  1.00  0.00    -0.280 N
ATOM     21  H5  UNL     1     -20.120  62.723 -37.594  1.00  0.00     0.189 HD
BRANCH  20  22
HETATM   22  N6  UNL     1     -18.341  63.734 -37.899  1.00  0.00    -0.343 N
ATOM     23  H62 UNL     1     -18.811  64.427 -38.482  1.00  0.00     0.176 HD
ATOM     24  H61 UNL     1     -17.335  63.811 -37.752  1.00  0.00     0.176 HD
ENDBRANCH  20  22
ENDBRANCH   9  14
ENDBRANCH   3   4
TORSDOF 4
ENDMDL