MODEL 5
REMARK VINA RESULT: -6.712558721      6.404     10.154
REMARK  10 active torsions:
REMARK  status: ('A' for Active; 'I' for Inactive)
REMARK       I    between atoms: C2_2  and  N1_4
REMARK    1  A    between atoms: N1_4  and  C3_6
REMARK    2  A    between atoms: C4_7  and  O2_8
REMARK    3  A    between atoms: C5_10  and  N2_11
REMARK    4  A    between atoms: C8_17  and  C9_18
REMARK    5  A    between atoms: C9_18  and  N4_19
REMARK    6  A    between atoms: C12_25  and  O5_26
REMARK    7  A    between atoms: N6_30  and  C14_31
REMARK    8  A    between atoms: C14_31  and  O7_32
REMARK    9  A    between atoms: C15_34  and  N7_35
REMARK   10  A    between atoms: N8_38  and  O8_39
ROOT
HETATM    1  C3  UNL     1     -14.540  -5.970   4.583  1.00  0.00     0.105 A
HETATM    2  C4  UNL     1     -15.024  -4.756   4.894  1.00  0.00     0.126 A
HETATM    3  C5  UNL     1     -14.205  -3.634   4.893  1.00  0.00     0.113 A
HETATM    4  C10 UNL     1     -12.853  -3.727   4.570  1.00  0.00     0.130 A
HETATM    5  C11 UNL     1     -12.372  -5.020   4.245  1.00  0.00     0.100 A
HETATM    6  C12 UNL     1     -13.190  -6.130   4.248  1.00  0.00     0.113 A
HETATM    7  C13 UNL     1     -11.029  -5.133   3.927  1.00  0.00     0.279 A
HETATM    8  O6  UNL     1     -10.544  -6.256   3.629  1.00  0.00    -0.266 OA
HETATM    9  N6  UNL     1     -10.260  -4.034   3.941  1.00  0.00    -0.123 N
HETATM   10  C15 UNL     1     -10.734  -2.831   4.251  1.00  0.00     0.709 A
HETATM   11  N8  UNL     1     -12.038  -2.672   4.568  1.00  0.00    -0.049 N
ENDROOT
BRANCH   3  12
HETATM   12  N2  UNL     1     -14.771  -2.378   5.246  1.00  0.00    -0.287 N
HETATM   13  C6  UNL     1     -14.620  -1.906   6.595  1.00  0.00     0.172 C
HETATM   14  C7  UNL     1     -15.336  -0.573   6.740  1.00  0.00     0.255 C
HETATM   15  N3  UNL     1     -14.840   0.296   5.723  1.00  0.00    -0.052 N
HETATM   16  C8  UNL     1     -15.150  -0.212   4.408  1.00  0.00     0.322 C
ATOM     17  H32 UNL     1     -15.180   1.249   5.846  1.00  0.00     0.279 HD
ATOM     18  H31 UNL     1     -13.842   0.470   5.833  1.00  0.00     0.279 HD
HETATM   19  N5  UNL     1     -15.436  -1.607   4.331  1.00  0.00    -0.103 NA
BRANCH  16  20
HETATM   20  C9  UNL     1     -16.289   0.650   3.892  1.00  0.00     0.253 C
BRANCH  20  21
HETATM   21  N4  UNL     1     -15.887   2.026   4.060  1.00  0.00    -0.152 N
HETATM   22  O3  UNL     1     -14.936   2.493   3.394  1.00  0.00    -0.536 OA
HETATM   23  O4  UNL     1     -16.555   2.831   4.957  1.00  0.00    -0.536 OA
ENDBRANCH  20  21
ENDBRANCH  16  20
ENDBRANCH   3  12
BRANCH   2  24
HETATM   24  O2  UNL     1     -16.341  -4.604   5.218  1.00  0.00    -0.356 OA
ATOM     25  H2  UNL     1     -16.928  -4.141   4.631  1.00  0.00     0.218 HD
ENDBRANCH   2  24
BRANCH   1  26
HETATM   26  N1  UNL     1     -15.394  -7.136   4.584  1.00  0.00    -0.323 N
HETATM   27  C2  UNL     1     -16.384  -7.334   3.610  1.00  0.00     0.218 C
HETATM   28  C1  UNL     1     -17.233  -8.534   3.643  1.00  0.00     0.117 C
HETATM   29  O1  UNL     1     -16.551  -6.493   2.706  1.00  0.00    -0.274 OA
ATOM     30  H1  UNL     1     -15.272  -7.836   5.316  1.00  0.00     0.169 HD
ENDBRANCH   1  26
BRANCH  11  31
HETATM   31  O8  UNL     1     -12.503  -1.428   4.901  1.00  0.00    -0.269 OA
ATOM     32  H8  UNL     1     -12.175  -0.977   5.670  1.00  0.00     0.245 HD
ENDBRANCH  11  31
BRANCH   6  33
HETATM   33  O5  UNL     1     -12.761  -7.353   3.946  1.00  0.00    -0.357 OA
ATOM     34  H5  UNL     1     -12.925  -8.050   4.570  1.00  0.00     0.217 HD
ENDBRANCH   6  33
BRANCH  10  35
HETATM   35  N7  UNL     1     -10.017  -1.777   4.263  1.00  0.00    -0.232 N
ATOM     36  H72 UNL     1     -10.074  -1.182   3.437  1.00  0.00     0.174 HD
ATOM     37  H71 UNL     1      -9.406  -1.525   5.040  1.00  0.00     0.174 HD
ENDBRANCH  10  35
BRANCH   9  38
HETATM   38  C14 UNL     1      -8.853  -4.232   3.593  1.00  0.00     0.317 C
BRANCH  38  39
HETATM   39  O7  UNL     1      -8.232  -4.926   4.639  1.00  0.00    -0.381 OA
ATOM     40  H7  UNL     1      -7.506  -5.423   4.279  1.00  0.00     0.211 HD
ENDBRANCH  38  39
ENDBRANCH   9  38
TORSDOF 10
ENDMDL