MODEL 3
REMARK VINA RESULT: -8.429475144      4.845      8.948
REMARK  8 active torsions:
REMARK  status: ('A' for Active; 'I' for Inactive)
REMARK    1  A    between atoms: N5_15  and  C5_16
REMARK    2  A    between atoms: C6_19  and  C7_20
REMARK    3  A    between atoms: C7_20  and  C8_21
REMARK    4  A    between atoms: C8_21  and  C9_22
REMARK    5  A    between atoms: C12_32  and  C13_33
REMARK    6  A    between atoms: C13_33  and  N11_34
REMARK    7  A    between atoms: N11_34  and  N12_36
REMARK    8  A    between atoms: C14_39  and  O3_40
ROOT
HETATM    1  C7  UNL     1      -8.997  -3.658   4.033  1.00  0.00     0.059 C
ENDROOT
BRANCH   1   2
HETATM    2  C6  UNL     1      -7.892  -4.495   4.582  1.00  0.00     0.234 C
HETATM    3  N7  UNL     1      -7.722  -4.585   6.002  1.00  0.00    -0.112 NA
HETATM    4  N6  UNL     1      -6.662  -3.766   6.325  1.00  0.00    -0.091 NA
HETATM    5  C5  UNL     1      -6.315  -3.136   5.054  1.00  0.00     0.362 C
HETATM    6  O5  UNL     1      -6.652  -4.005   4.042  1.00  0.00    -0.327 OA
BRANCH   5   7
HETATM    7  N5  UNL     1      -5.084  -2.459   4.998  1.00  0.00    -0.223 N
HETATM    8  C3  UNL     1      -4.700  -1.217   5.334  1.00  0.00     0.170 A
HETATM    9  C2  UNL     1      -5.421  -0.165   5.875  1.00  0.00     0.292 A
HETATM   10  C4  UNL     1      -3.364  -1.059   5.071  1.00  0.00     0.171 A
HETATM   11  N2  UNL     1      -4.781   0.977   6.120  1.00  0.00    -0.154 N
HETATM   12  O1  UNL     1      -6.622  -0.279   6.119  1.00  0.00    -0.265 OA
HETATM   13  C1  UNL     1      -3.451   1.155   5.862  1.00  0.00     0.680 A
ATOM     14  H2  UNL     1      -5.308   1.754   6.518  1.00  0.00     0.187 HD
HETATM   15  N1  UNL     1      -2.801   2.223   6.053  1.00  0.00    -0.234 N
HETATM   16  N13 UNL     1      -2.760   0.094   5.330  1.00  0.00    -0.173 N
ATOM     17  H12 UNL     1      -3.314   3.010   6.448  1.00  0.00     0.174 HD
ATOM     18  H11 UNL     1      -1.808   2.355   5.861  1.00  0.00     0.174 HD
ATOM     19  H13 UNL     1      -1.765   0.195   5.131  1.00  0.00     0.186 HD
HETATM   20  N3  UNL     1      -2.928  -2.232   4.564  1.00  0.00    -0.268 N
HETATM   21  N4  UNL     1      -3.948  -3.029   4.531  1.00  0.00    -0.235 N
ATOM     22  H3  UNL     1      -1.978  -2.449   4.263  1.00  0.00     0.190 HD
ATOM     23  H4  UNL     1      -3.900  -3.989   4.189  1.00  0.00     0.208 HD
ENDBRANCH   5   7
ENDBRANCH   1   2
BRANCH   1  24
HETATM   24  C8  UNL     1      -9.978  -4.675   3.391  1.00  0.00     0.090 C
BRANCH  24  25
HETATM   25  C9  UNL     1     -11.213  -4.791   4.217  1.00  0.00     0.140 A
HETATM   26  N8  UNL     1     -11.927  -5.694   4.727  1.00  0.00    -0.281 N
HETATM   27  N9  UNL     1     -12.968  -5.194   5.365  1.00  0.00    -0.276 N
ATOM     28  H8  UNL     1     -11.725  -6.692   4.654  1.00  0.00     0.189 HD
HETATM   29  C10 UNL     1     -12.869  -3.826   5.219  1.00  0.00     0.196 A
ATOM     30  H9  UNL     1     -13.694  -5.710   5.862  1.00  0.00     0.189 HD
HETATM   31  C11 UNL     1     -13.799  -2.873   5.768  1.00  0.00     0.143 A
HETATM   32  O4  UNL     1     -11.814  -3.578   4.522  1.00  0.00    -0.276 OA
HETATM   33  N10 UNL     1     -14.865  -3.254   6.516  1.00  0.00    -0.254 N
HETATM   34  C14 UNL     1     -13.877  -1.518   5.592  1.00  0.00     0.132 A
HETATM   35  O2  UNL     1     -15.570  -2.228   6.799  1.00  0.00    -0.237 OA
ATOM     36  H10 UNL     1     -15.071  -4.210   6.806  1.00  0.00     0.195 HD
HETATM   37  C12 UNL     1     -15.001  -1.128   6.246  1.00  0.00     0.131 A
BRANCH  37  38
HETATM   38  C13 UNL     1     -15.606   0.240   6.380  1.00  0.00     0.208 C
BRANCH  38  39
HETATM   39  N11 UNL     1     -16.303   0.203   7.616  1.00  0.00    -0.337 N
ATOM     40  H11 UNL     1     -17.322   0.211   7.656  1.00  0.00     0.179 HD
BRANCH  39  41
HETATM   41  N12 UNL     1     -15.534   0.155   8.767  1.00  0.00    -0.349 N
ATOM     42 2H12 UNL     1     -15.459  -0.709   9.305  1.00  0.00     0.176 HD
ATOM     43 1H12 UNL     1     -15.058   1.014   9.041  1.00  0.00     0.176 HD
ENDBRANCH  39  41
ENDBRANCH  38  39
ENDBRANCH  37  38
BRANCH  34  44
HETATM   44  O3  UNL     1     -12.967  -0.735   4.871  1.00  0.00    -0.356 OA
ATOM     45  H3  UNL     1     -12.026  -0.713   5.009  1.00  0.00     0.218 HD
ENDBRANCH  34  44
ENDBRANCH  24  25
ENDBRANCH   1  24
TORSDOF 8
ENDMDL