MODEL 1
REMARK VINA RESULT: -7.440383362      0.000      0.000
REMARK  11 active torsions:
REMARK  status: ('A' for Active; 'I' for Inactive)
REMARK    1  A    between atoms: O1_2  and  C2_3
REMARK    2  A    between atoms: C3_8  and  N3_9
REMARK    3  A    between atoms: N3_9  and  C4_11
REMARK    4  A    between atoms: N5_15  and  N6_16
REMARK    5  A    between atoms: N7_18  and  C6_20
REMARK    6  A    between atoms: C7_21  and  C8_22
REMARK    7  A    between atoms: C9_27  and  N9_28
REMARK    8  A    between atoms: C10_33  and  N11_34
REMARK    9  A    between atoms: C12_39  and  C13_40
REMARK   10  A    between atoms: C13_40  and  N12_41
REMARK   11  A    between atoms: C13_40  and  N13_45
ROOT
HETATM    1  C4  UNL     1      -4.317   3.732   2.761  1.00  0.00     0.175 A
HETATM    2  N4  UNL     1      -3.859   4.125   3.887  1.00  0.00    -0.354 N
ATOM      3  H4  UNL     1      -4.087   5.031   4.298  1.00  0.00     0.163 HD
HETATM    4  C5  UNL     1      -2.994   3.172   4.516  1.00  0.00     0.277 A
HETATM    5  N5  UNL     1      -2.946   2.063   3.617  1.00  0.00    -0.222 N
HETATM    6  C11 UNL     1      -3.788   2.416   2.498  1.00  0.00     0.308 A
HETATM    7  O4  UNL     1      -3.997   1.667   1.482  1.00  0.00    -0.262 OA
ENDROOT
BRANCH   1   8
HETATM    8  N3  UNL     1      -5.196   4.410   1.865  1.00  0.00    -0.321 N
ATOM      9  H3  UNL     1      -6.169   4.111   1.798  1.00  0.00     0.169 HD
BRANCH   8  10
HETATM   10  C3  UNL     1      -4.746   5.482   1.070  1.00  0.00     0.148 A
HETATM   11  N2  UNL     1      -4.652   6.704   1.654  1.00  0.00    -0.281 N
HETATM   12  N1  UNL     1      -4.294   7.779   0.999  1.00  0.00    -0.263 N
ATOM     13  H2  UNL     1      -4.870   6.788   2.647  1.00  0.00     0.188 HD
HETATM   14  C2  UNL     1      -4.002   7.694  -0.307  1.00  0.00     0.238 A
ATOM     15  H1  UNL     1      -4.237   8.676   1.479  1.00  0.00     0.190 HD
HETATM   16  N14 UNL     1      -4.083   6.525  -0.904  1.00  0.00    -0.318 N
HETATM   17  C12 UNL     1      -4.454   5.382  -0.248  1.00  0.00     0.116 A
ATOM     18  H14 UNL     1      -3.860   6.467  -1.897  1.00  0.00     0.169 HD
BRANCH  14  19
HETATM   19  O1  UNL     1      -3.617   8.849  -1.019  1.00  0.00    -0.326 OA
HETATM   20  C1  UNL     1      -3.748   8.902  -2.427  1.00  0.00     0.213 C
ENDBRANCH  14  19
BRANCH  17  21
HETATM   21  C13 UNL     1      -4.469   4.091  -0.964  1.00  0.00     0.431 C
BRANCH  21  22
HETATM   22  N12 UNL     1      -3.196   3.435  -0.852  1.00  0.00    -0.045 N
ATOM     23 3H12 UNL     1      -2.801   3.533   0.084  1.00  0.00     0.277 HD
ATOM     24 2H12 UNL     1      -3.290   2.420  -0.873  1.00  0.00     0.277 HD
ATOM     25 1H12 UNL     1      -2.555   3.771  -1.570  1.00  0.00     0.277 HD
ENDBRANCH  21  22
BRANCH  21  26
HETATM   26  N13 UNL     1      -4.827   4.302  -2.365  1.00  0.00    -0.045 N
ATOM     27 3H13 UNL     1      -5.221   5.230  -2.523  1.00  0.00     0.277 HD
ATOM     28 2H13 UNL     1      -4.004   4.386  -2.962  1.00  0.00     0.277 HD
ATOM     29 1H13 UNL     1      -5.453   3.562  -2.679  1.00  0.00     0.277 HD
ENDBRANCH  21  26
ENDBRANCH  17  21
ENDBRANCH   8  10
ENDBRANCH   1   8
BRANCH   5  30
HETATM   30  N6  UNL     1      -2.274   0.863   3.694  1.00  0.00    -0.235 N
HETATM   31  N7  UNL     1      -2.620  -0.257   4.024  1.00  0.00    -0.280 N
ATOM     32  H7  UNL     1      -1.891  -0.970   3.982  1.00  0.00     0.188 HD
ATOM     33  H6  UNL     1      -1.294   0.924   3.421  1.00  0.00     0.208 HD
BRANCH  31  34
HETATM   34  C6  UNL     1      -3.880  -0.709   4.454  1.00  0.00     0.127 A
HETATM   35  C7  UNL     1      -4.204  -0.735   5.795  1.00  0.00     0.157 A
HETATM   36  N8  UNL     1      -5.420  -1.172   6.162  1.00  0.00    -0.183 N
HETATM   37  C9  UNL     1      -6.363  -1.593   5.312  1.00  0.00     0.678 A
ATOM     38  H8  UNL     1      -5.639  -1.184   7.158  1.00  0.00     0.184 HD
HETATM   39  N10 UNL     1      -6.040  -1.564   4.010  1.00  0.00    -0.175 N
HETATM   40  C10 UNL     1      -4.853  -1.144   3.567  1.00  0.00     0.145 A
ATOM     41  H10 UNL     1      -6.732  -1.876   3.329  1.00  0.00     0.186 HD
BRANCH  35  42
HETATM   42  C8  UNL     1      -3.242  -0.289   6.818  1.00  0.00     0.230 C
HETATM   43  O2  UNL     1      -2.470   0.658   6.668  1.00  0.00    -0.643 OA
HETATM   44  O3  UNL     1      -3.196  -0.970   8.028  1.00  0.00    -0.643 OA
ENDBRANCH  35  42
BRANCH  37  45
HETATM   45  N9  UNL     1      -7.503  -1.997   5.760  1.00  0.00    -0.234 N
ATOM     46  H92 UNL     1      -7.612  -2.598   6.577  1.00  0.00     0.174 HD
ATOM     47  H91 UNL     1      -8.365  -1.715   5.293  1.00  0.00     0.174 HD
ENDBRANCH  37  45
BRANCH  40  48
HETATM   48  N11 UNL     1      -4.586  -1.128   2.301  1.00  0.00    -0.383 N
ATOM     49 2H11 UNL     1      -5.292  -1.396   1.615  1.00  0.00     0.157 HD
ATOM     50 1H11 UNL     1      -3.655  -0.837   2.004  1.00  0.00     0.157 HD
ENDBRANCH  40  48
ENDBRANCH  31  34
ENDBRANCH   5  30
TORSDOF 11
ENDMDL