MODEL 2
REMARK VINA RESULT: -6.596676850      8.810     11.543
REMARK  15 active torsions:
REMARK  status: ('A' for Active; 'I' for Inactive)
REMARK    1  A    between atoms: O1_2  and  C2_3
REMARK    2  A    between atoms: C2_3  and  C3_5
REMARK    3  A    between atoms: C4_6  and  N1_7
REMARK    4  A    between atoms: N2_9  and  C5_11
REMARK    5  A    between atoms: C6_12  and  C7_13
REMARK    6  A    between atoms: C7_13  and  O3_14
REMARK    7  A    between atoms: C7_13  and  C8_16
REMARK    8  A    between atoms: C8_16  and  O4_17
REMARK    9  A    between atoms: C8_16  and  N3_19
REMARK   10  A    between atoms: N3_19  and  O5_20
REMARK   11  A    between atoms: N3_19  and  O6_22
REMARK   12  A    between atoms: C9_25  and  C10_26
REMARK   13  A    between atoms: C10_26  and  O8_27
REMARK   14  A    between atoms: C10_26  and  O9_29
REMARK   15  A    between atoms: C13_34  and  N4_35
ROOT
HETATM    1  C5  UNL     1     -15.654  -0.166   5.744  1.00  0.00     0.131 A
HETATM    2  C6  UNL     1     -16.500   0.593   4.983  1.00  0.00     0.118 A
HETATM    3  O7  UNL     1     -17.386   1.326   5.657  1.00  0.00    -0.309 OA
HETATM    4  C9  UNL     1     -17.479   1.352   6.939  1.00  0.00     0.111 A
HETATM    5  C11 UNL     1     -16.647   0.605   7.727  1.00  0.00     0.095 A
HETATM    6  C12 UNL     1     -15.690  -0.193   7.122  1.00  0.00     0.204 A
HETATM    7  O10 UNL     1     -14.922  -0.880   7.812  1.00  0.00    -0.286 OA
ENDROOT
BRANCH   1   8
HETATM    8  N2  UNL     1     -14.699  -0.944   5.057  1.00  0.00    -0.294 N
HETATM    9  N1  UNL     1     -13.484  -1.015   5.376  1.00  0.00    -0.294 N
ATOM     10  H1  UNL     1     -13.179  -0.471   6.184  1.00  0.00     0.187 HD
ATOM     11  H2  UNL     1     -15.014  -1.484   4.251  1.00  0.00     0.187 HD
BRANCH   9  12
HETATM   12  C4  UNL     1     -12.508  -1.786   4.708  1.00  0.00     0.127 A
HETATM   13  C3  UNL     1     -12.298  -3.131   5.017  1.00  0.00     0.158 A
HETATM   14  N6  UNL     1     -11.314  -3.534   4.197  1.00  0.00    -0.287 N
HETATM   15  N5  UNL     1     -10.913  -2.538   3.417  1.00  0.00    -0.281 N
HETATM   16  C14 UNL     1     -10.738  -4.855   4.132  1.00  0.00     0.178 C
HETATM   17  C13 UNL     1     -11.633  -1.423   3.702  1.00  0.00     0.145 A
ATOM     18  H5  UNL     1     -10.178  -2.601   2.712  1.00  0.00     0.189 HD
BRANCH  13  19
HETATM   19  C2  UNL     1     -13.011  -3.913   6.025  1.00  0.00     0.313 C
HETATM   20  O2  UNL     1     -12.360  -4.703   6.750  1.00  0.00    -0.257 OA
BRANCH  19  21
HETATM   21  O1  UNL     1     -14.365  -3.814   6.203  1.00  0.00    -0.321 OA
HETATM   22  C1  UNL     1     -15.339  -4.448   5.391  1.00  0.00     0.213 C
ENDBRANCH  19  21
ENDBRANCH  13  19
BRANCH  17  23
HETATM   23  N4  UNL     1     -11.535  -0.259   3.161  1.00  0.00    -0.382 N
ATOM     24  H42 UNL     1     -12.258   0.455   3.076  1.00  0.00     0.157 HD
ATOM     25  H41 UNL     1     -10.702   0.136   2.724  1.00  0.00     0.157 HD
ENDBRANCH  17  23
ENDBRANCH   9  12
ENDBRANCH   1   8
BRANCH   2  26
HETATM   26  C7  UNL     1     -16.552   0.696   3.542  1.00  0.00     0.225 C
BRANCH  26  27
HETATM   27  O3  UNL     1     -17.924   0.909   3.229  1.00  0.00    -0.385 OA
ATOM     28  H3  UNL     1     -17.996   0.751   2.295  1.00  0.00     0.210 HD
ENDBRANCH  26  27
BRANCH  26  29
HETATM   29  C8  UNL     1     -15.824   1.815   2.900  1.00  0.00     0.282 C
BRANCH  29  30
HETATM   30  O4  UNL     1     -15.640   2.875   3.815  1.00  0.00    -0.374 OA
ATOM     31  H4  UNL     1     -14.821   3.325   3.643  1.00  0.00     0.212 HD
ENDBRANCH  29  30
BRANCH  29  32
HETATM   32  N3  UNL     1     -14.479   1.368   2.597  1.00  0.00    -0.041 NA
BRANCH  32  33
HETATM   33  O5  UNL     1     -14.423   0.017   2.369  1.00  0.00    -0.287 OA
ATOM     34  H5  UNL     1     -14.487  -0.484   3.174  1.00  0.00     0.239 HD
ENDBRANCH  32  33
BRANCH  32  35
HETATM   35  O6  UNL     1     -13.612   1.578   3.626  1.00  0.00    -0.287 OA
ATOM     36  H6  UNL     1     -12.740   1.249   3.442  1.00  0.00     0.239 HD
ENDBRANCH  32  35
ENDBRANCH  29  32
ENDBRANCH  26  29
ENDBRANCH   2  26
BRANCH   4  37
HETATM   37  C10 UNL     1     -18.501   2.200   7.609  1.00  0.00     0.312 C
BRANCH  37  38
HETATM   38  O8  UNL     1     -19.162   2.933   6.608  1.00  0.00    -0.365 OA
ATOM     39  H8  UNL     1     -20.077   2.678   6.625  1.00  0.00     0.213 HD
ENDBRANCH  37  38
BRANCH  37  40
HETATM   40  O9  UNL     1     -19.412   1.358   8.218  1.00  0.00    -0.365 OA
ATOM     41  H9  UNL     1     -19.832   0.846   7.537  1.00  0.00     0.213 HD
ENDBRANCH  37  40
ENDBRANCH   4  37
TORSDOF 15
ENDMDL