MODEL 1
REMARK VINA RESULT: -7.910935026      0.000      0.000
REMARK  9 active torsions:
REMARK  status: ('A' for Active; 'I' for Inactive)
REMARK    1  A    between atoms: N1_2  and  N2_3
REMARK    2  A    between atoms: N1_2  and  C6_21
REMARK    3  A    between atoms: N2_3  and  C2_5
REMARK    4  A    between atoms: C2_5  and  O1_6
REMARK    5  A    between atoms: C2_5  and  C3_8
REMARK    6  A    between atoms: C3_8  and  N3_9
REMARK    7  A    between atoms: C8_24  and  C9_25
REMARK    8  A    between atoms: C12_31  and  N10_32
REMARK    9  A    between atoms: C13_35  and  N11_36
ROOT
HETATM    1  C6  UNL     1     -12.733  -3.124   4.730  1.00  0.00     0.185 C
HETATM    2  C7  UNL     1     -12.856  -4.153   5.790  1.00  0.00     0.123 C
HETATM    3  S1  UNL     1     -14.447  -3.648   6.526  1.00  0.00    -0.108 SA
HETATM    4  C8  UNL     1     -14.341  -1.979   5.891  1.00  0.00     0.081 C
HETATM    5  N12 UNL     1     -13.439  -1.962   5.029  1.00  0.00    -0.365 N
ATOM      6  H12 UNL     1     -13.218  -1.094   4.541  1.00  0.00     0.162 HD
ENDROOT
BRANCH   1   7
HETATM    7  N1  UNL     1     -11.362  -2.772   4.387  1.00  0.00    -0.214 NA
HETATM    8  C1  UNL     1     -11.245  -1.511   3.717  1.00  0.00     0.138 C
BRANCH   7   9
HETATM    9  N2  UNL     1     -10.544  -2.718   5.510  1.00  0.00    -0.321 N
ATOM     10  H2  UNL     1     -10.727  -2.087   6.291  1.00  0.00     0.177 HD
BRANCH   9  11
HETATM   11  C2  UNL     1      -9.428  -3.610   5.490  1.00  0.00     0.293 C
BRANCH  11  12
HETATM   12  O1  UNL     1      -9.109  -3.894   6.826  1.00  0.00    -0.371 OA
ATOM     13  H1  UNL     1      -8.171  -4.040   6.860  1.00  0.00     0.212 HD
ENDBRANCH  11  12
BRANCH  11  14
HETATM   14  C3  UNL     1      -8.193  -3.003   4.872  1.00  0.00     0.298 A
HETATM   15  N4  UNL     1      -8.121  -1.578   5.078  1.00  0.00    -0.322 N
HETATM   16  C4  UNL     1      -7.096  -1.277   5.802  1.00  0.00     0.191 A
ATOM     17  H4  UNL     1      -8.787  -0.901   4.703  1.00  0.00     0.165 HD
HETATM   18  N5  UNL     1      -6.669   0.022   6.234  1.00  0.00    -0.063 NA
HETATM   19  N6  UNL     1      -6.403  -2.472   6.136  1.00  0.00    -0.319 N
HETATM   20  C5  UNL     1      -7.000  -3.498   5.620  1.00  0.00     0.157 A
ATOM     21  H6  UNL     1      -5.555  -2.515   6.701  1.00  0.00     0.169 HD
HETATM   22  N7  UNL     1      -6.612  -4.861   5.730  1.00  0.00    -0.083 NA
BRANCH  14  23
HETATM   23  N3  UNL     1      -8.039  -3.353   3.488  1.00  0.00    -0.041 N
ATOM     24  H33 UNL     1      -8.158  -4.356   3.348  1.00  0.00     0.278 HD
ATOM     25  H32 UNL     1      -8.826  -3.016   2.935  1.00  0.00     0.278 HD
ATOM     26  H31 UNL     1      -7.153  -3.031   3.098  1.00  0.00     0.278 HD
ENDBRANCH  14  23
ENDBRANCH  11  14
ENDBRANCH   9  11
ENDBRANCH   7   9
ENDBRANCH   1   7
BRANCH   4  27
HETATM   27  C9  UNL     1     -15.204  -0.907   6.370  1.00  0.00     0.041 A
HETATM   28  C10 UNL     1     -15.265  -0.572   7.721  1.00  0.00     0.106 A
HETATM   29  N8  UNL     1     -16.062   0.418   8.178  1.00  0.00    -0.351 N
HETATM   30  C11 UNL     1     -16.852   1.148   7.353  1.00  0.00     0.151 A
ATOM     31  H8  UNL     1     -16.070   0.623   9.177  1.00  0.00     0.166 HD
HETATM   32  N9  UNL     1     -17.688   2.193   7.851  1.00  0.00    -0.080 NA
HETATM   33  C12 UNL     1     -16.823   0.849   5.988  1.00  0.00     0.171 A
HETATM   34  C13 UNL     1     -16.007  -0.165   5.533  1.00  0.00     0.077 A
BRANCH  33  35
HETATM   35  N10 UNL     1     -17.641   1.601   5.104  1.00  0.00    -0.110 N
HETATM   36  O2  UNL     1     -18.818   1.266   4.827  1.00  0.00    -0.532 OA
HETATM   37  O3  UNL     1     -17.189   2.756   4.487  1.00  0.00    -0.532 OA
ENDBRANCH  33  35
BRANCH  34  38
HETATM   38  N11 UNL     1     -15.991  -0.435   4.252  1.00  0.00    -0.396 N
ATOM     39 2H11 UNL     1     -15.186  -0.144   3.698  1.00  0.00     0.156 HD
ATOM     40 1H11 UNL     1     -16.787  -0.930   3.851  1.00  0.00     0.156 HD
ENDBRANCH  34  38
ENDBRANCH   4  27
TORSDOF 9
ENDMDL