MODEL 4
REMARK VINA RESULT: -8.019852314      2.355      4.171
REMARK  10 active torsions:
REMARK  status: ('A' for Active; 'I' for Inactive)
REMARK    1  A    between atoms: N1_1  and  C1_4
REMARK    2  A    between atoms: C5_14  and  N6_15
REMARK    3  A    between atoms: N6_15  and  C6_17
REMARK    4  A    between atoms: C6_17  and  O1_18
REMARK    5  A    between atoms: C8_23  and  C9_24
REMARK       I    between atoms: C9_24  and  N8_26
REMARK    6  A    between atoms: N8_26  and  C10_28
REMARK    7  A    between atoms: C10_28  and  C11_29
REMARK    8  A    between atoms: C11_29  and  O3_30
REMARK    9  A    between atoms: N10_34  and  N11_35
REMARK   10  A    between atoms: C13_41  and  O4_42
ROOT
HETATM    1  C6  UNL     1     -10.464  -3.654   5.869  1.00  0.00     0.203 C
HETATM    2  C7  UNL     1     -11.528  -2.810   5.369  1.00  0.00     0.201 A
HETATM    3  N7  UNL     1     -12.564  -2.434   6.168  1.00  0.00    -0.317 N
ATOM      4  H7  UNL     1     -12.672  -2.704   7.146  1.00  0.00     0.169 HD
HETATM    5  C8  UNL     1     -13.417  -1.663   5.493  1.00  0.00     0.192 A
HETATM    6  N9  UNL     1     -12.916  -1.555   4.272  1.00  0.00    -0.256 N
ATOM      7  H9  UNL     1     -13.340  -1.024   3.511  1.00  0.00     0.191 HD
HETATM    8  N10 UNL     1     -11.754  -2.256   4.183  1.00  0.00    -0.149 N
ENDROOT
BRANCH   1   9
HETATM    9  N6  UNL     1      -9.337  -4.125   5.181  1.00  0.00    -0.165 N
ATOM     10  H6  UNL     1      -9.395  -5.001   4.662  1.00  0.00     0.186 HD
BRANCH   9  11
HETATM   11  C5  UNL     1      -8.113  -3.399   5.193  1.00  0.00     0.701 A
HETATM   12  N5  UNL     1      -7.863  -2.165   5.654  1.00  0.00    -0.171 N
HETATM   13  C4  UNL     1      -6.568  -1.848   5.478  1.00  0.00     0.189 A
ATOM     14  H5  UNL     1      -8.558  -1.553   6.080  1.00  0.00     0.186 HD
HETATM   15  C3  UNL     1      -5.801  -0.724   5.768  1.00  0.00     0.135 A
HETATM   16  N15 UNL     1      -6.001  -2.916   4.889  1.00  0.00    -0.053 N
HETATM   17  C2  UNL     1      -4.457  -0.665   5.470  1.00  0.00     0.160 A
HETATM   18  N4  UNL     1      -6.402   0.397   6.386  1.00  0.00    -0.095 NA
HETATM   19  N2  UNL     1      -3.933  -1.778   4.874  1.00  0.00    -0.175 N
HETATM   20  N3  UNL     1      -3.643   0.455   5.747  1.00  0.00    -0.080 NA
HETATM   21  C1  UNL     1      -4.689  -2.856   4.600  1.00  0.00     0.700 A
ATOM     22  H2  UNL     1      -2.943  -1.791   4.632  1.00  0.00     0.185 HD
HETATM   23  N14 UNL     1      -6.926  -3.848   4.718  1.00  0.00    -0.109 N
ATOM     24  H14 UNL     1      -6.769  -4.762   4.293  1.00  0.00     0.207 HD
BRANCH  21  25
HETATM   25  N1  UNL     1      -4.106  -3.860   4.036  1.00  0.00    -0.233 N
ATOM     26  H12 UNL     1      -4.634  -4.708   3.832  1.00  0.00     0.174 HD
ATOM     27  H11 UNL     1      -3.116  -3.760   3.812  1.00  0.00     0.174 HD
ENDBRANCH  21  25
ENDBRANCH   9  11
ENDBRANCH   1   9
BRANCH   1  28
HETATM   28  O1  UNL     1     -10.533  -4.041   7.111  1.00  0.00    -0.343 OA
ATOM     29  H1  UNL     1     -11.419  -4.153   7.437  1.00  0.00     0.219 HD
ENDBRANCH   1  28
BRANCH   8  30
HETATM   30  N11 UNL     1     -10.994  -2.332   3.019  1.00  0.00    -0.134 N
HETATM   31  N12 UNL     1     -11.223  -3.157   2.019  1.00  0.00    -0.218 N
HETATM   32  N13 UNL     1     -10.331  -2.945   1.054  1.00  0.00    -0.292 N
ATOM     33  H12 UNL     1     -11.968  -3.852   1.989  1.00  0.00     0.210 HD
HETATM   34  C12 UNL     1      -9.512  -1.962   1.438  1.00  0.00     0.168 A
ATOM     35  H13 UNL     1     -10.282  -3.449   0.168  1.00  0.00     0.187 HD
HETATM   36  C13 UNL     1      -9.945  -1.569   2.710  1.00  0.00     0.200 A
BRANCH  36  37
HETATM   37  O4  UNL     1      -9.340  -0.565   3.447  1.00  0.00    -0.343 OA
ATOM     38  H4  UNL     1      -8.568  -0.050   3.244  1.00  0.00     0.219 HD
ENDBRANCH  36  37
ENDBRANCH   8  30
BRANCH   5  39
HETATM   39  C9  UNL     1     -14.647  -1.076   6.037  1.00  0.00     0.287 C
HETATM   40  O2  UNL     1     -15.450  -1.855   6.598  1.00  0.00    -0.264 OA
HETATM   41  N8  UNL     1     -14.940   0.304   5.945  1.00  0.00    -0.352 N
ATOM     42  H8  UNL     1     -14.285   0.938   5.486  1.00  0.00     0.162 HD
BRANCH  41  43
HETATM   43  C10 UNL     1     -16.159   0.806   6.497  1.00  0.00     0.149 C
BRANCH  43  44
HETATM   44  C11 UNL     1     -16.885   1.696   5.503  1.00  0.00     0.183 C
BRANCH  44  45
HETATM   45  O3  UNL     1     -16.659   3.031   5.826  1.00  0.00    -0.399 OA
ATOM     46  H3  UNL     1     -16.662   3.553   5.032  1.00  0.00     0.209 HD
ENDBRANCH  44  45
ENDBRANCH  43  44
ENDBRANCH  41  43
ENDBRANCH   5  39
TORSDOF 10
ENDMDL