MODEL 4
REMARK VINA RESULT: -6.887327939      1.203      1.288
REMARK  11 active torsions:
REMARK  status: ('A' for Active; 'I' for Inactive)
REMARK       I    between atoms: N1_2  and  C2_4
REMARK    1  A    between atoms: C2_4  and  C3_6
REMARK    2  A    between atoms: C5_13  and  C6_14
REMARK    3  A    between atoms: C9_21  and  O4_22
REMARK    4  A    between atoms: C10_24  and  N6_25
REMARK    5  A    between atoms: N6_25  and  O5_27
REMARK    6  A    between atoms: C12_29  and  N7_30
REMARK    7  A    between atoms: N7_30  and  N8_32
REMARK    8  A    between atoms: N9_34  and  N10_36
REMARK    9  A    between atoms: N10_36  and  N11_38
REMARK   10  A    between atoms: N12_41  and  C13_42
REMARK   11  A    between atoms: C13_42  and  N13_43
ROOT
HETATM    1  C3  UNL     1      -5.570   3.447   0.836  1.00  0.00     0.148 A
HETATM    2  N2  UNL     1      -6.554   2.809   0.087  1.00  0.00    -0.279 N
ATOM      3  H2  UNL     1      -6.864   3.101  -0.839  1.00  0.00     0.189 HD
HETATM    4  N3  UNL     1      -7.019   1.794   0.735  1.00  0.00    -0.234 N
ATOM      5  H3  UNL     1      -7.748   1.159   0.410  1.00  0.00     0.209 HD
HETATM    6  N4  UNL     1      -6.385   1.719   1.892  1.00  0.00    -0.231 N
HETATM    7  C4  UNL     1      -5.473   2.736   1.980  1.00  0.00     0.126 A
HETATM    8  C5  UNL     1      -4.691   2.873   3.107  1.00  0.00     0.143 A
HETATM    9  N5  UNL     1      -4.875   1.957   4.134  1.00  0.00    -0.333 N
ATOM     10  H5  UNL     1      -4.317   2.031   4.985  1.00  0.00     0.168 HD
HETATM   11  C7  UNL     1      -5.773   0.983   4.016  1.00  0.00     0.143 A
HETATM   12  C8  UNL     1      -6.540   0.848   2.896  1.00  0.00     0.138 A
HETATM   13  C9  UNL     1      -7.477  -0.188   2.807  1.00  0.00     0.131 A
HETATM   14  C10 UNL     1      -7.644  -1.077   3.826  1.00  0.00     0.135 A
HETATM   15  C12 UNL     1      -6.842  -0.925   4.981  1.00  0.00     0.158 A
HETATM   16  N12 UNL     1      -5.958   0.080   5.025  1.00  0.00    -0.289 N
ENDROOT
BRANCH  15  17
HETATM   17  N7  UNL     1      -7.040  -1.780   5.867  1.00  0.00    -0.268 N
ATOM     18  H7  UNL     1      -7.756  -1.338   6.444  1.00  0.00     0.190 HD
BRANCH  17  19
HETATM   19  N8  UNL     1      -6.856  -2.884   6.455  1.00  0.00    -0.225 N
HETATM   20  N9  UNL     1      -7.437  -3.913   6.720  1.00  0.00    -0.214 N
ATOM     21  H9  UNL     1      -6.920  -4.616   7.248  1.00  0.00     0.211 HD
ATOM     22  H8  UNL     1      -5.908  -2.919   6.830  1.00  0.00     0.210 HD
BRANCH  20  23
HETATM   23  N10 UNL     1      -8.734  -4.218   6.371  1.00  0.00    -0.234 N
ATOM     24  H10 UNL     1      -8.951  -4.637   5.466  1.00  0.00     0.209 HD
BRANCH  23  25
HETATM   25  N11 UNL     1      -9.752  -3.934   7.304  1.00  0.00    -0.330 N
ATOM     26 2H11 UNL     1      -9.716  -3.077   7.856  1.00  0.00     0.178 HD
ATOM     27 1H11 UNL     1     -10.510  -4.609   7.402  1.00  0.00     0.178 HD
ENDBRANCH  23  25
ENDBRANCH  20  23
ENDBRANCH  17  19
ENDBRANCH  15  17
BRANCH  14  28
HETATM   28  N6  UNL     1      -8.597  -2.145   3.743  1.00  0.00    -0.261 N
ATOM     29  H6  UNL     1      -9.599  -1.948   3.742  1.00  0.00     0.194 HD
BRANCH  28  30
HETATM   30  O5  UNL     1      -8.146  -3.416   3.667  1.00  0.00    -0.285 OA
HETATM   31  C11 UNL     1      -8.954  -4.148   2.796  1.00  0.00     0.237 C
ENDBRANCH  28  30
ENDBRANCH  14  28
BRANCH  16  32
HETATM   32  C13 UNL     1      -5.090   0.261   6.180  1.00  0.00     0.362 C
BRANCH  32  33
HETATM   33  N13 UNL     1      -5.712   0.926   7.278  1.00  0.00    -0.063 N
ATOM     34 3H13 UNL     1      -5.605   1.936   7.191  1.00  0.00     0.276 HD
ATOM     35 2H13 UNL     1      -6.727   0.853   7.211  1.00  0.00     0.276 HD
ATOM     36 1H13 UNL     1      -5.390   0.610   8.194  1.00  0.00     0.276 HD
ENDBRANCH  32  33
ENDBRANCH  16  32
BRANCH  13  37
HETATM   37  O4  UNL     1      -8.236  -0.283   1.642  1.00  0.00    -0.356 OA
ATOM     38  H4  UNL     1      -8.947  -0.913   1.624  1.00  0.00     0.218 HD
ENDBRANCH  13  37
BRANCH   8  39
HETATM   39  C6  UNL     1      -3.596   3.780   3.253  1.00  0.00     0.229 C
HETATM   40  O2  UNL     1      -2.426   3.682   2.982  1.00  0.00    -0.643 OA
HETATM   41  O3  UNL     1      -3.917   5.062   3.820  1.00  0.00    -0.643 OA
ENDBRANCH   8  39
BRANCH   1  42
HETATM   42  C2  UNL     1      -4.920   4.645   0.345  1.00  0.00     0.271 C
HETATM   43  N1  UNL     1      -5.202   5.866   1.021  1.00  0.00    -0.360 N
HETATM   44  C1  UNL     1      -4.573   7.077   0.562  1.00  0.00     0.149 C
ATOM     45  H1  UNL     1      -5.839   5.881   1.817  1.00  0.00     0.162 HD
HETATM   46  O1  UNL     1      -4.124   4.684  -0.631  1.00  0.00    -0.266 OA
ENDBRANCH   1  42
TORSDOF 11
ENDMDL