MODEL 2
REMARK VINA RESULT: -8.214508028      3.146     10.629
REMARK  10 active torsions:
REMARK  status: ('A' for Active; 'I' for Inactive)
REMARK    1  A    between atoms: N2_7  and  O1_8
REMARK    2  A    between atoms: C5_10  and  C6_11
REMARK    3  A    between atoms: C6_11  and  O2_12
REMARK    4  A    between atoms: C6_11  and  N3_14
REMARK    5  A    between atoms: C7_16  and  C8_17
REMARK    6  A    between atoms: C8_17  and  N4_18
REMARK       I    between atoms: N4_18  and  C9_20
REMARK    7  A    between atoms: C9_20  and  C10_22
REMARK    8  A    between atoms: C13_30  and  O4_31
REMARK    9  A    between atoms: C13_30  and  O5_33
REMARK   10  A    between atoms: O5_33  and  N8_34
ROOT
HETATM    1  N4  UNL     1      -9.372  -2.828   5.420  1.00  0.00    -0.350 N
ATOM      2  H4  UNL     1      -9.540  -1.828   5.536  1.00  0.00     0.163 HD
HETATM    3  C9  UNL     1      -8.055  -3.329   5.387  1.00  0.00     0.287 C
HETATM    4  O3  UNL     1      -7.855  -4.576   5.243  1.00  0.00    -0.264 OA
ENDROOT
BRANCH   3   5
HETATM    5  C10 UNL     1      -6.943  -2.398   5.520  1.00  0.00     0.191 A
HETATM    6  N5  UNL     1      -5.635  -2.620   5.241  1.00  0.00    -0.324 N
HETATM    7  C11 UNL     1      -4.959  -1.494   5.506  1.00  0.00     0.124 A
ATOM      8  H5  UNL     1      -5.235  -3.490   4.890  1.00  0.00     0.169 HD
HETATM    9  N6  UNL     1      -5.829  -0.569   5.949  1.00  0.00    -0.269 N
HETATM   10  C14 UNL     1      -3.544  -1.056   5.429  1.00  0.00     0.252 C
HETATM   11  N7  UNL     1      -7.022  -1.127   5.952  1.00  0.00    -0.277 N
HETATM   12  C12 UNL     1      -5.278   0.723   6.287  1.00  0.00     0.254 C
ATOM     13  H7  UNL     1      -7.883  -0.662   6.241  1.00  0.00     0.189 HD
HETATM   14  C13 UNL     1      -4.377   1.097   5.119  1.00  0.00     0.318 C
HETATM   15  O6  UNL     1      -3.351   0.209   4.957  1.00  0.00    -0.323 OA
BRANCH  14  16
HETATM   16  O4  UNL     1      -5.196   0.997   3.969  1.00  0.00    -0.341 OA
ATOM     17  H4  UNL     1      -4.636   1.240   3.242  1.00  0.00     0.215 HD
ENDBRANCH  14  16
BRANCH  14  18
HETATM   18  O5  UNL     1      -3.966   2.414   5.183  1.00  0.00    -0.200 OA
BRANCH  18  19
HETATM   19  N8  UNL     1      -4.066   3.078   4.034  1.00  0.00     0.029 NA
HETATM   20  N9  UNL     1      -3.203   4.189   4.045  1.00  0.00     0.009 NA
HETATM   21  N10 UNL     1      -4.279   5.086   4.044  1.00  0.00     0.001 NA
HETATM   22  N11 UNL     1      -5.135   3.978   3.941  1.00  0.00     0.009 NA
ENDBRANCH  18  19
ENDBRANCH  14  18
ENDBRANCH   3   5
BRANCH   1  23
HETATM   23  C8  UNL     1     -10.481  -3.740   5.289  1.00  0.00     0.167 C
BRANCH  23  24
HETATM   24  C7  UNL     1     -11.545  -3.125   4.482  1.00  0.00     0.078 C
HETATM   25  N3  UNL     1     -12.762  -3.281   4.800  1.00  0.00    -0.370 N
ATOM     26  H3  UNL     1     -12.970  -3.842   5.626  1.00  0.00     0.161 HD
BRANCH  25  27
HETATM   27  C6  UNL     1     -13.861  -2.722   4.078  1.00  0.00     0.273 C
BRANCH  27  28
HETATM   28  C5  UNL     1     -14.386  -1.494   4.761  1.00  0.00     0.112 A
HETATM   29  C2  UNL     1     -14.308  -0.202   4.285  1.00  0.00     0.036 A
HETATM   30  C1  UNL     1     -13.677   0.189   2.986  1.00  0.00     0.070 C
HETATM   31  N1  UNL     1     -14.894   0.607   5.189  1.00  0.00    -0.346 N
HETATM   32  C3  UNL     1     -15.340  -0.127   6.221  1.00  0.00     0.106 A
ATOM     33  H1  UNL     1     -14.985   1.620   5.102  1.00  0.00     0.167 HD
HETATM   34  C4  UNL     1     -16.053   0.348   7.455  1.00  0.00     0.091 C
HETATM   35  N2  UNL     1     -15.019  -1.416   5.942  1.00  0.00    -0.211 N
BRANCH  35  36
HETATM   36  O1  UNL     1     -15.311  -2.489   6.771  1.00  0.00    -0.281 OA
ATOM     37  H1  UNL     1     -15.043  -3.384   6.601  1.00  0.00     0.245 HD
ENDBRANCH  35  36
ENDBRANCH  27  28
BRANCH  27  38
HETATM   38  O2  UNL     1     -14.904  -3.672   4.138  1.00  0.00    -0.371 OA
ATOM     39  H2  UNL     1     -14.686  -4.251   4.860  1.00  0.00     0.212 HD
ENDBRANCH  27  38
ENDBRANCH  25  27
ENDBRANCH  23  24
ENDBRANCH   1  23
TORSDOF 10
ENDMDL