MODEL 5
REMARK VINA RESULT: -7.647304371      0.865      1.819
REMARK  11 active torsions:
REMARK  status: ('A' for Active; 'I' for Inactive)
REMARK    1  A    between atoms: N1_2  and  C2_3
REMARK    2  A    between atoms: N1_2  and  C9_31
REMARK    3  A    between atoms: C2_3  and  C3_4
REMARK    4  A    between atoms: C3_4  and  N2_5
REMARK    5  A    between atoms: C5_7  and  C6_8
REMARK    6  A    between atoms: N3_10  and  N4_11
REMARK    7  A    between atoms: C8_16  and  N6_17
REMARK    8  A    between atoms: N6_17  and  N7_19
REMARK    9  A    between atoms: N10_26  and  N11_28
REMARK   10  A    between atoms: C12_36  and  N13_37
REMARK   11  A    between atoms: C13_42  and  N15_43
ROOT
HETATM    1  C2  UNL     1      -7.897  -3.400   4.836  1.00  0.00     0.119 C
HETATM    2  N10 UNL     1      -8.445  -3.871   5.896  1.00  0.00    -0.294 N
ATOM      3  H10 UNL     1      -9.451  -4.037   5.872  1.00  0.00     0.187 HD
ENDROOT
BRANCH   1   4
HETATM    4  N1  UNL     1      -8.722  -3.146   3.713  1.00  0.00    -0.324 N
HETATM    5  C1  UNL     1      -8.246  -3.459   2.378  1.00  0.00     0.159 C
BRANCH   4   6
HETATM    6  C9  UNL     1     -10.026  -2.580   3.899  1.00  0.00     0.125 A
HETATM    7  C10 UNL     1     -10.213  -1.239   3.648  1.00  0.00     0.137 A
HETATM    8  N12 UNL     1     -11.423  -0.672   3.811  1.00  0.00    -0.356 N
HETATM    9  C11 UNL     1     -12.489  -1.408   4.226  1.00  0.00     0.122 A
ATOM     10  H12 UNL     1     -11.543   0.322   3.621  1.00  0.00     0.165 HD
HETATM   11  C12 UNL     1     -13.747  -0.876   4.409  1.00  0.00     0.145 A
HETATM   12  C14 UNL     1     -12.309  -2.747   4.479  1.00  0.00     0.153 A
HETATM   13  N14 UNL     1     -14.780  -1.664   4.828  1.00  0.00    -0.175 N
HETATM   14  C13 UNL     1     -14.595  -2.974   5.073  1.00  0.00     0.679 A
ATOM     15  H14 UNL     1     -15.706  -1.254   4.958  1.00  0.00     0.186 HD
HETATM   16  N16 UNL     1     -13.364  -3.472   4.890  1.00  0.00    -0.174 N
ATOM     17  H16 UNL     1     -13.218  -4.465   5.073  1.00  0.00     0.186 HD
HETATM   18  N17 UNL     1     -11.072  -3.296   4.306  1.00  0.00    -0.325 N
ATOM     19  H17 UNL     1     -10.945  -4.290   4.495  1.00  0.00     0.169 HD
BRANCH  11  20
HETATM   20  N13 UNL     1     -13.954   0.358   4.186  1.00  0.00    -0.383 N
ATOM     21 2H13 UNL     1     -13.696   1.045   4.894  1.00  0.00     0.157 HD
ATOM     22 1H13 UNL     1     -14.376   0.654   3.305  1.00  0.00     0.157 HD
ENDBRANCH  11  20
BRANCH  14  23
HETATM   23  N15 UNL     1     -15.591  -3.723   5.474  1.00  0.00    -0.234 N
ATOM     24 2H15 UNL     1     -16.211  -3.435   6.232  1.00  0.00     0.174 HD
ATOM     25 1H15 UNL     1     -15.771  -4.625   5.034  1.00  0.00     0.174 HD
ENDBRANCH  14  23
ENDBRANCH   4   6
ENDBRANCH   1   4
BRANCH   1  26
HETATM   26  C3  UNL     1      -6.449  -3.143   4.825  1.00  0.00     0.227 C
BRANCH  26  27
HETATM   27  N2  UNL     1      -6.167  -1.760   5.198  1.00  0.00    -0.280 N
HETATM   28  C4  UNL     1      -5.391  -0.880   4.580  1.00  0.00     0.144 A
HETATM   29  C5  UNL     1      -5.438   0.298   5.311  1.00  0.00     0.082 A
HETATM   30  N8  UNL     1      -6.251   0.069   6.349  1.00  0.00    -0.284 N
HETATM   31  N9  UNL     1      -6.680  -1.174   6.265  1.00  0.00    -0.240 N
ATOM     32  H8  UNL     1      -6.496   0.739   7.077  1.00  0.00     0.188 HD
ATOM     33  H9  UNL     1      -7.315  -1.619   6.927  1.00  0.00     0.208 HD
BRANCH  29  34
HETATM   34  C6  UNL     1      -4.721   1.529   4.975  1.00  0.00     0.059 A
HETATM   35  C7  UNL     1      -5.259   2.666   4.402  1.00  0.00     0.153 A
HETATM   36  N3  UNL     1      -4.307   3.586   4.242  1.00  0.00    -0.212 N
HETATM   37  N5  UNL     1      -3.186   3.060   4.700  1.00  0.00    -0.263 N
HETATM   38  C8  UNL     1      -3.392   1.797   5.161  1.00  0.00     0.150 A
ATOM     39  H5  UNL     1      -2.285   3.538   4.707  1.00  0.00     0.190 HD
BRANCH  36  40
HETATM   40  N4  UNL     1      -4.482   4.877   3.686  1.00  0.00    -0.324 N
ATOM     41  H42 UNL     1      -4.840   5.708   4.157  1.00  0.00     0.178 HD
ATOM     42  H41 UNL     1      -4.271   5.149   2.725  1.00  0.00     0.178 HD
ENDBRANCH  36  40
BRANCH  38  43
HETATM   43  N6  UNL     1      -2.380   0.974   5.714  1.00  0.00    -0.290 N
ATOM     44  H6  UNL     1      -1.712   0.513   5.097  1.00  0.00     0.188 HD
BRANCH  43  45
HETATM   45  N7  UNL     1      -2.288   0.787   7.098  1.00  0.00    -0.344 N
ATOM     46  H72 UNL     1      -2.452   1.586   7.711  1.00  0.00     0.176 HD
ATOM     47  H71 UNL     1      -2.061  -0.129   7.486  1.00  0.00     0.176 HD
ENDBRANCH  43  45
ENDBRANCH  38  43
ENDBRANCH  29  34
ENDBRANCH  26  27
ENDBRANCH   1  26
BRANCH   2  48
HETATM   48  N11 UNL     1      -7.777  -4.171   7.073  1.00  0.00    -0.344 N
ATOM     49 2H11 UNL     1      -8.351  -4.241   7.914  1.00  0.00     0.176 HD
ATOM     50 1H11 UNL     1      -6.772  -4.323   7.156  1.00  0.00     0.176 HD
ENDBRANCH   2  48
TORSDOF 11
ENDMDL