MODEL 4
REMARK VINA RESULT: -7.040683799      3.867      8.963
REMARK  14 active torsions:
REMARK  status: ('A' for Active; 'I' for Inactive)
REMARK    1  A    between atoms: C4_4  and  C5_5
REMARK    2  A    between atoms: C5_5  and  O1_6
REMARK    3  A    between atoms: O1_6  and  C6_7
REMARK       I    between atoms: C6_7  and  N1_9
REMARK    4  A    between atoms: N1_9  and  N2_10
REMARK    5  A    between atoms: N2_10  and  C7_12
REMARK    6  A    between atoms: C8_13  and  N3_14
REMARK    7  A    between atoms: N3_14  and  O3_16
REMARK    8  A    between atoms: C9_20  and  N5_21
REMARK    9  A    between atoms: N5_21  and  N6_23
REMARK   10  A    between atoms: C10_28  and  N9_29
REMARK   11  A    between atoms: N9_29  and  N10_31
REMARK   12  A    between atoms: C11_34  and  O4_35
REMARK   13  A    between atoms: N11_37  and  C12_38
REMARK   14  A    between atoms: C12_38  and  O5_42
ROOT
HETATM    1  C1  UNL     1     -16.550   0.817   6.681  1.00  0.00     0.017 C
HETATM    2  C2  UNL     1     -15.786  -0.085   6.983  1.00  0.00    -0.090 C
HETATM    3  C3  UNL     1     -14.883  -1.174   7.258  1.00  0.00     0.061 C
HETATM    4  C4  UNL     1     -14.856  -2.318   6.592  1.00  0.00     0.009 C
ENDROOT
BRANCH   4   5
HETATM    5  C5  UNL     1     -14.088  -3.455   6.701  1.00  0.00     0.210 C
BRANCH   5   6
HETATM    6  O1  UNL     1     -13.367  -3.540   5.402  1.00  0.00    -0.288 OA
BRANCH   6   7
HETATM    7  C6  UNL     1     -12.900  -4.923   5.011  1.00  0.00     0.458 C
HETATM    8  O2  UNL     1     -13.855  -5.637   5.106  1.00  0.00    -0.219 OA
HETATM    9  N1  UNL     1     -11.603  -4.854   4.691  1.00  0.00    -0.258 NA
BRANCH   9  10
HETATM   10  N2  UNL     1     -10.322  -4.789   4.373  1.00  0.00    -0.221 N
ATOM     11  H2  UNL     1     -10.005  -5.690   4.015  1.00  0.00     0.202 HD
BRANCH  10  12
HETATM   12  C7  UNL     1      -9.263  -3.872   4.373  1.00  0.00     0.176 A
HETATM   13  C8  UNL     1      -9.543  -2.495   4.657  1.00  0.00     0.175 A
HETATM   14  N4  UNL     1      -8.459  -1.768   4.795  1.00  0.00    -0.170 N
HETATM   15  C9  UNL     1      -7.161  -2.107   4.714  1.00  0.00     0.713 A
ATOM     16  H4  UNL     1      -8.630  -0.783   4.996  1.00  0.00     0.186 HD
HETATM   17  N11 UNL     1      -6.922  -3.393   4.431  1.00  0.00    -0.070 N
HETATM   18  C13 UNL     1      -7.970  -4.242   4.270  1.00  0.00     0.302 A
HETATM   19  O6  UNL     1      -7.740  -5.475   3.988  1.00  0.00    -0.264 OA
BRANCH  13  20
HETATM   20  N3  UNL     1     -10.872  -2.041   4.634  1.00  0.00    -0.250 N
ATOM     21  H3  UNL     1     -11.344  -1.682   5.464  1.00  0.00     0.196 HD
BRANCH  20  22
HETATM   22  O3  UNL     1     -11.470  -2.116   3.437  1.00  0.00    -0.288 OA
ATOM     23  H3  UNL     1     -12.233  -1.557   3.337  1.00  0.00     0.244 HD
ENDBRANCH  20  22
ENDBRANCH  13  20
BRANCH  15  24
HETATM   24  N5  UNL     1      -6.408  -1.245   4.950  1.00  0.00    -0.106 N
ATOM     25  H5  UNL     1      -6.124  -0.992   4.005  1.00  0.00     0.208 HD
BRANCH  24  26
HETATM   26  N6  UNL     1      -5.677  -0.373   5.655  1.00  0.00    -0.140 N
HETATM   27  N7  UNL     1      -5.881   0.235   6.763  1.00  0.00    -0.217 N
HETATM   28  N8  UNL     1      -4.835   0.948   7.115  1.00  0.00    -0.265 N
ATOM     29  H7  UNL     1      -6.744   0.174   7.302  1.00  0.00     0.210 HD
HETATM   30  C10 UNL     1      -3.827   0.808   6.165  1.00  0.00     0.191 A
ATOM     31  H8  UNL     1      -4.771   1.519   7.959  1.00  0.00     0.190 HD
HETATM   32  C11 UNL     1      -4.385  -0.032   5.239  1.00  0.00     0.228 A
BRANCH  30  33
HETATM   33  N9  UNL     1      -2.604   1.506   6.232  1.00  0.00    -0.287 N
ATOM     34  H9  UNL     1      -2.020   1.472   7.068  1.00  0.00     0.188 HD
BRANCH  33  35
HETATM   35  N10 UNL     1      -2.213   2.266   5.083  1.00  0.00    -0.343 N
ATOM     36 2H10 UNL     1      -1.769   3.178   5.195  1.00  0.00     0.176 HD
ATOM     37 1H10 UNL     1      -2.397   1.860   4.166  1.00  0.00     0.176 HD
ENDBRANCH  33  35
ENDBRANCH  30  33
BRANCH  32  38
HETATM   38  O4  UNL     1      -3.766  -0.434   4.122  1.00  0.00    -0.341 OA
ATOM     39  H4  UNL     1      -3.885  -1.261   3.669  1.00  0.00     0.219 HD
ENDBRANCH  32  38
ENDBRANCH  24  26
ENDBRANCH  15  24
BRANCH  17  40
HETATM   40  C12 UNL     1      -5.638  -3.907   4.348  1.00  0.00     0.240 C
HETATM   41  N12 UNL     1      -4.718  -4.795   4.731  1.00  0.00    -0.364 N
ATOM     42 2H12 UNL     1      -5.193  -5.363   5.432  1.00  0.00     0.159 HD
ATOM     43 1H12 UNL     1      -3.772  -5.173   4.671  1.00  0.00     0.159 HD
BRANCH  40  44
HETATM   44  O5  UNL     1      -4.963  -3.099   3.353  1.00  0.00    -0.332 OA
ATOM     45  H5  UNL     1      -4.158  -3.563   3.155  1.00  0.00     0.221 HD
ENDBRANCH  40  44
ENDBRANCH  17  40
ENDBRANCH  10  12
ENDBRANCH   9  10
ENDBRANCH   6   7
ENDBRANCH   5   6
ENDBRANCH   4   5
TORSDOF 14
ENDMDL