MODEL 4
REMARK VINA RESULT: -9.149934321      1.351      1.613
REMARK  11 active torsions:
REMARK  status: ('A' for Active; 'I' for Inactive)
REMARK    1  A    between atoms: N1_1  and  C1_4
REMARK    2  A    between atoms: C2_10  and  N4_11
REMARK    3  A    between atoms: N4_11  and  C3_13
REMARK    4  A    between atoms: C3_13  and  C4_14
REMARK    5  A    between atoms: C4_14  and  C5_16
REMARK    6  A    between atoms: C5_16  and  O3_17
REMARK    7  A    between atoms: O3_17  and  C6_18
REMARK    8  A    between atoms: C9_21  and  O4_22
REMARK    9  A    between atoms: C11_25  and  S1_26
REMARK   10  A    between atoms: S1_26  and  N5_29
REMARK       I    between atoms: N5_29  and  C12_31
REMARK   11  A    between atoms: C13_34  and  O8_35
ROOT
HETATM    1  C6  UNL     1     -16.273 -16.745 -30.862  1.00  0.00     0.187 A
HETATM    2  C7  UNL     1     -15.413 -16.398 -31.910  1.00  0.00     0.081 A
HETATM    3  C8  UNL     1     -14.409 -15.609 -31.393  1.00  0.00     0.038 A
HETATM    4  C9  UNL     1     -13.309 -14.991 -31.951  1.00  0.00     0.080 A
HETATM    5  C10 UNL     1     -12.481 -14.254 -31.131  1.00  0.00     0.065 A
HETATM    6  C11 UNL     1     -12.735 -14.124 -29.768  1.00  0.00     0.118 A
HETATM    7  C13 UNL     1     -13.836 -14.750 -29.250  1.00  0.00     0.124 A
HETATM    8  C14 UNL     1     -14.702 -15.505 -30.031  1.00  0.00     0.126 A
HETATM    9  O9  UNL     1     -15.795 -16.187 -29.794  1.00  0.00    -0.284 OA
ENDROOT
BRANCH   1  10
HETATM   10  O3  UNL     1     -17.395 -17.541 -31.051  1.00  0.00    -0.323 OA
BRANCH  10  11
HETATM   11  C5  UNL     1     -18.637 -16.965 -31.382  1.00  0.00     0.258 C
BRANCH  11  12
HETATM   12  C4  UNL     1     -19.766 -17.850 -31.164  1.00  0.00     0.168 C
HETATM   13  O2  UNL     1     -20.491 -18.096 -32.141  1.00  0.00    -0.294 OA
BRANCH  12  14
HETATM   14  C3  UNL     1     -20.143 -18.490 -29.900  1.00  0.00     0.202 C
BRANCH  14  15
HETATM   15  N4  UNL     1     -19.506 -17.856 -28.796  1.00  0.00    -0.365 N
ATOM     16  H4  UNL     1     -18.486 -17.852 -28.773  1.00  0.00     0.161 HD
BRANCH  15  17
HETATM   17  C2  UNL     1     -20.133 -17.284 -27.822  1.00  0.00     0.169 A
HETATM   18  C1  UNL     1     -20.199 -15.925 -27.615  1.00  0.00     0.167 A
HETATM   19  N2  UNL     1     -20.941 -15.739 -26.502  1.00  0.00    -0.222 N
HETATM   20  O1  UNL     1     -21.298 -16.900 -26.065  1.00  0.00    -0.153 OA
ATOM     21  H2  UNL     1     -21.177 -14.841 -26.082  1.00  0.00     0.198 HD
HETATM   22  N3  UNL     1     -20.838 -17.847 -26.824  1.00  0.00    -0.222 N
ATOM     23  H3  UNL     1     -20.985 -18.847 -26.688  1.00  0.00     0.198 HD
BRANCH  18  24
HETATM   24  N1  UNL     1     -19.686 -14.958 -28.297  1.00  0.00    -0.381 N
ATOM     25  H12 UNL     1     -19.973 -13.982 -28.366  1.00  0.00     0.157 HD
ATOM     26  H11 UNL     1     -18.867 -15.065 -28.894  1.00  0.00     0.157 HD
ENDBRANCH  18  24
ENDBRANCH  15  17
ENDBRANCH  14  15
ENDBRANCH  12  14
ENDBRANCH  11  12
ENDBRANCH  10  11
ENDBRANCH   1  10
BRANCH   4  27
HETATM   27  O4  UNL     1     -13.090 -15.144 -33.311  1.00  0.00    -0.360 OA
ATOM     28  H4  UNL     1     -13.842 -15.122 -33.892  1.00  0.00     0.217 HD
ENDBRANCH   4  27
BRANCH   7  29
HETATM   29  O8  UNL     1     -14.114 -14.639 -27.897  1.00  0.00    -0.357 OA
ATOM     30  H8  UNL     1     -14.380 -13.800 -27.540  1.00  0.00     0.218 HD
ENDBRANCH   7  29
BRANCH   6  31
HETATM   31  S1  UNL     1     -11.655 -13.173 -28.754  1.00  0.00     0.269 S
HETATM   32  O5  UNL     1     -10.498 -14.003 -28.262  1.00  0.00    -0.200 OA
HETATM   33  O6  UNL     1     -12.470 -12.679 -27.584  1.00  0.00    -0.200 OA
BRANCH  31  34
HETATM   34  N5  UNL     1     -11.115 -11.776 -29.614  1.00  0.00    -0.234 N
HETATM   35  C12 UNL     1     -10.337 -10.764 -28.988  1.00  0.00     0.342 C
HETATM   36  N6  UNL     1      -9.888  -9.617 -29.677  1.00  0.00    -0.039 NA
HETATM   37  O7  UNL     1     -10.027 -10.878 -27.774  1.00  0.00    -0.250 OA
ATOM     38  H5  UNL     1     -11.361 -11.675 -30.599  1.00  0.00     0.183 HD
ENDBRANCH  31  34
ENDBRANCH   6  31
TORSDOF 11
ENDMDL