MODEL 4
REMARK VINA RESULT: -8.322033958      5.747      9.096
REMARK  12 active torsions:
REMARK  status: ('A' for Active; 'I' for Inactive)
REMARK    1  A    between atoms: N1_1  and  C1_4
REMARK    2  A    between atoms: N5_10  and  C2_11
REMARK    3  A    between atoms: C3_14  and  N7_15
REMARK    4  A    between atoms: N7_15  and  C4_17
REMARK    5  A    between atoms: C4_17  and  C5_18
REMARK    6  A    between atoms: C5_18  and  O1_19
REMARK    7  A    between atoms: C6_23  and  N9_24
REMARK    8  A    between atoms: N9_24  and  C7_26
REMARK    9  A    between atoms: C10_29  and  N10_30
REMARK   10  A    between atoms: C12_34  and  C13_35
REMARK   11  A    between atoms: C13_35  and  N13_37
REMARK   12  A    between atoms: N13_37  and  O2_39
ROOT
HETATM    1  C2  UNL     1     -19.731 -17.155 -28.717  1.00  0.00     0.748 A
HETATM    2  N6  UNL     1     -20.242 -18.380 -28.934  1.00  0.00    -0.019 N
ATOM      3  H6  UNL     1     -20.788 -18.816 -28.190  1.00  0.00     0.203 HD
HETATM    4  C3  UNL     1     -20.065 -19.068 -30.098  1.00  0.00     0.707 A
HETATM    5  N8  UNL     1     -19.351 -18.485 -31.058  1.00  0.00    -0.021 N
ATOM      6  H8  UNL     1     -19.207 -18.984 -31.937  1.00  0.00     0.203 HD
HETATM    7  C6  UNL     1     -18.803 -17.246 -30.908  1.00  0.00     0.711 A
HETATM    8  N14 UNL     1     -19.015 -16.629 -29.743  1.00  0.00    -0.019 N
ATOM      9  H14 UNL     1     -18.612 -15.701 -29.616  1.00  0.00     0.203 HD
ENDROOT
BRANCH   7  10
HETATM   10  N9  UNL     1     -18.137 -16.767 -31.875  1.00  0.00    -0.191 N
ATOM     11  H9  UNL     1     -18.549 -16.862 -32.803  1.00  0.00     0.184 HD
BRANCH  10  12
HETATM   12  C7  UNL     1     -16.902 -16.125 -31.805  1.00  0.00     0.049 A
HETATM   13  C8  UNL     1     -16.734 -14.884 -32.353  1.00  0.00     0.032 A
HETATM   14  C9  UNL     1     -15.520 -14.204 -32.307  1.00  0.00     0.032 A
HETATM   15  C10 UNL     1     -14.460 -14.816 -31.685  1.00  0.00     0.039 A
HETATM   16  C15 UNL     1     -14.637 -16.074 -31.131  1.00  0.00     0.032 A
HETATM   17  C16 UNL     1     -15.843 -16.730 -31.186  1.00  0.00     0.032 A
BRANCH  15  18
HETATM   18  N10 UNL     1     -13.202 -14.157 -31.615  1.00  0.00    -0.316 N
HETATM   19  C11 UNL     1     -12.473 -13.660 -32.629  1.00  0.00     0.188 A
HETATM   20  N11 UNL     1     -11.341 -13.111 -32.171  1.00  0.00    -0.348 N
HETATM   21  C12 UNL     1     -11.339 -13.256 -30.844  1.00  0.00     0.092 A
ATOM     22  H11 UNL     1     -10.615 -12.665 -32.732  1.00  0.00     0.167 HD
HETATM   23  C14 UNL     1     -12.500 -13.908 -30.505  1.00  0.00     0.131 A
BRANCH  21  24
HETATM   24  C13 UNL     1     -10.301 -12.810 -29.910  1.00  0.00     0.164 C
HETATM   25  N12 UNL     1     -10.337 -13.233 -28.566  1.00  0.00    -0.078 NA
BRANCH  24  26
HETATM   26  N13 UNL     1      -9.358 -12.039 -30.285  1.00  0.00    -0.253 N
ATOM     27  H13 UNL     1      -8.396 -12.320 -30.091  1.00  0.00     0.195 HD
BRANCH  26  28
HETATM   28  O2  UNL     1      -9.570 -10.859 -30.932  1.00  0.00    -0.288 OA
ATOM     29  H2  UNL     1      -9.256 -10.684 -31.811  1.00  0.00     0.244 HD
ENDBRANCH  26  28
ENDBRANCH  24  26
ENDBRANCH  21  24
ENDBRANCH  15  18
ENDBRANCH  10  12
ENDBRANCH   7  10
BRANCH   4  30
HETATM   30  N7  UNL     1     -20.582 -20.231 -30.231  1.00  0.00    -0.223 N
ATOM     31  H7  UNL     1     -21.350 -20.345 -30.893  1.00  0.00     0.177 HD
BRANCH  30  32
HETATM   32  C4  UNL     1     -20.136 -21.388 -29.498  1.00  0.00     0.164 C
BRANCH  32  33
HETATM   33  C5  UNL     1     -20.944 -21.613 -28.238  1.00  0.00     0.184 C
BRANCH  33  34
HETATM   34  O1  UNL     1     -20.576 -20.726 -27.228  1.00  0.00    -0.399 OA
ATOM     35  H1  UNL     1     -20.579 -21.146 -26.376  1.00  0.00     0.209 HD
ENDBRANCH  33  34
ENDBRANCH  32  33
ENDBRANCH  30  32
ENDBRANCH   4  30
BRANCH   1  36
HETATM   36  N5  UNL     1     -19.930 -16.467 -27.502  1.00  0.00     0.105 N
HETATM   37  C1  UNL     1     -19.148 -15.547 -26.946  1.00  0.00     0.726 A
HETATM   38  N2  UNL     1     -19.681 -15.121 -25.774  1.00  0.00    -0.113 N
HETATM   39  N3  UNL     1     -20.818 -15.812 -25.634  1.00  0.00     0.009 NA
ATOM     40  H2  UNL     1     -19.298 -14.423 -25.137  1.00  0.00     0.203 HD
HETATM   41  N4  UNL     1     -20.955 -16.627 -26.694  1.00  0.00    -0.190 N
ATOM     42  H4  UNL     1     -21.732 -17.271 -26.847  1.00  0.00     0.207 HD
BRANCH  37  43
HETATM   43  N1  UNL     1     -18.043 -15.117 -27.439  1.00  0.00    -0.231 N
ATOM     44  H12 UNL     1     -17.917 -14.773 -28.392  1.00  0.00     0.174 HD
ATOM     45  H11 UNL     1     -17.162 -15.072 -26.926  1.00  0.00     0.174 HD
ENDBRANCH  37  43
ENDBRANCH   1  36
TORSDOF 12
ENDMDL