MODEL 3
REMARK VINA RESULT: -8.361595697      7.023     10.674
REMARK  9 active torsions:
REMARK  status: ('A' for Active; 'I' for Inactive)
REMARK    1  A    between atoms: O1_2  and  C2_3
REMARK       I    between atoms: C2_3  and  N1_5
REMARK    2  A    between atoms: N1_5  and  C3_7
REMARK    3  A    between atoms: C3_7  and  C4_8
REMARK    4  A    between atoms: C4_8  and  C6_10
REMARK    5  A    between atoms: C6_10  and  N2_12
REMARK    6  A    between atoms: N2_12  and  N3_14
REMARK       I    between atoms: N3_14  and  C7_16
REMARK    7  A    between atoms: C7_16  and  C8_18
REMARK    8  A    between atoms: N4_20  and  C10_21
REMARK    9  A    between atoms: C15_35  and  N9_36
ROOT
HETATM    1  C8  UNL     1     -15.802 -16.592 -31.396  1.00  0.00     0.133 A
HETATM    2  C9  UNL     1     -15.052 -15.790 -30.568  1.00  0.00     0.152 A
HETATM    3  N4  UNL     1     -13.750 -16.065 -30.753  1.00  0.00    -0.231 N
HETATM    4  N11 UNL     1     -13.693 -17.015 -31.674  1.00  0.00    -0.013 NA
HETATM    5  N12 UNL     1     -14.928 -17.348 -32.076  1.00  0.00    -0.277 N
ATOM      6  H12 UNL     1     -15.162 -18.052 -32.776  1.00  0.00     0.184 HD
ENDROOT
BRANCH   3   7
HETATM    7  C10 UNL     1     -12.630 -15.480 -30.103  1.00  0.00     0.142 C
HETATM    8  C11 UNL     1     -11.396 -15.673 -30.706  1.00  0.00     0.140 C
HETATM    9  N5  UNL     1     -10.311 -14.847 -30.634  1.00  0.00    -0.347 N
HETATM   10  C12 UNL     1     -10.207 -13.648 -30.013  1.00  0.00     0.138 A
ATOM     11  H5  UNL     1      -9.471 -15.175 -31.110  1.00  0.00     0.167 HD
HETATM   12  N6  UNL     1      -9.276 -12.698 -30.230  1.00  0.00    -0.283 N
HETATM   13  C14 UNL     1     -11.037 -13.140 -29.018  1.00  0.00     0.098 A
HETATM   14  N7  UNL     1      -9.510 -11.661 -29.421  1.00  0.00    -0.283 N
ATOM     15  H6  UNL     1      -8.514 -12.761 -30.905  1.00  0.00     0.188 HD
HETATM   16  C13 UNL     1     -10.584 -11.884 -28.654  1.00  0.00     0.131 A
ATOM     17  H7  UNL     1      -8.945 -10.813 -29.392  1.00  0.00     0.188 HD
HETATM   18  N8  UNL     1     -11.126 -11.133 -27.757  1.00  0.00    -0.384 N
ATOM     19  H82 UNL     1     -10.792 -10.207 -27.489  1.00  0.00     0.157 HD
ATOM     20  H81 UNL     1     -11.945 -11.302 -27.173  1.00  0.00     0.157 HD
HETATM   21  C15 UNL     1     -12.133 -13.757 -28.467  1.00  0.00     0.118 C
HETATM   22  N10 UNL     1     -12.843 -14.790 -28.968  1.00  0.00    -0.326 N
ATOM     23  H10 UNL     1     -13.647 -15.086 -28.414  1.00  0.00     0.169 HD
BRANCH  21  24
HETATM   24  N9  UNL     1     -12.547 -13.311 -27.339  1.00  0.00    -0.385 N
ATOM     25  H92 UNL     1     -13.324 -12.652 -27.395  1.00  0.00     0.157 HD
ATOM     26  H91 UNL     1     -12.071 -13.649 -26.502  1.00  0.00     0.157 HD
ENDBRANCH  21  24
ENDBRANCH   3   7
BRANCH   1  27
HETATM   27  C7  UNL     1     -17.261 -16.646 -31.539  1.00  0.00     0.289 C
HETATM   28  N3  UNL     1     -18.021 -17.742 -31.069  1.00  0.00    -0.264 N
ATOM     29  H3  UNL     1     -17.549 -18.524 -30.615  1.00  0.00     0.190 HD
HETATM   30  O3  UNL     1     -17.852 -15.690 -32.097  1.00  0.00    -0.264 OA
BRANCH  28  31
HETATM   31  N2  UNL     1     -19.392 -17.765 -31.216  1.00  0.00    -0.291 N
ATOM     32  H2  UNL     1     -19.848 -16.910 -31.533  1.00  0.00     0.187 HD
BRANCH  31  33
HETATM   33  C6  UNL     1     -20.212 -18.890 -30.958  1.00  0.00     0.097 C
HETATM   34  S1  UNL     1     -20.842 -19.781 -32.182  1.00  0.00    -0.064 SA
BRANCH  33  35
HETATM   35  C4  UNL     1     -20.506 -19.261 -29.556  1.00  0.00     0.062 C
HETATM   36  C5  UNL     1     -20.289 -20.779 -29.450  1.00  0.00     0.019 C
BRANCH  35  37
HETATM   37  C3  UNL     1     -19.434 -18.597 -28.684  1.00  0.00     0.136 C
BRANCH  37  38
HETATM   38  N1  UNL     1     -19.990 -17.705 -27.703  1.00  0.00    -0.336 N
HETATM   39  C2  UNL     1     -19.941 -16.298 -27.836  1.00  0.00     0.360 C
HETATM   40  O2  UNL     1     -19.409 -15.727 -28.815  1.00  0.00    -0.239 OA
ATOM     41  H1  UNL     1     -20.439 -18.104 -26.879  1.00  0.00     0.164 HD
BRANCH  39  42
HETATM   42  O1  UNL     1     -20.506 -15.472 -26.842  1.00  0.00    -0.309 OA
HETATM   43  C1  UNL     1     -21.301 -16.077 -25.856  1.00  0.00     0.215 C
ENDBRANCH  39  42
ENDBRANCH  37  38
ENDBRANCH  35  37
ENDBRANCH  33  35
ENDBRANCH  31  33
ENDBRANCH  28  31
ENDBRANCH   1  27
TORSDOF 9
ENDMDL