MODEL 1
REMARK VINA RESULT: -9.806326561      0.000      0.000
REMARK  8 active torsions:
REMARK  status: ('A' for Active; 'I' for Inactive)
REMARK    1  A    between atoms: C1_2  and  C2_7
REMARK    2  A    between atoms: N2_3  and  O1_5
REMARK    3  A    between atoms: C5_12  and  C6_13
REMARK    4  A    between atoms: C6_13  and  N4_14
REMARK    5  A    between atoms: N5_17  and  C9_18
REMARK    6  A    between atoms: C9_18  and  C10_19
REMARK    7  A    between atoms: N7_29  and  O2_30
REMARK    8  A    between atoms: C18_32  and  N8_33
REMARK       I    between atoms: N8_33  and  C19_35
REMARK       I    between atoms: C19_35  and  N9_36
REMARK       I    between atoms: C19_35  and  N10_40
ROOT
HETATM    1  C2  UNL     1     -13.124 -14.143 -28.880  1.00  0.00     0.152 A
HETATM    2  N3  UNL     1     -12.446 -12.980 -28.881  1.00  0.00    -0.322 N
ATOM      3  H3  UNL     1     -12.681 -12.256 -28.201  1.00  0.00     0.169 HD
HETATM    4  C3  UNL     1     -11.460 -12.767 -29.774  1.00  0.00     0.169 A
HETATM    5  C4  UNL     1     -11.188 -13.769 -30.660  1.00  0.00     0.082 A
HETATM    6  C5  UNL     1     -10.161 -13.295 -31.452  1.00  0.00     0.064 A
HETATM    7  N6  UNL     1      -9.872 -12.058 -31.011  1.00  0.00    -0.274 N
ATOM      8  H6  UNL     1      -9.146 -11.463 -31.413  1.00  0.00     0.189 HD
HETATM    9  N7  UNL     1     -10.633 -11.707 -30.002  1.00  0.00    -0.145 N
HETATM   10  C18 UNL     1     -11.879 -15.000 -30.687  1.00  0.00     0.121 A
HETATM   11  N11 UNL     1     -12.846 -15.140 -29.769  1.00  0.00    -0.325 N
ATOM     12  H11 UNL     1     -13.383 -16.007 -29.734  1.00  0.00     0.169 HD
ENDROOT
BRANCH   6  13
HETATM   13  C6  UNL     1      -9.538 -14.058 -32.562  1.00  0.00     0.182 C
BRANCH  13  14
HETATM   14  N4  UNL     1      -9.783 -13.513 -33.861  1.00  0.00    -0.382 N
HETATM   15  C7  UNL     1      -8.840 -12.654 -34.407  1.00  0.00     0.102 C
HETATM   16  C8  UNL     1      -9.293 -11.382 -35.035  1.00  0.00     0.102 C
HETATM   17  N5  UNL     1     -10.634 -11.322 -35.454  1.00  0.00    -0.383 N
HETATM   18  C16 UNL     1     -11.599 -12.092 -34.768  1.00  0.00     0.142 C
HETATM   19  C17 UNL     1     -11.140 -13.394 -34.227  1.00  0.00     0.142 C
BRANCH  17  20
HETATM   20  C9  UNL     1     -10.911 -10.980 -36.800  1.00  0.00     0.160 C
BRANCH  20  21
HETATM   21  C10 UNL     1     -11.325  -9.563 -36.996  1.00  0.00    -0.040 A
HETATM   22  C11 UNL     1     -10.793  -8.770 -37.989  1.00  0.00     0.009 A
HETATM   23  C12 UNL     1     -11.184  -7.473 -38.160  1.00  0.00     0.001 A
HETATM   24  C13 UNL     1     -12.121  -6.884 -37.359  1.00  0.00     0.000 A
HETATM   25  C14 UNL     1     -12.668  -7.675 -36.349  1.00  0.00     0.001 A
HETATM   26  C15 UNL     1     -12.278  -8.985 -36.172  1.00  0.00     0.009 A
ENDBRANCH  20  21
ENDBRANCH  17  20
ENDBRANCH  13  14
ENDBRANCH   6  13
BRANCH  10  27
HETATM   27  N8  UNL     1     -11.506 -15.859 -31.544  1.00  0.00    -0.326 N
HETATM   28  C19 UNL     1     -12.254 -16.587 -32.480  1.00  0.00     0.481 C
HETATM   29  N9  UNL     1     -13.134 -15.748 -33.241  1.00  0.00    -0.033 N
HETATM   30  N10 UNL     1     -13.044 -17.597 -31.784  1.00  0.00    -0.033 N
ATOM     31  H93 UNL     1     -13.740 -15.199 -32.631  1.00  0.00     0.278 HD
ATOM     32  H92 UNL     1     -12.623 -14.988 -33.689  1.00  0.00     0.278 HD
ATOM     33  H91 UNL     1     -13.679 -16.277 -33.921  1.00  0.00     0.278 HD
ATOM     34 3H10 UNL     1     -12.468 -18.199 -31.196  1.00  0.00     0.278 HD
ATOM     35 2H10 UNL     1     -13.627 -17.194 -31.052  1.00  0.00     0.278 HD
ATOM     36 1H10 UNL     1     -13.588 -18.126 -32.465  1.00  0.00     0.278 HD
ATOM     37  H8  UNL     1     -10.503 -16.050 -31.554  1.00  0.00     0.164 HD
ENDBRANCH  10  27
BRANCH   9  38
HETATM   38  O2  UNL     1     -10.671 -10.542 -29.264  1.00  0.00    -0.266 OA
ATOM     39  H2  UNL     1      -9.906 -10.005 -29.097  1.00  0.00     0.247 HD
ENDBRANCH   9  38
BRANCH   1  40
HETATM   40  C1  UNL     1     -14.181 -14.383 -27.917  1.00  0.00     0.180 C
HETATM   41  N1  UNL     1     -15.350 -15.105 -28.265  1.00  0.00    -0.077 NA
HETATM   42  N2  UNL     1     -14.107 -13.959 -26.704  1.00  0.00    -0.252 N
ATOM     43  H2  UNL     1     -14.875 -14.157 -26.064  1.00  0.00     0.195 HD
BRANCH  42  44
HETATM   44  O1  UNL     1     -13.043 -13.259 -26.251  1.00  0.00    -0.288 OA
ATOM     45  H1  UNL     1     -12.824 -13.212 -25.328  1.00  0.00     0.244 HD
ENDBRANCH  42  44
ENDBRANCH   1  40
TORSDOF 8
ENDMDL