MODEL 5
REMARK VINA RESULT: -7.941629465      1.419      2.106
REMARK  8 active torsions:
REMARK  status: ('A' for Active; 'I' for Inactive)
REMARK    1  A    between atoms: O1_2  and  C2_3
REMARK    2  A    between atoms: C2_3  and  C3_5
REMARK    3  A    between atoms: C4_8  and  N2_9
REMARK    4  A    between atoms: C6_14  and  C7_15
REMARK    5  A    between atoms: C9_22  and  N7_23
REMARK    6  A    between atoms: N7_23  and  N8_25
REMARK       I    between atoms: N8_25  and  C10_27
REMARK       I    between atoms: C10_27  and  N9_29
REMARK       I    between atoms: N9_29  and  C11_31
REMARK    7  A    between atoms: C13_36  and  S1_37
REMARK    8  A    between atoms: S1_37  and  C14_38
ROOT
HETATM    1  C3  UNL     1     -11.974 -12.037 -29.875  1.00  0.00     0.144 A
HETATM    2  N1  UNL     1     -13.069 -12.676 -30.324  1.00  0.00    -0.331 N
ATOM      3  H1  UNL     1     -13.946 -12.563 -29.816  1.00  0.00     0.168 HD
HETATM    4  C4  UNL     1     -13.050 -13.458 -31.418  1.00  0.00     0.175 A
HETATM    5  C9  UNL     1     -11.889 -13.639 -32.137  1.00  0.00     0.168 A
HETATM    6  N10 UNL     1     -10.785 -13.007 -31.700  1.00  0.00    -0.331 N
ATOM      7  H10 UNL     1      -9.909 -13.122 -32.210  1.00  0.00     0.168 HD
HETATM    8  C13 UNL     1     -10.810 -12.219 -30.595  1.00  0.00     0.111 A
ENDROOT
BRANCH   4   9
HETATM    9  N2  UNL     1     -14.223 -14.121 -31.870  1.00  0.00    -0.218 N
HETATM   10  N3  UNL     1     -14.977 -13.663 -32.849  1.00  0.00    -0.277 N
HETATM   11  C5  UNL     1     -16.017 -14.486 -33.065  1.00  0.00     0.150 A
ATOM     12  H3  UNL     1     -14.797 -12.805 -33.368  1.00  0.00     0.189 HD
HETATM   13  N4  UNL     1     -17.034 -14.320 -34.035  1.00  0.00    -0.080 NA
HETATM   14  C6  UNL     1     -15.889 -15.523 -32.153  1.00  0.00     0.117 A
HETATM   15  C8  UNL     1     -14.759 -15.276 -31.413  1.00  0.00     0.141 A
HETATM   16  N6  UNL     1     -14.233 -15.936 -30.464  1.00  0.00    -0.383 N
ATOM     17  H62 UNL     1     -13.393 -15.752 -29.914  1.00  0.00     0.157 HD
ATOM     18  H61 UNL     1     -14.638 -16.806 -30.120  1.00  0.00     0.157 HD
BRANCH  14  19
HETATM   19  C7  UNL     1     -16.801 -16.632 -32.041  1.00  0.00     0.272 C
HETATM   20  N5  UNL     1     -18.174 -16.477 -31.764  1.00  0.00    -0.057 NA
HETATM   21  O3  UNL     1     -16.390 -17.819 -32.189  1.00  0.00    -0.271 OA
ENDBRANCH  14  19
ENDBRANCH   4   9
BRANCH   5  22
HETATM   22  N7  UNL     1     -11.897 -14.398 -33.188  1.00  0.00    -0.278 N
ATOM     23  H7  UNL     1     -12.641 -15.086 -33.306  1.00  0.00     0.189 HD
BRANCH  22  24
HETATM   24  N8  UNL     1     -10.889 -14.286 -34.172  1.00  0.00    -0.250 N
HETATM   25  C10 UNL     1      -9.965 -15.322 -34.295  1.00  0.00     0.341 C
HETATM   26  O4  UNL     1     -10.100 -16.317 -33.492  1.00  0.00    -0.245 OA
HETATM   27  N9  UNL     1      -8.924 -15.367 -35.201  1.00  0.00    -0.278 N
HETATM   28  C11 UNL     1      -8.605 -14.400 -36.148  1.00  0.00     0.221 C
ATOM     29  H9  UNL     1      -8.328 -16.195 -35.173  1.00  0.00     0.173 HD
HETATM   30  C12 UNL     1      -7.414 -14.632 -37.062  1.00  0.00     0.117 C
HETATM   31  O5  UNL     1      -9.192 -13.318 -36.359  1.00  0.00    -0.274 OA
ATOM     32  H8  UNL     1     -10.839 -13.466 -34.777  1.00  0.00     0.192 HD
ENDBRANCH  22  24
ENDBRANCH   5  22
BRANCH   1  33
HETATM   33  C2  UNL     1     -12.020 -11.190 -28.679  1.00  0.00     0.312 C
HETATM   34  O2  UNL     1     -12.364  -9.983 -28.830  1.00  0.00    -0.258 OA
BRANCH  33  35
HETATM   35  O1  UNL     1     -11.712 -11.644 -27.426  1.00  0.00    -0.321 OA
HETATM   36  C1  UNL     1     -12.705 -11.686 -26.429  1.00  0.00     0.213 C
ENDBRANCH  33  35
ENDBRANCH   1  33
BRANCH   8  37
HETATM   37  S1  UNL     1      -9.332 -11.402 -30.051  1.00  0.00    -0.041 SA
BRANCH  37  38
HETATM   38  C14 UNL     1      -8.449 -10.636 -31.382  1.00  0.00     0.310 C
HETATM   39  O6  UNL     1      -9.035 -10.379 -32.414  1.00  0.00    -0.295 OA
ENDBRANCH  37  38
ENDBRANCH   8  37
TORSDOF 8
ENDMDL