MODEL 4
REMARK VINA RESULT: -8.058204720      3.561     10.379
REMARK  9 active torsions:
REMARK  status: ('A' for Active; 'I' for Inactive)
REMARK    1  A    between atoms: C2_2  and  S1_3
REMARK    2  A    between atoms: S1_3  and  C3_6
REMARK    3  A    between atoms: C6_12  and  N2_13
REMARK       I    between atoms: N2_13  and  C7_15
REMARK    4  A    between atoms: C7_15  and  C8_17
REMARK    5  A    between atoms: C9_20  and  C10_21
REMARK    6  A    between atoms: N4_22  and  N5_24
REMARK    7  A    between atoms: N5_24  and  C11_26
REMARK    8  A    between atoms: C14_33  and  O5_34
REMARK    9  A    between atoms: N9_38  and  N10_39
ROOT
HETATM    1  C8  UNL     1     -13.476 -16.145 -31.710  1.00  0.00     0.214 A
HETATM    2  N3  UNL     1     -14.691 -16.196 -31.293  1.00  0.00    -0.330 N
ATOM      3  H3  UNL     1     -15.104 -15.370 -30.861  1.00  0.00     0.168 HD
HETATM    4  C9  UNL     1     -15.480 -17.384 -31.420  1.00  0.00     0.103 A
HETATM    5  C14 UNL     1     -14.949 -18.467 -31.984  1.00  0.00     0.185 A
HETATM    6  N8  UNL     1     -13.625 -18.428 -32.444  1.00  0.00    -0.255 N
ATOM      7  H8  UNL     1     -13.213 -19.255 -32.877  1.00  0.00     0.191 HD
HETATM    8  N9  UNL     1     -12.859 -17.246 -32.311  1.00  0.00    -0.178 N
ENDROOT
BRANCH   1   9
HETATM    9  C7  UNL     1     -12.700 -14.895 -31.556  1.00  0.00     0.293 C
HETATM   10  N2  UNL     1     -12.100 -14.635 -30.334  1.00  0.00    -0.316 N
ATOM     11  H2  UNL     1     -12.231 -15.331 -29.601  1.00  0.00     0.169 HD
HETATM   12  O4  UNL     1     -12.641 -14.163 -32.540  1.00  0.00    -0.264 OA
BRANCH  10  13
HETATM   13  C6  UNL     1     -11.327 -13.503 -30.006  1.00  0.00     0.105 A
HETATM   14  C5  UNL     1     -11.447 -12.971 -28.710  1.00  0.00     0.272 A
HETATM   15  N1  UNL     1     -10.747 -11.914 -28.352  1.00  0.00    -0.330 N
HETATM   16  O3  UNL     1     -12.253 -13.560 -27.927  1.00  0.00    -0.266 OA
HETATM   17  C4  UNL     1      -9.903 -11.300 -29.173  1.00  0.00     0.115 A
ATOM     18  H1  UNL     1     -10.857 -11.553 -27.404  1.00  0.00     0.168 HD
HETATM   19  C3  UNL     1      -9.735 -11.765 -30.456  1.00  0.00     0.081 A
HETATM   20  C15 UNL     1     -10.456 -12.881 -30.878  1.00  0.00     0.060 A
BRANCH  19  21
HETATM   21  S1  UNL     1      -8.640 -11.005 -31.593  1.00  0.00     0.197 S
HETATM   22  O1  UNL     1      -7.234 -11.167 -31.084  1.00  0.00    -0.218 OA
HETATM   23  O2  UNL     1      -8.984  -9.550 -31.748  1.00  0.00    -0.218 OA
BRANCH  21  24
HETATM   24  C2  UNL     1      -8.822 -11.771 -33.168  1.00  0.00     0.104 C
HETATM   25  C1  UNL     1      -9.601 -11.203 -34.056  1.00  0.00     0.024 C
ENDBRANCH  21  24
ENDBRANCH  19  21
ENDBRANCH  10  13
ENDBRANCH   1   9
BRANCH   8  26
HETATM   26  N10 UNL     1     -11.564 -17.267 -32.781  1.00  0.00    -0.322 N
ATOM     27 2H10 UNL     1     -11.251 -18.108 -33.266  1.00  0.00     0.179 HD
ATOM     28 1H10 UNL     1     -10.893 -16.505 -32.681  1.00  0.00     0.179 HD
ENDBRANCH   8  26
BRANCH   4  29
HETATM   29  C10 UNL     1     -16.850 -17.385 -30.930  1.00  0.00     0.141 C
HETATM   30  N4  UNL     1     -17.827 -17.132 -31.726  1.00  0.00    -0.307 N
ATOM     31  H4  UNL     1     -17.629 -16.930 -32.707  1.00  0.00     0.186 HD
BRANCH  30  32
HETATM   32  N5  UNL     1     -19.137 -17.126 -31.290  1.00  0.00    -0.272 N
ATOM     33  H5  UNL     1     -19.731 -16.316 -31.471  1.00  0.00     0.190 HD
BRANCH  32  34
HETATM   34  C11 UNL     1     -19.657 -18.240 -30.596  1.00  0.00     0.190 C
HETATM   35  N6  UNL     1     -20.192 -18.172 -29.446  1.00  0.00    -0.360 N
HETATM   36  C12 UNL     1     -20.615 -19.486 -29.025  1.00  0.00     0.142 C
ATOM     37  H6  UNL     1     -20.304 -17.317 -28.902  1.00  0.00     0.162 HD
HETATM   38  C13 UNL     1     -19.798 -20.401 -29.890  1.00  0.00     0.142 C
HETATM   39  N7  UNL     1     -19.644 -19.572 -31.094  1.00  0.00    -0.360 N
ATOM     40  H7  UNL     1     -19.551 -19.880 -32.062  1.00  0.00     0.162 HD
ENDBRANCH  32  34
ENDBRANCH  30  32
ENDBRANCH   4  29
BRANCH   5  41
HETATM   41  O5  UNL     1     -15.781 -19.577 -32.069  1.00  0.00    -0.343 OA
ATOM     42  H5  UNL     1     -15.623 -20.159 -32.802  1.00  0.00     0.219 HD
ENDBRANCH   5  41
TORSDOF 9
ENDMDL