MODEL 1
REMARK VINA RESULT: -8.600635064      0.000      0.000
REMARK  11 active torsions:
REMARK  status: ('A' for Active; 'I' for Inactive)
REMARK    1  A    between atoms: O1_2  and  C2_3
REMARK    2  A    between atoms: C3_4  and  O2_5
REMARK    3  A    between atoms: C3_4  and  C4_7
REMARK    4  A    between atoms: C4_7  and  O3_8
REMARK    5  A    between atoms: C6_16  and  O4_17
REMARK    6  A    between atoms: C7_19  and  C8_20
REMARK    7  A    between atoms: C8_20  and  O5_22
REMARK    8  A    between atoms: C10_25  and  O7_26
REMARK    9  A    between atoms: O7_26  and  S1_27
REMARK   10  A    between atoms: S1_27  and  C11_30
REMARK   11  A    between atoms: C11_30  and  C12_31
ROOT
HETATM    1  C2  UNL     1     -13.628 -14.561 -32.247  1.00  0.00     0.231 C
HETATM    2  C3  UNL     1     -15.013 -14.109 -32.081  1.00  0.00     0.207 C
HETATM    3  N1  UNL     1     -15.251 -12.773 -32.678  1.00  0.00    -0.101 NA
HETATM    4  N2  UNL     1     -14.441 -11.798 -32.171  1.00  0.00    -0.106 NA
HETATM    5  C5  UNL     1     -13.107 -12.341 -31.901  1.00  0.00     0.364 C
HETATM    6  N3  UNL     1     -13.297 -13.037 -30.611  1.00  0.00    -0.012 N
ATOM      7  H31 UNL     1     -14.243 -13.030 -30.228  1.00  0.00     0.283 HD
ATOM      8  H32 UNL     1     -12.884 -12.592 -29.791  1.00  0.00     0.283 HD
HETATM    9  C6  UNL     1     -12.761 -14.336 -30.978  1.00  0.00     0.296 C
HETATM   10  C7  UNL     1     -11.385 -14.033 -31.526  1.00  0.00     0.220 C
HETATM   11  O6  UNL     1     -11.584 -13.954 -32.894  1.00  0.00    -0.336 OA
HETATM   12  C10 UNL     1     -12.877 -13.378 -32.947  1.00  0.00     0.268 C
ENDROOT
BRANCH  12  13
HETATM   13  O7  UNL     1     -13.333 -13.161 -34.186  1.00  0.00    -0.228 OA
BRANCH  13  14
HETATM   14  S1  UNL     1     -12.147 -12.873 -35.308  1.00  0.00     0.272 S
HETATM   15  O8  UNL     1     -12.760 -12.515 -36.657  1.00  0.00    -0.198 OA
HETATM   16  O9  UNL     1     -11.231 -14.019 -35.569  1.00  0.00    -0.198 OA
BRANCH  14  17
HETATM   17  C11 UNL     1     -11.106 -11.513 -34.757  1.00  0.00     0.209 C
BRANCH  17  18
HETATM   18  C12 UNL     1     -11.341 -10.389 -35.719  1.00  0.00    -0.042 A
HETATM   19  C13 UNL     1     -10.568 -10.233 -36.862  1.00  0.00     0.008 A
HETATM   20  C14 UNL     1     -10.786  -9.199 -37.743  1.00  0.00     0.001 A
HETATM   21  C15 UNL     1     -11.798  -8.280 -37.501  1.00  0.00     0.000 A
HETATM   22  C16 UNL     1     -12.563  -8.434 -36.368  1.00  0.00     0.001 A
HETATM   23  C17 UNL     1     -12.331  -9.473 -35.499  1.00  0.00     0.008 A
ENDBRANCH  17  18
ENDBRANCH  14  17
ENDBRANCH  13  14
ENDBRANCH  12  13
BRANCH   1  24
HETATM   24  O1  UNL     1     -13.301 -15.655 -32.918  1.00  0.00    -0.371 OA
HETATM   25  C1  UNL     1     -13.519 -16.911 -32.522  1.00  0.00     0.203 C
ENDBRANCH   1  24
BRANCH   2  26
HETATM   26  O2  UNL     1     -15.454 -14.103 -30.740  1.00  0.00    -0.368 OA
ATOM     27  H2  UNL     1     -16.314 -13.718 -30.620  1.00  0.00     0.212 HD
ENDBRANCH   2  26
BRANCH   2  28
HETATM   28  C4  UNL     1     -16.079 -14.936 -32.798  1.00  0.00     0.225 C
BRANCH  28  29
HETATM   29  O3  UNL     1     -16.464 -14.392 -34.006  1.00  0.00    -0.396 OA
ATOM     30  H3  UNL     1     -16.673 -15.049 -34.661  1.00  0.00     0.209 HD
ENDBRANCH  28  29
ENDBRANCH   2  28
BRANCH   9  31
HETATM   31  O4  UNL     1     -12.853 -15.306 -30.075  1.00  0.00    -0.360 OA
ATOM     32  H4  UNL     1     -12.078 -15.850 -30.007  1.00  0.00     0.212 HD
ENDBRANCH   9  31
BRANCH  10  33
HETATM   33  C8  UNL     1     -10.289 -14.907 -31.066  1.00  0.00     0.148 C
HETATM   34  C9  UNL     1      -9.102 -14.686 -32.016  1.00  0.00     0.042 C
BRANCH  33  35
HETATM   35  O5  UNL     1     -10.511 -16.250 -31.020  1.00  0.00    -0.393 OA
ATOM     36  H5  UNL     1     -10.656 -16.711 -31.837  1.00  0.00     0.210 HD
ENDBRANCH  33  35
ENDBRANCH  10  33
TORSDOF 11
ENDMDL