MODEL 4
REMARK VINA RESULT: -6.028002926      3.111      6.665
REMARK  13 active torsions:
REMARK  status: ('A' for Active; 'I' for Inactive)
REMARK    1  A    between atoms: C2_2  and  C3_3
REMARK    2  A    between atoms: C4_5  and  C5_6
REMARK    3  A    between atoms: C5_6  and  N1_7
REMARK    4  A    between atoms: C6_12  and  O2_13
REMARK    5  A    between atoms: C7_15  and  O3_16
REMARK    6  A    between atoms: O3_16  and  C8_17
REMARK    7  A    between atoms: C9_18  and  N2_19
REMARK    8  A    between atoms: C11_24  and  N3_25
REMARK    9  A    between atoms: C12_29  and  O4_30
REMARK   10  A    between atoms: C13_32  and  O5_33
REMARK   11  A    between atoms: O5_33  and  C14_34
REMARK   12  A    between atoms: C17_37  and  N4_38
REMARK   13  A    between atoms: C18_42  and  N5_43
ROOT
HETATM    1  C8  UNL     1     -12.417 -14.543 -30.712  1.00  0.00     0.184 C
HETATM    2  C9  UNL     1     -13.290 -14.143 -29.532  1.00  0.00     0.217 C
HETATM    3  C10 UNL     1     -14.546 -14.985 -29.478  1.00  0.00     0.071 C
HETATM    4  C11 UNL     1     -14.993 -15.329 -30.856  1.00  0.00     0.216 C
HETATM    5  C12 UNL     1     -13.994 -16.193 -31.543  1.00  0.00     0.180 C
HETATM    6  C13 UNL     1     -12.571 -15.996 -31.045  1.00  0.00     0.186 C
ENDROOT
BRANCH   1   7
HETATM    7  O3  UNL     1     -11.125 -14.159 -30.368  1.00  0.00    -0.370 OA
BRANCH   7   8
HETATM    8  C7  UNL     1     -10.781 -12.899 -30.895  1.00  0.00     0.191 C
HETATM    9  C3  UNL     1      -9.535 -12.356 -30.225  1.00  0.00     0.083 C
HETATM   10  S1  UNL     1      -8.201 -12.322 -31.455  1.00  0.00    -0.128 SA
HETATM   11  C4  UNL     1      -8.888 -11.597 -32.968  1.00  0.00     0.211 C
HETATM   12  O1  UNL     1     -10.229 -11.877 -33.008  1.00  0.00    -0.342 OA
HETATM   13  C6  UNL     1     -10.616 -13.040 -32.375  1.00  0.00     0.288 C
BRANCH   9  14
HETATM   14  C2  UNL     1      -9.779 -10.954 -29.666  1.00  0.00     0.013 C
HETATM   15  C1  UNL     1     -10.578 -10.993 -28.405  1.00  0.00     0.006 C
ENDBRANCH   9  14
BRANCH  11  16
HETATM   16  C5  UNL     1      -8.128 -12.062 -34.194  1.00  0.00     0.272 C
BRANCH  16  17
HETATM   17  N1  UNL     1      -7.109 -13.004 -33.708  1.00  0.00    -0.076 N
ATOM     18  H13 UNL     1      -7.372 -13.479 -32.844  1.00  0.00     0.274 HD
ATOM     19  H12 UNL     1      -7.020 -13.840 -34.286  1.00  0.00     0.274 HD
ATOM     20  H11 UNL     1      -6.243 -12.470 -33.630  1.00  0.00     0.274 HD
ENDBRANCH  16  17
ENDBRANCH  11  16
BRANCH  13  21
HETATM   21  O2  UNL     1      -9.713 -14.076 -32.604  1.00  0.00    -0.369 OA
ATOM     22  H2  UNL     1     -10.033 -14.903 -32.265  1.00  0.00     0.212 HD
ENDBRANCH  13  21
ENDBRANCH   7   8
ENDBRANCH   1   7
BRANCH   2  23
HETATM   23  N2  UNL     1     -12.568 -14.178 -28.278  1.00  0.00    -0.072 N
ATOM     24  H23 UNL     1     -12.434 -15.136 -27.956  1.00  0.00     0.274 HD
ATOM     25  H22 UNL     1     -11.592 -13.912 -28.407  1.00  0.00     0.274 HD
ATOM     26  H21 UNL     1     -13.013 -13.606 -27.559  1.00  0.00     0.274 HD
ENDBRANCH   2  23
BRANCH   6  27
HETATM   27  O5  UNL     1     -11.652 -16.411 -31.969  1.00  0.00    -0.351 OA
BRANCH  27  28
HETATM   28  C14 UNL     1     -10.820 -17.429 -31.527  1.00  0.00     0.263 C
HETATM   29  C15 UNL     1     -11.324 -18.709 -32.171  1.00  0.00     0.063 C
HETATM   30  C16 UNL     1     -10.510 -19.094 -33.373  1.00  0.00     0.042 C
HETATM   31  C17 UNL     1      -9.080 -19.266 -32.924  1.00  0.00     0.239 C
HETATM   32  C18 UNL     1      -8.682 -18.260 -31.874  1.00  0.00     0.351 C
HETATM   33  O6  UNL     1      -9.506 -17.180 -31.780  1.00  0.00    -0.327 OA
BRANCH  31  34
HETATM   34  N4  UNL     1      -8.900 -20.636 -32.465  1.00  0.00    -0.071 N
ATOM     35  H43 UNL     1      -9.565 -20.894 -31.735  1.00  0.00     0.274 HD
ATOM     36  H42 UNL     1      -9.185 -21.323 -33.163  1.00  0.00     0.274 HD
ATOM     37  H41 UNL     1      -7.931 -20.755 -32.172  1.00  0.00     0.274 HD
ENDBRANCH  31  34
BRANCH  32  38
HETATM   38  N5  UNL     1      -8.448 -18.949 -30.620  1.00  0.00    -0.051 N
ATOM     39  H53 UNL     1      -8.993 -19.808 -30.543  1.00  0.00     0.277 HD
ATOM     40  H52 UNL     1      -7.518 -19.364 -30.574  1.00  0.00     0.277 HD
ATOM     41  H51 UNL     1      -8.625 -18.306 -29.848  1.00  0.00     0.277 HD
ENDBRANCH  32  38
ENDBRANCH  27  28
ENDBRANCH   6  27
BRANCH   5  42
HETATM   42  O4  UNL     1     -14.076 -15.901 -32.921  1.00  0.00    -0.391 OA
ATOM     43  H4  UNL     1     -13.685 -16.634 -33.383  1.00  0.00     0.210 HD
ENDBRANCH   5  42
BRANCH   4  44
HETATM   44  N3  UNL     1     -15.290 -14.119 -31.599  1.00  0.00    -0.072 N
ATOM     45  H33 UNL     1     -15.806 -14.314 -32.456  1.00  0.00     0.274 HD
ATOM     46  H32 UNL     1     -15.990 -13.544 -31.130  1.00  0.00     0.274 HD
ATOM     47  H31 UNL     1     -14.430 -13.601 -31.780  1.00  0.00     0.274 HD
ENDBRANCH   4  44
TORSDOF 13
ENDMDL