MODEL 3
REMARK VINA RESULT: -6.874325150      1.392      1.406
REMARK  11 active torsions:
REMARK  status: ('A' for Active; 'I' for Inactive)
REMARK    1  A    between atoms: O1_2  and  C2_3
REMARK    2  A    between atoms: C7_9  and  O3_10
REMARK    3  A    between atoms: O3_10  and  C8_11
REMARK    4  A    between atoms: C9_13  and  C10_14
REMARK    5  A    between atoms: C10_14  and  O5_15
REMARK    6  A    between atoms: C11_17  and  O6_19
REMARK    7  A    between atoms: N1_22  and  O7_24
REMARK    8  A    between atoms: C14_26  and  N2_27
REMARK    9  A    between atoms: C15_31  and  N3_32
REMARK       I    between atoms: N3_32  and  C16_34
REMARK   10  A    between atoms: C16_34  and  C17_36
REMARK   11  A    between atoms: C17_36  and  N4_38
ROOT
HETATM    1  O3  UNL     1     -12.174 -14.037 -32.237  1.00  0.00    -0.351 OA
ENDROOT
BRANCH   1   2
HETATM    2  C7  UNL     1     -10.920 -14.106 -32.850  1.00  0.00     0.158 C
HETATM    3  C5  UNL     1     -10.697 -12.825 -33.624  1.00  0.00     0.041 C
HETATM    4  C3  UNL     1     -11.098 -12.941 -35.071  1.00  0.00     0.127 C
HETATM    5  C6  UNL     1      -9.273 -12.342 -33.507  1.00  0.00     0.015 C
HETATM    6  O2  UNL     1     -10.527 -13.986 -35.726  1.00  0.00    -0.354 OA
HETATM    7  C4  UNL     1     -12.620 -12.908 -35.226  1.00  0.00     0.040 C
HETATM    8  C2  UNL     1     -10.161 -15.070 -35.017  1.00  0.00     0.284 C
HETATM    9  C15 UNL     1     -10.875 -15.310 -33.720  1.00  0.00     0.169 C
BRANCH   8  10
HETATM   10  O1  UNL     1      -8.774 -15.083 -34.883  1.00  0.00    -0.364 OA
HETATM   11  C1  UNL     1      -8.140 -14.971 -36.120  1.00  0.00     0.204 C
ENDBRANCH   8  10
BRANCH   9  12
HETATM   12  N3  UNL     1     -10.304 -16.410 -32.979  1.00  0.00    -0.347 N
HETATM   13  C16 UNL     1     -11.030 -17.443 -32.382  1.00  0.00     0.248 C
HETATM   14  O8  UNL     1     -12.295 -17.494 -32.442  1.00  0.00    -0.271 OA
ATOM     15  H3  UNL     1      -9.289 -16.434 -32.885  1.00  0.00     0.163 HD
BRANCH  13  16
HETATM   16  C17 UNL     1     -10.367 -18.541 -31.645  1.00  0.00     0.270 C
HETATM   17  C18 UNL     1      -9.940 -19.608 -32.628  1.00  0.00     0.050 C
BRANCH  16  18
HETATM   18  N4  UNL     1      -9.164 -18.094 -30.963  1.00  0.00    -0.067 N
ATOM     19  H43 UNL     1      -9.333 -17.233 -30.443  1.00  0.00     0.275 HD
ATOM     20  H42 UNL     1      -8.931 -18.711 -30.185  1.00  0.00     0.275 HD
ATOM     21  H41 UNL     1      -8.376 -17.992 -31.602  1.00  0.00     0.275 HD
ENDBRANCH  16  18
ENDBRANCH  13  16
ENDBRANCH   9  12
ENDBRANCH   1   2
BRANCH   1  22
HETATM   22  C8  UNL     1     -12.093 -13.876 -30.852  1.00  0.00     0.297 C
HETATM   23  O4  UNL     1     -12.480 -12.557 -30.614  1.00  0.00    -0.348 OA
HETATM   24  C9  UNL     1     -12.455 -12.164 -29.307  1.00  0.00     0.188 C
HETATM   25  C11 UNL     1     -12.587 -13.295 -28.310  1.00  0.00     0.124 C
HETATM   26  C12 UNL     1     -13.184 -12.801 -27.003  1.00  0.00     0.055 C
HETATM   27  C13 UNL     1     -13.484 -14.300 -28.932  1.00  0.00     0.081 C
HETATM   28  N1  UNL     1     -14.600 -14.642 -28.424  1.00  0.00    -0.272 N
HETATM   29  C14 UNL     1     -12.986 -14.896 -30.217  1.00  0.00     0.288 C
ATOM     30  H1  UNL     1     -14.874 -14.194 -27.549  1.00  0.00     0.193 HD
BRANCH  24  31
HETATM   31  C10 UNL     1     -11.331 -11.257 -28.914  1.00  0.00     0.199 C
BRANCH  31  32
HETATM   32  O5  UNL     1     -11.778  -9.929 -28.864  1.00  0.00    -0.398 OA
ATOM     33  H5  UNL     1     -12.727  -9.902 -28.914  1.00  0.00     0.209 HD
ENDBRANCH  31  32
ENDBRANCH  24  31
BRANCH  25  34
HETATM   34  O6  UNL     1     -11.369 -13.867 -28.037  1.00  0.00    -0.381 OA
ATOM     35  H6  UNL     1     -11.139 -14.521 -28.686  1.00  0.00     0.211 HD
ENDBRANCH  25  34
BRANCH  28  36
HETATM   36  O7  UNL     1     -15.455 -15.552 -28.951  1.00  0.00    -0.290 OA
ATOM     37  H7  UNL     1     -15.623 -16.417 -28.596  1.00  0.00     0.244 HD
ENDBRANCH  28  36
BRANCH  29  38
HETATM   38  N2  UNL     1     -14.116 -15.286 -31.023  1.00  0.00    -0.065 N
ATOM     39  H23 UNL     1     -13.814 -15.520 -31.969  1.00  0.00     0.275 HD
ATOM     40  H22 UNL     1     -14.472 -16.194 -30.722  1.00  0.00     0.275 HD
ATOM     41  H21 UNL     1     -14.871 -14.600 -31.052  1.00  0.00     0.275 HD
ENDBRANCH  29  38
ENDBRANCH   1  22
TORSDOF 11
ENDMDL