MODEL 1
REMARK VINA RESULT: -5.771242550      0.000      0.000
REMARK  12 active torsions:
REMARK  status: ('A' for Active; 'I' for Inactive)
REMARK    1  A    between atoms: C14_14  and  O1_15
REMARK    2  A    between atoms: C23_25  and  C24_26
REMARK    3  A    between atoms: C24_26  and  N1_27
REMARK    4  A    between atoms: N1_27  and  C25_28
REMARK    5  A    between atoms: N1_27  and  O3_41
REMARK    6  A    between atoms: C25_28  and  C26_29
REMARK    7  A    between atoms: C29_32  and  C30_33
REMARK    8  A    between atoms: C32_38  and  O2_39
REMARK    9  A    between atoms: O3_41  and  C33_42
REMARK   10  A    between atoms: C33_42  and  C34_43
REMARK   11  A    between atoms: C34_43  and  C35_44
REMARK   12  A    between atoms: C35_44  and  O4_45
ROOT
HETATM    1  C1  UNL     1       9.789  11.182  25.133  1.00  0.00     0.016 C
HETATM    2  C2  UNL     1       8.788  12.086  25.947  1.00  0.00    -0.035 C
HETATM    3  C3  UNL     1       8.797  11.664  27.330  1.00  0.00     0.016 C
HETATM    4  C4  UNL     1       8.915  13.524  25.512  1.00  0.00     0.021 C
HETATM    5  C5  UNL     1       9.806  14.238  26.345  1.00  0.00    -0.020 C
HETATM    6  C6  UNL     1       9.892  15.298  27.153  1.00  0.00     0.003 C
HETATM    7  C7  UNL     1       8.909  16.304  27.535  1.00  0.00    -0.057 C
HETATM    8  C8  UNL     1       9.558  17.464  27.417  1.00  0.00    -0.019 C
HETATM    9  C9  UNL     1       8.783  18.679  27.742  1.00  0.00     0.034 C
HETATM   10  C10 UNL     1       8.040  18.323  29.011  1.00  0.00     0.008 C
HETATM   11  C11 UNL     1       7.611  19.615  29.625  1.00  0.00    -0.017 C
HETATM   12  C12 UNL     1       7.130  19.575  31.031  1.00  0.00     0.018 C
HETATM   13  C13 UNL     1       8.843  20.534  29.632  1.00  0.00     0.018 C
HETATM   14  C14 UNL     1       6.606  20.297  28.749  1.00  0.00     0.126 C
HETATM   15  C15 UNL     1       5.486  19.394  28.384  1.00  0.00     0.033 C
HETATM   16  C16 UNL     1       5.878  18.084  27.802  1.00  0.00     0.012 C
HETATM   17  C17 UNL     1       6.940  17.356  28.627  1.00  0.00    -0.032 C
HETATM   18  C18 UNL     1       6.179  16.918  29.894  1.00  0.00     0.016 C
HETATM   19  C19 UNL     1       7.488  16.160  27.936  1.00  0.00     0.027 C
HETATM   20  C20 UNL     1       6.743  15.585  26.786  1.00  0.00     0.010 C
HETATM   21  C21 UNL     1       6.822  14.035  26.786  1.00  0.00     0.006 C
HETATM   22  C22 UNL     1       7.434  13.581  25.560  1.00  0.00    -0.000 C
HETATM   23  C23 UNL     1       7.472  12.069  25.150  1.00  0.00     0.014 C
ENDROOT
BRANCH  23  24
HETATM   24  C24 UNL     1       6.364  11.240  25.682  1.00  0.00     0.132 C
BRANCH  24  25
HETATM   25  N1  UNL     1       5.364  11.099  24.651  1.00  0.00    -0.172 NA
BRANCH  25  26
HETATM   26  C25 UNL     1       4.045  11.270  25.055  1.00  0.00     0.104 C
BRANCH  26  27
HETATM   27  C26 UNL     1       3.544  12.673  25.055  1.00  0.00     0.010 A
HETATM   28  C27 UNL     1       3.201  13.385  26.177  1.00  0.00     0.016 A
HETATM   29  C28 UNL     1       3.233  14.791  26.108  1.00  0.00     0.017 A
HETATM   30  C29 UNL     1       3.589  15.443  24.942  1.00  0.00     0.050 A
HETATM   31  C31 UNL     1       3.917  14.722  23.811  1.00  0.00     0.053 A
HETATM   32  C32 UNL     1       3.886  13.394  23.902  1.00  0.00     0.077 A
BRANCH  30  33
HETATM   33  C30 UNL     1       3.813  16.917  24.839  1.00  0.00     0.417 C
HETATM   34  F1  UNL     1       5.083  17.255  24.612  1.00  0.00    -0.166 F
HETATM   35  F2  UNL     1       3.169  17.546  25.866  1.00  0.00    -0.166 F
HETATM   36  F3  UNL     1       3.034  17.317  23.690  1.00  0.00    -0.166 F
ENDBRANCH  30  33
BRANCH  32  37
HETATM   37  O2  UNL     1       4.205  12.572  22.816  1.00  0.00    -0.360 OA
ATOM     38  H2  UNL     1       3.824  12.870  21.999  1.00  0.00     0.217 HD
ENDBRANCH  32  37
ENDBRANCH  26  27
ENDBRANCH  25  26
BRANCH  25  39
HETATM   39  O3  UNL     1       5.529   9.922  23.909  1.00  0.00    -0.299 OA
BRANCH  39  40
HETATM   40  C33 UNL     1       4.304   9.233  23.978  1.00  0.00     0.196 C
BRANCH  40  41
HETATM   41  C34 UNL     1       4.617   7.778  23.936  1.00  0.00     0.054 C
BRANCH  41  42
HETATM   42  C35 UNL     1       4.139   6.924  22.842  1.00  0.00     0.166 C
BRANCH  42  43
HETATM   43  O4  UNL     1       4.618   5.642  22.829  1.00  0.00    -0.401 OA
ATOM     44  H4  UNL     1       4.156   5.019  23.380  1.00  0.00     0.209 HD
ENDBRANCH  42  43
ENDBRANCH  41  42
ENDBRANCH  40  41
ENDBRANCH  39  40
ENDBRANCH  25  39
ENDBRANCH  24  25
ENDBRANCH  23  24
BRANCH  14  45
HETATM   45  O1  UNL     1       7.172  20.951  27.657  1.00  0.00    -0.395 OA
ATOM     46  H1  UNL     1       8.035  21.306  27.833  1.00  0.00     0.210 HD
ENDBRANCH  14  45
TORSDOF 12
ENDMDL