MODEL 5
REMARK VINA RESULT: -6.407996820      3.058      4.354
REMARK  14 active torsions:
REMARK  status: ('A' for Active; 'I' for Inactive)
REMARK    1  A    between atoms: C2_2  and  C3_3
REMARK    2  A    between atoms: C3_3  and  O1_4
REMARK    3  A    between atoms: C3_3  and  C4_6
REMARK    4  A    between atoms: C10_12  and  C11_13
REMARK    5  A    between atoms: C11_13  and  C12_15
REMARK    6  A    between atoms: C12_15  and  O3_16
REMARK    7  A    between atoms: O3_16  and  C13_17
REMARK    8  A    between atoms: C13_17  and  C14_19
REMARK    9  A    between atoms: C14_19  and  C15_20
REMARK   10  A    between atoms: C16_21  and  O5_22
REMARK   11  A    between atoms: C19_28  and  C20_29
REMARK   12  A    between atoms: C28_40  and  O6_41
REMARK   13  A    between atoms: O6_41  and  C29_42
REMARK   14  A    between atoms: C29_42  and  C30_44
ROOT
HETATM    1  C4  UNL     1       5.327  11.999  23.947  1.00  0.00     0.009 C
HETATM    2  C5  UNL     1       4.071  11.235  24.341  1.00  0.00     0.020 C
HETATM    3  C6  UNL     1       6.396  11.468  24.888  1.00  0.00     0.019 C
HETATM    4  C7  UNL     1       6.718  12.339  26.032  1.00  0.00    -0.005 C
HETATM    5  C8  UNL     1       7.192  11.639  27.268  1.00  0.00     0.006 C
HETATM    6  C9  UNL     1       7.667  12.851  28.041  1.00  0.00     0.013 C
HETATM    7  C10 UNL     1       8.408  13.733  26.977  1.00  0.00     0.066 C
HETATM    8  C24 UNL     1       7.909  13.188  25.691  1.00  0.00    -0.030 C
HETATM    9  C25 UNL     1       9.009  12.318  25.102  1.00  0.00     0.016 C
HETATM   10  C26 UNL     1       7.464  14.116  24.625  1.00  0.00     0.013 C
HETATM   11  C27 UNL     1       6.031  14.420  24.493  1.00  0.00     0.034 C
HETATM   12  C28 UNL     1       5.039  13.426  24.051  1.00  0.00     0.142 C
ENDROOT
BRANCH   7  13
HETATM   13  C11 UNL     1       8.194  15.128  27.286  1.00  0.00     0.155 C
HETATM   14  O2  UNL     1       7.064  15.409  27.760  1.00  0.00    -0.295 OA
BRANCH  13  15
HETATM   15  C12 UNL     1       9.052  16.284  27.141  1.00  0.00     0.257 C
BRANCH  15  16
HETATM   16  O3  UNL     1       8.615  17.243  26.146  1.00  0.00    -0.314 OA
BRANCH  16  17
HETATM   17  C13 UNL     1       9.536  18.300  26.059  1.00  0.00     0.263 C
HETATM   18  O4  UNL     1       9.858  18.934  27.108  1.00  0.00    -0.265 OA
BRANCH  17  19
HETATM   19  C14 UNL     1      10.209  18.766  24.825  1.00  0.00     0.155 C
BRANCH  19  20
HETATM   20  C15 UNL     1      11.471  17.980  24.610  1.00  0.00     0.014 A
HETATM   21  C16 UNL     1      12.736  18.406  24.910  1.00  0.00     0.148 A
HETATM   22  N1  UNL     1      13.577  17.377  24.559  1.00  0.00    -0.336 N
HETATM   23  C17 UNL     1      12.891  16.365  24.066  1.00  0.00     0.045 A
ATOM     24  H1  UNL     1      14.591  17.393  24.667  1.00  0.00     0.168 HD
HETATM   25  C18 UNL     1      13.292  15.135  23.572  1.00  0.00     0.046 A
HETATM   26  C23 UNL     1      11.535  16.725  24.082  1.00  0.00     0.002 A
HETATM   27  C19 UNL     1      12.335  14.276  23.089  1.00  0.00     0.050 A
HETATM   28  C21 UNL     1      10.987  14.585  23.087  1.00  0.00     0.017 A
HETATM   29  C22 UNL     1      10.632  15.812  23.590  1.00  0.00     0.015 A
BRANCH  21  30
HETATM   30  O5  UNL     1      13.176  19.616  25.459  1.00  0.00    -0.346 OA
ATOM     31  H5  UNL     1      13.175  19.918  26.359  1.00  0.00     0.219 HD
ENDBRANCH  21  30
BRANCH  27  32
HETATM   32  C20 UNL     1      12.760  12.952  22.554  1.00  0.00     0.417 C
HETATM   33  F1  UNL     1      14.108  12.724  22.686  1.00  0.00    -0.166 F
HETATM   34  F2  UNL     1      12.125  11.943  23.273  1.00  0.00    -0.166 F
HETATM   35  F3  UNL     1      12.482  12.908  21.211  1.00  0.00    -0.166 F
ENDBRANCH  27  32
ENDBRANCH  19  20
ENDBRANCH  17  19
ENDBRANCH  16  17
ENDBRANCH  15  16
ENDBRANCH  13  15
ENDBRANCH   7  13
BRANCH   1  36
HETATM   36  C3  UNL     1       5.701  11.643  22.516  1.00  0.00     0.128 C
BRANCH  36  37
HETATM   37  C2  UNL     1       5.338  10.299  22.027  1.00  0.00     0.028 C
HETATM   38  C1  UNL     1       5.707   9.911  20.658  1.00  0.00     0.007 C
ENDBRANCH  36  37
BRANCH  36  39
HETATM   39  O1  UNL     1       5.349  12.609  21.588  1.00  0.00    -0.395 OA
ATOM     40  H1  UNL     1       5.586  13.474  21.901  1.00  0.00     0.210 HD
ENDBRANCH  36  39
ENDBRANCH   1  36
BRANCH  12  41
HETATM   41  O6  UNL     1       3.885  13.688  24.876  1.00  0.00    -0.315 OA
BRANCH  41  42
HETATM   42  C29 UNL     1       2.864  14.503  24.552  1.00  0.00     0.267 C
HETATM   43  O7  UNL     1       2.064  14.131  23.646  1.00  0.00    -0.264 OA
BRANCH  42  44
HETATM   44  C30 UNL     1       2.575  15.833  25.167  1.00  0.00     0.037 C
HETATM   45  C31 UNL     1       3.219  16.964  24.383  1.00  0.00     0.025 C
HETATM   46  C32 UNL     1       3.223  15.844  26.528  1.00  0.00     0.025 C
HETATM   47  C33 UNL     1       1.086  16.090  25.301  1.00  0.00     0.025 C
ENDBRANCH  42  44
ENDBRANCH  41  42
ENDBRANCH  12  41
TORSDOF 14
ENDMDL