MODEL 5
REMARK VINA RESULT: -6.635818868      6.330      9.846
REMARK  13 active torsions:
REMARK  status: ('A' for Active; 'I' for Inactive)
REMARK    1  A    between atoms: C2_2  and  N1_4
REMARK    2  A    between atoms: C2_2  and  C28_50
REMARK       I    between atoms: N1_4  and  C4_5
REMARK    3  A    between atoms: N1_4  and  C5_14
REMARK       I    between atoms: C4_5  and  N2_7
REMARK    4  A    between atoms: N2_7  and  N3_9
REMARK    5  A    between atoms: N3_9  and  N4_11
REMARK    6  A    between atoms: C9_20  and  O2_21
REMARK    7  A    between atoms: O2_21  and  C10_22
REMARK    8  A    between atoms: C10_22  and  C11_23
REMARK    9  A    between atoms: C11_23  and  C12_24
REMARK   10  A    between atoms: C12_24  and  C13_25
REMARK   11  A    between atoms: C13_25  and  C14_26
REMARK   12  A    between atoms: C14_26  and  N6_27
REMARK   13  A    between atoms: C23_40  and  N9_41
ROOT
HETATM    1  C5  UNL     1       3.125  16.969  25.201  1.00  0.00     0.068 A
HETATM    2  C6  UNL     1       4.181  17.713  25.742  1.00  0.00     0.119 A
HETATM    3  N5  UNL     1       5.304  17.040  25.457  1.00  0.00    -0.363 N
ATOM      4  H5  UNL     1       6.244  17.336  25.722  1.00  0.00     0.165 HD
HETATM    5  C7  UNL     1       5.017  15.924  24.775  1.00  0.00     0.047 A
HETATM    6  C8  UNL     1       5.774  14.883  24.243  1.00  0.00     0.067 A
HETATM    7  C9  UNL     1       5.210  13.818  23.568  1.00  0.00     0.070 A
HETATM    8  C25 UNL     1       3.836  13.773  23.406  1.00  0.00     0.038 A
HETATM    9  C26 UNL     1       3.059  14.794  23.924  1.00  0.00     0.019 A
HETATM   10  C27 UNL     1       3.634  15.849  24.595  1.00  0.00     0.019 A
ENDROOT
BRANCH   7  11
HETATM   11  O2  UNL     1       5.962  12.782  23.039  1.00  0.00    -0.351 OA
BRANCH  11  12
HETATM   12  C10 UNL     1       5.392  11.945  22.056  1.00  0.00     0.175 C
BRANCH  12  13
HETATM   13  C11 UNL     1       5.804  10.530  22.384  1.00  0.00     0.027 C
BRANCH  13  14
HETATM   14  C12 UNL     1       4.601   9.669  22.563  1.00  0.00     0.004 C
BRANCH  14  15
HETATM   15  C13 UNL     1       3.876   9.869  23.864  1.00  0.00     0.020 C
BRANCH  15  16
HETATM   16  C14 UNL     1       4.911   9.787  24.974  1.00  0.00     0.130 C
BRANCH  16  17
HETATM   17  N6  UNL     1       4.725  10.941  25.823  1.00  0.00    -0.344 N
HETATM   18  C15 UNL     1       3.595  11.517  26.252  1.00  0.00     0.183 A
HETATM   19  N7  UNL     1       3.882  12.592  27.040  1.00  0.00    -0.349 N
HETATM   20  C16 UNL     1       5.214  12.695  27.110  1.00  0.00     0.084 A
ATOM     21  H7  UNL     1       3.205  13.204  27.494  1.00  0.00     0.167 HD
HETATM   22  C17 UNL     1       5.726  11.664  26.349  1.00  0.00     0.041 A
HETATM   23  C24 UNL     1       5.903  13.737  27.872  1.00  0.00     0.085 A
HETATM   24  C18 UNL     1       7.196  11.418  26.162  1.00  0.00     0.060 C
HETATM   25  C19 UNL     1       7.828  11.363  27.526  1.00  0.00     0.011 C
HETATM   26  C20 UNL     1       8.295  12.700  28.023  1.00  0.00     0.043 C
HETATM   27  C21 UNL     1       7.234  13.684  28.235  1.00  0.00    -0.013 A
HETATM   28  C22 UNL     1       7.713  14.758  28.951  1.00  0.00     0.115 A
HETATM   29  N8  UNL     1       6.881  15.770  29.246  1.00  0.00    -0.202 N
HETATM   30  C23 UNL     1       5.581  15.803  28.881  1.00  0.00     0.676 A
ATOM     31  H8  UNL     1       7.252  16.558  29.777  1.00  0.00     0.183 HD
HETATM   32  N10 UNL     1       5.099  14.761  28.181  1.00  0.00    -0.189 N
ATOM     33  H10 UNL     1       4.123  14.750  27.887  1.00  0.00     0.184 HD
BRANCH  30  34
HETATM   34  N9  UNL     1       4.852  16.817  29.207  1.00  0.00    -0.234 N
ATOM     35  H92 UNL     1       4.587  17.015  30.172  1.00  0.00     0.174 HD
ATOM     36  H91 UNL     1       4.520  17.454  28.482  1.00  0.00     0.174 HD
ENDBRANCH  30  34
ENDBRANCH  16  17
ENDBRANCH  15  16
ENDBRANCH  14  15
ENDBRANCH  13  14
ENDBRANCH  12  13
ENDBRANCH  11  12
ENDBRANCH   7  11
BRANCH   1  37
HETATM   37  N1  UNL     1       1.737  17.372  25.313  1.00  0.00    -0.278 N
HETATM   38  C4  UNL     1       1.236  18.192  24.286  1.00  0.00     0.343 C
HETATM   39  O1  UNL     1       2.011  18.453  23.296  1.00  0.00    -0.245 OA
HETATM   40  N2  UNL     1      -0.044  18.778  24.217  1.00  0.00    -0.237 N
ATOM     41  H2  UNL     1      -0.859  18.187  24.381  1.00  0.00     0.193 HD
BRANCH  37  42
HETATM   42  C2  UNL     1       0.926  16.918  26.404  1.00  0.00     0.132 C
HETATM   43  C1  UNL     1       1.780  16.009  27.319  1.00  0.00     0.048 C
HETATM   44  C3  UNL     1       0.321  18.046  27.187  1.00  0.00     0.048 C
BRANCH  42  45
HETATM   45  C28 UNL     1      -0.210  15.995  25.970  1.00  0.00     0.412 C
HETATM   46  F1  UNL     1      -1.444  16.545  26.006  1.00  0.00    -0.168 F
HETATM   47  F2  UNL     1       0.024  15.460  24.709  1.00  0.00    -0.168 F
HETATM   48  F3  UNL     1      -0.128  14.890  26.834  1.00  0.00    -0.168 F
ENDBRANCH  42  45
ENDBRANCH  37  42
BRANCH  40  49
HETATM   49  N3  UNL     1      -0.225  19.989  23.965  1.00  0.00    -0.245 N
ATOM     50  H3  UNL     1      -0.689  20.333  24.806  1.00  0.00     0.208 HD
BRANCH  49  51
HETATM   51  N4  UNL     1      -0.149  21.007  23.249  1.00  0.00    -0.331 N
ATOM     52  H42 UNL     1       0.353  21.638  23.873  1.00  0.00     0.178 HD
ATOM     53  H41 UNL     1      -0.313  21.541  22.396  1.00  0.00     0.178 HD
ENDBRANCH  49  51
ENDBRANCH  40  49
ENDBRANCH   1  37
TORSDOF 13
ENDMDL