MODEL 3
REMARK VINA RESULT: -6.448356722      3.669      6.346
REMARK  9 active torsions:
REMARK  status: ('A' for Active; 'I' for Inactive)
REMARK       I    between atoms: C1_2  and  N1_3
REMARK    1  A    between atoms: C1_2  and  C25_32
REMARK    2  A    between atoms: N1_3  and  C2_5
REMARK    3  A    between atoms: C5_8  and  N2_9
REMARK    4  A    between atoms: N2_9  and  C6_11
REMARK    5  A    between atoms: C12_17  and  N3_18
REMARK    6  A    between atoms: N3_18  and  C13_20
REMARK    7  A    between atoms: N4_35  and  S1_36
REMARK    8  A    between atoms: S1_36  and  N5_37
REMARK    9  A    between atoms: S1_36  and  C28_40
ROOT
HETATM    1  C2  UNL     1      12.095  11.292  25.070  1.00  0.00     0.037 A
HETATM    2  C3  UNL     1      12.788  11.826  26.109  1.00  0.00     0.032 A
HETATM    3  C4  UNL     1      14.187  11.810  26.117  1.00  0.00     0.034 A
HETATM    4  C5  UNL     1      14.868  11.253  25.074  1.00  0.00     0.055 A
HETATM    5  C12 UNL     1      14.212  10.693  23.987  1.00  0.00     0.061 A
HETATM    6  C24 UNL     1      12.841  10.730  24.017  1.00  0.00     0.061 A
ENDROOT
BRANCH   1   7
HETATM    7  N1  UNL     1      10.701  11.282  24.965  1.00  0.00    -0.327 N
HETATM    8  C1  UNL     1       9.891  12.407  25.103  1.00  0.00     0.226 C
HETATM    9  O1  UNL     1      10.302  13.558  25.328  1.00  0.00    -0.273 OA
ATOM     10  H1  UNL     1      10.246  10.390  24.774  1.00  0.00     0.169 HD
BRANCH   8  11
HETATM   11  C25 UNL     1       8.389  12.182  24.963  1.00  0.00     0.080 C
HETATM   12  C26 UNL     1       7.794  13.558  24.803  1.00  0.00     0.029 C
HETATM   13  C27 UNL     1       6.284  13.473  24.678  1.00  0.00     0.105 C
HETATM   14  N4  UNL     1       5.724  12.542  25.597  1.00  0.00    -0.239 NA
HETATM   15  C29 UNL     1       6.611  12.136  26.647  1.00  0.00     0.105 C
HETATM   16  C30 UNL     1       7.873  11.472  26.170  1.00  0.00     0.029 C
BRANCH  14  17
HETATM   17  S1  UNL     1       4.840  11.269  24.918  1.00  0.00     0.126 SA
BRANCH  17  18
HETATM   18  N5  UNL     1       3.184  11.359  25.335  1.00  0.00    -0.072 N
HETATM   19  O2  UNL     1       2.302  11.657  24.495  1.00  0.00    -0.525 OA
HETATM   20  O3  UNL     1       2.759  11.105  26.613  1.00  0.00    -0.525 OA
ENDBRANCH  17  18
BRANCH  17  21
HETATM   21  C28 UNL     1       5.081  10.988  23.208  1.00  0.00     0.471 C
HETATM   22  F1  UNL     1       4.649  12.018  22.395  1.00  0.00    -0.159 F
HETATM   23  F2  UNL     1       4.248   9.907  22.863  1.00  0.00    -0.159 F
HETATM   24  F3  UNL     1       6.355  10.574  22.881  1.00  0.00    -0.159 F
ENDBRANCH  17  21
ENDBRANCH  14  17
ENDBRANCH   8  11
ENDBRANCH   1   7
BRANCH   5  25
HETATM   25  N3  UNL     1      14.913  10.184  22.907  1.00  0.00    -0.354 N
ATOM     26  H3  UNL     1      14.989   9.168  22.876  1.00  0.00     0.166 HD
BRANCH  25  27
HETATM   27  C13 UNL     1      15.542  10.873  21.835  1.00  0.00     0.033 A
HETATM   28  C14 UNL     1      15.142  12.119  21.428  1.00  0.00     0.030 A
HETATM   29  C15 UNL     1      15.827  12.724  20.400  1.00  0.00     0.010 A
HETATM   30  C16 UNL     1      16.884  12.094  19.794  1.00  0.00    -0.052 A
HETATM   31  C17 UNL     1      17.319  10.840  20.171  1.00  0.00    -0.050 A
HETATM   32  C23 UNL     1      17.511  12.902  18.693  1.00  0.00     0.039 C
HETATM   33  C18 UNL     1      16.611  10.265  21.203  1.00  0.00     0.037 A
HETATM   34  C19 UNL     1      18.430   9.993  19.650  1.00  0.00     0.039 C
HETATM   35  C20 UNL     1      19.546  10.890  19.097  1.00  0.00     0.005 C
HETATM   36  C21 UNL     1      19.603  12.187  19.870  1.00  0.00     0.001 C
HETATM   37  C22 UNL     1      18.878  13.309  19.202  1.00  0.00     0.005 C
ENDBRANCH  25  27
ENDBRANCH   5  25
BRANCH   4  38
HETATM   38  N2  UNL     1      16.276  11.203  25.114  1.00  0.00    -0.383 N
ATOM     39  H2  UNL     1      16.769  10.319  24.990  1.00  0.00     0.160 HD
BRANCH  38  40
HETATM   40  C6  UNL     1      17.016  12.445  25.335  1.00  0.00     0.081 C
HETATM   41  C7  UNL     1      16.624  13.555  24.420  1.00  0.00     0.025 C
HETATM   42  C8  UNL     1      17.809  14.057  23.590  1.00  0.00     0.002 C
HETATM   43  C9  UNL     1      18.585  12.945  22.964  1.00  0.00     0.000 C
HETATM   44  C10 UNL     1      18.871  11.790  23.873  1.00  0.00     0.002 C
HETATM   45  C11 UNL     1      18.503  12.142  25.278  1.00  0.00     0.025 C
ENDBRANCH  38  40
ENDBRANCH   4  38
TORSDOF 9
ENDMDL