MODEL 5
REMARK VINA RESULT: -5.590477183      1.804      2.881
REMARK  12 active torsions:
REMARK  status: ('A' for Active; 'I' for Inactive)
REMARK    1  A    between atoms: C10_12  and  N2_13
REMARK    2  A    between atoms: N2_13  and  C11_15
REMARK    3  A    between atoms: C11_15  and  C12_16
REMARK    4  A    between atoms: C12_16  and  C13_17
REMARK    5  A    between atoms: C13_17  and  N3_18
REMARK       I    between atoms: N3_18  and  C14_20
REMARK    6  A    between atoms: C14_20  and  C15_22
REMARK    7  A    between atoms: C19_26  and  C20_27
REMARK    8  A    between atoms: C26_33  and  N4_34
REMARK    9  A    between atoms: N4_34  and  C27_35
REMARK   10  A    between atoms: C27_35  and  C28_36
REMARK   11  A    between atoms: C27_35  and  C32_43
REMARK   12  A    between atoms: C28_36  and  N5_37
ROOT
HETATM    1  C1  UNL     1      16.756  11.466  23.217  1.00  0.00     0.017 C
HETATM    2  C2  UNL     1      15.613  11.317  22.241  1.00  0.00    -0.025 C
HETATM    3  C3  UNL     1      16.260  11.001  20.884  1.00  0.00     0.017 C
HETATM    4  C4  UNL     1      14.855  12.591  22.065  1.00  0.00     0.015 C
HETATM    5  C5  UNL     1      14.621  13.319  23.401  1.00  0.00     0.047 C
HETATM    6  C6  UNL     1      13.379  12.705  23.956  1.00  0.00     0.034 A
HETATM    7  C7  UNL     1      13.064  11.397  24.055  1.00  0.00     0.152 A
HETATM    8  N1  UNL     1      11.912  11.031  24.582  1.00  0.00    -0.336 N
ATOM      9  H1  UNL     1      11.698  10.035  24.644  1.00  0.00     0.168 HD
HETATM   10  C8  UNL     1      11.001  11.919  25.045  1.00  0.00     0.050 A
HETATM   11  C9  UNL     1       9.813  11.457  25.584  1.00  0.00     0.060 A
HETATM   12  C10 UNL     1       8.866  12.329  26.062  1.00  0.00     0.037 A
HETATM   13  C19 UNL     1       9.122  13.660  25.992  1.00  0.00    -0.023 A
HETATM   14  C24 UNL     1      10.325  14.133  25.447  1.00  0.00     0.027 A
HETATM   15  C25 UNL     1      11.284  13.261  24.963  1.00  0.00     0.032 A
HETATM   16  C26 UNL     1      12.487  13.702  24.414  1.00  0.00     0.124 A
HETATM   17  O2  UNL     1      13.870  10.334  23.635  1.00  0.00    -0.335 OA
HETATM   18  C33 UNL     1      14.733  10.142  22.568  1.00  0.00     0.186 C
ENDROOT
BRANCH  12  19
HETATM   19  N2  UNL     1       7.658  11.857  26.641  1.00  0.00    -0.389 N
ATOM     20  H2  UNL     1       7.531  11.902  27.652  1.00  0.00     0.159 HD
BRANCH  19  21
HETATM   21  C11 UNL     1       6.604  11.312  25.808  1.00  0.00     0.121 C
BRANCH  21  22
HETATM   22  C12 UNL     1       5.251  11.892  26.047  1.00  0.00     0.039 C
BRANCH  22  23
HETATM   23  C13 UNL     1       4.265  11.569  24.920  1.00  0.00     0.124 C
BRANCH  23  24
HETATM   24  N3  UNL     1       4.535  10.300  24.289  1.00  0.00    -0.360 N
HETATM   25  C14 UNL     1       3.513   9.450  23.806  1.00  0.00     0.225 C
HETATM   26  O1  UNL     1       2.300   9.763  23.906  1.00  0.00    -0.273 OA
ATOM     27  H3  UNL     1       5.505  10.003  24.187  1.00  0.00     0.162 HD
BRANCH  25  28
HETATM   28  C15 UNL     1       3.807   8.143  23.156  1.00  0.00     0.030 C
HETATM   29  C16 UNL     1       4.363   8.312  21.765  1.00  0.00     0.024 C
HETATM   30  C17 UNL     1       2.572   7.286  23.044  1.00  0.00     0.024 C
HETATM   31  C18 UNL     1       4.810   7.413  24.014  1.00  0.00     0.024 C
ENDBRANCH  25  28
ENDBRANCH  23  24
ENDBRANCH  22  23
ENDBRANCH  21  22
ENDBRANCH  19  21
ENDBRANCH  12  19
BRANCH  13  32
HETATM   32  C20 UNL     1       8.216  14.723  26.454  1.00  0.00    -0.022 C
HETATM   33  C21 UNL     1       9.018  16.000  26.599  1.00  0.00     0.019 C
HETATM   34  C22 UNL     1       7.656  14.464  27.856  1.00  0.00     0.019 C
HETATM   35  C23 UNL     1       7.045  15.025  25.580  1.00  0.00     0.019 C
ENDBRANCH  13  32
BRANCH  16  36
HETATM   36  N4  UNL     1      12.758  14.884  24.332  1.00  0.00    -0.430 NA
BRANCH  36  37
HETATM   37  C27 UNL     1      12.890  16.158  23.946  1.00  0.00     0.289 C
BRANCH  37  38
HETATM   38  C28 UNL     1      13.490  17.085  25.055  1.00  0.00     0.177 C
BRANCH  38  39
HETATM   39  N5  UNL     1      14.576  17.861  24.512  1.00  0.00    -0.348 N
HETATM   40  C29 UNL     1      14.637  19.184  24.262  1.00  0.00     0.108 A
HETATM   41  C30 UNL     1      15.870  19.516  23.742  1.00  0.00     0.106 A
HETATM   42  N6  UNL     1      16.551  18.354  23.684  1.00  0.00    -0.361 N
HETATM   43  C31 UNL     1      15.764  17.365  24.151  1.00  0.00     0.182 A
ATOM     44  H6  UNL     1      17.506  18.242  23.344  1.00  0.00     0.166 HD
ENDBRANCH  38  39
ENDBRANCH  37  38
BRANCH  37  45
HETATM   45  C32 UNL     1      11.618  16.889  23.500  1.00  0.00     0.421 C
HETATM   46  F1  UNL     1      11.024  17.414  24.660  1.00  0.00    -0.168 F
HETATM   47  F2  UNL     1      11.885  17.958  22.684  1.00  0.00    -0.168 F
HETATM   48  F3  UNL     1      10.686  16.096  22.929  1.00  0.00    -0.168 F
ENDBRANCH  37  45
ENDBRANCH  36  37
ENDBRANCH  16  36
TORSDOF 12
ENDMDL