MODEL 4
REMARK VINA RESULT: -5.420912639      3.102      6.407
REMARK  9 active torsions:
REMARK  status: ('A' for Active; 'I' for Inactive)
REMARK    1  A    between atoms: C6_7  and  C7_8
REMARK    2  A    between atoms: C18_29  and  O2_30
REMARK    3  A    between atoms: O2_30  and  C19_31
REMARK    4  A    between atoms: C19_31  and  C20_32
REMARK    5  A    between atoms: C20_32  and  C21_33
REMARK    6  A    between atoms: C21_33  and  C22_34
REMARK    7  A    between atoms: C22_34  and  N5_35
REMARK    8  A    between atoms: C25_38  and  C26_39
REMARK    9  A    between atoms: C26_39  and  N6_40
ROOT
HETATM    1  N1  UNL     1      18.318   9.966  21.992  1.00  0.00    -0.102 NA
HETATM    2  C1  UNL     1      17.100  10.689  21.838  1.00  0.00     0.062 A
HETATM    3  C2  UNL     1      16.125  10.717  22.818  1.00  0.00     0.042 A
HETATM    4  C3  UNL     1      14.978  11.432  22.610  1.00  0.00     0.008 A
HETATM    5  C4  UNL     1      14.781  12.138  21.428  1.00  0.00     0.047 A
HETATM    6  C5  UNL     1      15.781  12.091  20.461  1.00  0.00     0.048 A
HETATM    7  C6  UNL     1      16.930  11.376  20.655  1.00  0.00     0.074 A
HETATM    8  N2  UNL     1      13.709  12.913  21.213  1.00  0.00    -0.322 N
ATOM      9  H2  UNL     1      13.609  13.413  20.330  1.00  0.00     0.169 HD
HETATM   10  C8  UNL     1      12.778  13.029  22.147  1.00  0.00     0.259 A
HETATM   11  O1  UNL     1      11.746  13.759  21.983  1.00  0.00    -0.267 OA
HETATM   12  C9  UNL     1      12.875  12.371  23.343  1.00  0.00     0.076 A
HETATM   13  C10 UNL     1      11.890  12.540  24.294  1.00  0.00     0.077 A
HETATM   14  N3  UNL     1      10.740  13.231  24.399  1.00  0.00    -0.353 N
ATOM     15  H3  UNL     1      10.352  13.829  23.670  1.00  0.00     0.166 HD
HETATM   16  C11 UNL     1      10.173  13.022  25.604  1.00  0.00     0.045 A
HETATM   17  C12 UNL     1       9.017  13.479  26.214  1.00  0.00     0.030 A
HETATM   18  C13 UNL     1       8.646  13.113  27.481  1.00  0.00     0.002 A
HETATM   19  C14 UNL     1       9.459  12.246  28.197  1.00  0.00     0.001 A
HETATM   20  C15 UNL     1      10.621  11.774  27.616  1.00  0.00     0.016 A
HETATM   21  C16 UNL     1      10.963  12.161  26.341  1.00  0.00     0.020 A
HETATM   22  C17 UNL     1      12.067  11.829  25.544  1.00  0.00     0.074 A
HETATM   23  N4  UNL     1      13.123  11.055  25.735  1.00  0.00    -0.334 N
ATOM     24  H4  UNL     1      13.219  10.564  26.623  1.00  0.00     0.168 HD
HETATM   25  C18 UNL     1      14.097  10.890  24.772  1.00  0.00     0.155 A
HETATM   26  C34 UNL     1      13.991  11.549  23.585  1.00  0.00     0.045 A
ENDROOT
BRANCH  25  27
HETATM   27  O2  UNL     1      15.115  10.021  25.091  1.00  0.00    -0.335 OA
BRANCH  27  28
HETATM   28  C19 UNL     1      15.855  10.213  26.340  1.00  0.00     0.177 C
BRANCH  28  29
HETATM   29  C20 UNL     1      17.012  11.127  26.217  1.00  0.00     0.028 C
BRANCH  29  30
HETATM   30  C21 UNL     1      16.663  12.473  26.883  1.00  0.00     0.021 C
BRANCH  30  31
HETATM   31  C22 UNL     1      16.966  13.607  25.926  1.00  0.00     0.117 C
BRANCH  31  32
HETATM   32  N5  UNL     1      15.855  13.952  25.104  1.00  0.00    -0.412 N
HETATM   33  C23 UNL     1      16.229  14.607  23.896  1.00  0.00     0.117 C
HETATM   34  C24 UNL     1      16.352  16.102  24.105  1.00  0.00     0.025 C
HETATM   35  C25 UNL     1      15.047  16.634  24.671  1.00  0.00     0.017 C
HETATM   36  C32 UNL     1      14.893  15.956  26.033  1.00  0.00     0.025 C
HETATM   37  C33 UNL     1      14.714  14.479  25.777  1.00  0.00     0.117 C
BRANCH  35  38
HETATM   38  C26 UNL     1      15.168  18.119  24.885  1.00  0.00     0.277 C
BRANCH  38  39
HETATM   39  N6  UNL     1      13.963  18.743  24.448  1.00  0.00     0.088 N
HETATM   40  C27 UNL     1      13.278  18.110  23.366  1.00  0.00     0.272 C
HETATM   41  C28 UNL     1      12.113  19.008  22.990  1.00  0.00     0.030 C
HETATM   42  C29 UNL     1      11.096  18.922  24.105  1.00  0.00     0.003 C
HETATM   43  C30 UNL     1      11.736  18.479  25.415  1.00  0.00     0.030 C
HETATM   44  C31 UNL     1      13.096  19.145  25.523  1.00  0.00     0.272 C
ENDBRANCH  38  39
ENDBRANCH  35  38
ENDBRANCH  31  32
ENDBRANCH  30  31
ENDBRANCH  29  30
ENDBRANCH  28  29
ENDBRANCH  27  28
ENDBRANCH  25  27
BRANCH   7  45
HETATM   45  C7  UNL     1      17.978  11.352  19.586  1.00  0.00     0.419 C
HETATM   46  F1  UNL     1      18.062  10.057  19.103  1.00  0.00    -0.166 F
HETATM   47  F2  UNL     1      19.206  11.681  20.097  1.00  0.00    -0.166 F
HETATM   48  F3  UNL     1      17.602  12.148  18.518  1.00  0.00    -0.166 F
ENDBRANCH   7  45
TORSDOF 9
ENDMDL