MODEL 5
REMARK VINA RESULT: -5.548152254      4.233      9.080
REMARK  10 active torsions:
REMARK  status: ('A' for Active; 'I' for Inactive)
REMARK    1  A    between atoms: C3_5  and  C4_6
REMARK    2  A    between atoms: C12_14  and  C13_15
REMARK    3  A    between atoms: C16_21  and  O1_22
REMARK    4  A    between atoms: O1_22  and  C17_23
REMARK    5  A    between atoms: C17_23  and  C18_24
REMARK    6  A    between atoms: C18_24  and  O2_25
REMARK    7  A    between atoms: N3_29  and  C21_30
REMARK    8  A    between atoms: C27_36  and  C28_37
REMARK       I    between atoms: C28_37  and  N4_39
REMARK    9  A    between atoms: C31_42  and  C32_43
REMARK   10  A    between atoms: C32_43  and  O4_44
ROOT
HETATM    1  C13 UNL     1       4.495  10.219  24.297  1.00  0.00     0.358 C
HETATM    2  F1  UNL     1       3.355   9.313  24.009  1.00  0.00    -0.184 F
HETATM    3  F2  UNL     1       5.000   9.234  25.086  1.00  0.00    -0.184 F
HETATM    4  C14 UNL     1       4.840  10.266  22.882  1.00  0.00     0.143 C
HETATM    5  N2  UNL     1       5.148  10.327  21.742  1.00  0.00    -0.190 NA
ENDROOT
BRANCH   1   6
HETATM    6  C12 UNL     1       3.759  11.321  24.849  1.00  0.00     0.044 A
HETATM    7  C11 UNL     1       4.413  12.394  25.452  1.00  0.00     0.017 A
HETATM    8  C5  UNL     1       5.722  12.670  25.699  1.00  0.00     0.009 A
HETATM    9  C20 UNL     1       3.617  13.442  25.962  1.00  0.00     0.050 A
HETATM   10  C4  UNL     1       5.677  13.945  26.381  1.00  0.00     0.073 A
HETATM   11  C6  UNL     1       6.940  11.950  25.587  1.00  0.00    -0.066 C
HETATM   12  N3  UNL     1       4.445  14.365  26.520  1.00  0.00    -0.339 N
HETATM   13  C7  UNL     1       7.599  11.043  24.730  1.00  0.00     0.035 C
HETATM   14  C10 UNL     1       7.492  11.571  27.018  1.00  0.00     0.035 C
HETATM   15  C8  UNL     1       9.090  11.187  25.239  1.00  0.00     0.005 C
HETATM   16  C9  UNL     1       8.949  11.511  26.687  1.00  0.00     0.005 C
HETATM   17  C19 UNL     1       2.250  13.433  25.881  1.00  0.00     0.067 A
HETATM   18  C16 UNL     1       1.581  12.404  25.300  1.00  0.00     0.071 A
HETATM   19  C15 UNL     1       2.365  11.385  24.805  1.00  0.00     0.052 A
BRANCH  10  20
HETATM   20  C3  UNL     1       6.886  14.728  26.681  1.00  0.00     0.061 A
HETATM   21  N1  UNL     1       7.657  14.705  27.787  1.00  0.00    -0.357 N
HETATM   22  C2  UNL     1       8.585  15.681  27.748  1.00  0.00     0.021 A
ATOM     23  H1  UNL     1       7.550  14.038  28.552  1.00  0.00     0.166 HD
HETATM   24  C1  UNL     1       9.610  15.946  28.809  1.00  0.00     0.069 C
HETATM   25  C27 UNL     1       8.433  16.379  26.580  1.00  0.00     0.056 A
HETATM   26  C26 UNL     1       7.387  15.785  25.933  1.00  0.00     0.051 A
BRANCH  25  27
HETATM   27  C28 UNL     1       9.226  17.548  26.156  1.00  0.00     0.255 C
HETATM   28  O3  UNL     1       8.983  18.686  26.716  1.00  0.00    -0.267 OA
HETATM   29  N4  UNL     1      10.225  17.528  25.190  1.00  0.00    -0.348 N
HETATM   30  C29 UNL     1      10.932  18.727  24.823  1.00  0.00     0.126 C
HETATM   31  C34 UNL     1      10.614  16.317  24.521  1.00  0.00     0.126 C
HETATM   32  C30 UNL     1      11.775  18.497  23.577  1.00  0.00     0.027 C
HETATM   33  C31 UNL     1      12.682  17.319  23.675  1.00  0.00     0.012 C
HETATM   34  C33 UNL     1      12.150  16.296  24.616  1.00  0.00     0.027 C
BRANCH  33  35
HETATM   35  C32 UNL     1      14.103  17.730  24.028  1.00  0.00     0.168 C
BRANCH  35  36
HETATM   36  O4  UNL     1      14.758  18.217  22.904  1.00  0.00    -0.400 OA
ATOM     37  H4  UNL     1      15.481  17.647  22.670  1.00  0.00     0.209 HD
ENDBRANCH  35  36
ENDBRANCH  33  35
ENDBRANCH  25  27
ENDBRANCH  10  20
BRANCH  12  38
HETATM   38  C21 UNL     1       4.057  15.564  27.118  1.00  0.00     0.090 C
HETATM   39  C22 UNL     1       3.605  16.688  26.167  1.00  0.00     0.026 C
HETATM   40  C23 UNL     1       3.251  17.779  27.184  1.00  0.00     0.002 C
HETATM   41  C24 UNL     1       3.311  17.143  28.559  1.00  0.00     0.002 C
HETATM   42  C25 UNL     1       3.027  15.660  28.140  1.00  0.00     0.026 C
ENDBRANCH  12  38
BRANCH  18  43
HETATM   43  O1  UNL     1       0.235  12.340  25.193  1.00  0.00    -0.349 OA
BRANCH  43  44
HETATM   44  C17 UNL     1      -0.682  11.344  25.080  1.00  0.00     0.201 C
BRANCH  44  45
HETATM   45  C18 UNL     1      -1.399  11.188  23.764  1.00  0.00     0.190 C
BRANCH  45  46
HETATM   46  O2  UNL     1      -0.659  10.281  22.963  1.00  0.00    -0.399 OA
ATOM     47  H2  UNL     1      -1.249   9.597  22.668  1.00  0.00     0.209 HD
ENDBRANCH  45  46
ENDBRANCH  44  45
ENDBRANCH  43  44
ENDBRANCH  18  43
ENDBRANCH   1   6
TORSDOF 10
ENDMDL