MODEL 1
REMARK VINA RESULT: -5.102083611      0.000      0.000
REMARK  10 active torsions:
REMARK  status: ('A' for Active; 'I' for Inactive)
REMARK    1  A    between atoms: C2_2  and  C3_3
REMARK    2  A    between atoms: C3_3  and  C4_4
REMARK       I    between atoms: C4_4  and  N1_6
REMARK    3  A    between atoms: C10_13  and  C11_14
REMARK    4  A    between atoms: C11_14  and  C12_15
REMARK    5  A    between atoms: C12_15  and  C13_16
REMARK       I    between atoms: C13_16  and  N2_18
REMARK    6  A    between atoms: N2_18  and  C14_20
REMARK    7  A    between atoms: C23_31  and  O3_32
REMARK    8  A    between atoms: N3_34  and  C24_35
REMARK    9  A    between atoms: C24_35  and  C25_36
REMARK   10  A    between atoms: C31_42  and  O4_43
ROOT
HETATM    1  C3  UNL     1      16.936  19.442  23.211  1.00  0.00     0.121 C
HETATM    2  S1  UNL     1      17.381  19.169  24.993  1.00  0.00    -0.134 SA
HETATM    3  C10 UNL     1      17.932  17.463  24.748  1.00  0.00     0.087 C
HETATM    4  C21 UNL     1      18.321  17.480  23.350  1.00  0.00     0.019 A
HETATM    5  C22 UNL     1      17.816  18.464  22.568  1.00  0.00     0.033 A
HETATM    6  C23 UNL     1      18.343  18.244  21.288  1.00  0.00     0.153 A
HETATM    7  N3  UNL     1      19.142  17.172  21.278  1.00  0.00    -0.303 N
HETATM    8  C31 UNL     1      19.140  16.695  22.528  1.00  0.00     0.152 A
ENDROOT
BRANCH   3   9
HETATM    9  C11 UNL     1      16.840  16.500  25.038  1.00  0.00     0.029 C
BRANCH   9  10
HETATM   10  C12 UNL     1      17.199  15.267  25.791  1.00  0.00     0.104 C
BRANCH  10  11
HETATM   11  C13 UNL     1      16.799  14.085  24.953  1.00  0.00     0.217 C
HETATM   12  O2  UNL     1      15.835  13.367  25.271  1.00  0.00    -0.274 OA
HETATM   13  N2  UNL     1      17.533  13.785  23.783  1.00  0.00    -0.356 N
ATOM     14  H2  UNL     1      18.321  14.383  23.533  1.00  0.00     0.162 HD
BRANCH  13  15
HETATM   15  C14 UNL     1      17.212  12.665  22.923  1.00  0.00     0.088 C
HETATM   16  C15 UNL     1      18.483  12.262  22.220  1.00  0.00     0.025 C
HETATM   17  C16 UNL     1      18.415  10.806  21.824  1.00  0.00     0.002 C
HETATM   18  C17 UNL     1      17.309  10.613  20.795  1.00  0.00     0.004 C
HETATM   19  C18 UNL     1      15.942  10.709  21.448  1.00  0.00     0.060 C
HETATM   20  C19 UNL     1      15.359  12.088  21.318  1.00  0.00     0.180 C
HETATM   21  F1  UNL     1      15.079  12.361  19.972  1.00  0.00    -0.226 F
HETATM   22 CL1  UNL     1      13.793  12.107  22.170  1.00  0.00    -0.083 Cl
HETATM   23  C20 UNL     1      16.210  13.168  21.905  1.00  0.00     0.085 C
ENDBRANCH  13  15
ENDBRANCH  10  11
ENDBRANCH   9  10
ENDBRANCH   3   9
BRANCH   1  24
HETATM   24  C2  UNL     1      17.325  20.890  22.986  1.00  0.00     0.031 C
HETATM   25  C1  UNL     1      18.674  21.286  23.449  1.00  0.00     0.007 C
ENDBRANCH   1  24
BRANCH   1  26
HETATM   26  C4  UNL     1      15.532  19.149  22.949  1.00  0.00     0.243 C
HETATM   27  O1  UNL     1      15.241  18.855  21.718  1.00  0.00    -0.271 OA
HETATM   28  N1  UNL     1      14.433  19.136  23.839  1.00  0.00    -0.350 N
HETATM   29  C5  UNL     1      13.125  18.796  23.265  1.00  0.00     0.126 C
HETATM   30  C9  UNL     1      14.598  19.447  25.221  1.00  0.00     0.126 C
HETATM   31  C6  UNL     1      12.219  18.131  24.272  1.00  0.00     0.020 C
HETATM   32  C7  UNL     1      12.138  19.128  25.439  1.00  0.00     0.003 C
HETATM   33  C8  UNL     1      13.471  19.005  26.125  1.00  0.00     0.020 C
ENDBRANCH   1  26
BRANCH   8  34
HETATM   34  O4  UNL     1      19.880  15.558  22.915  1.00  0.00    -0.345 OA
ATOM     35  H4  UNL     1      20.694  15.550  23.405  1.00  0.00     0.219 HD
ENDBRANCH   8  34
BRANCH   6  36
HETATM   36  O3  UNL     1      18.137  18.966  20.111  1.00  0.00    -0.345 OA
ATOM     37  H3  UNL     1      17.557  18.777  19.383  1.00  0.00     0.219 HD
ENDBRANCH   6  36
BRANCH   7  38
HETATM   38  C24 UNL     1      19.886  16.606  20.142  1.00  0.00     0.171 C
BRANCH  38  39
HETATM   39  C25 UNL     1      19.175  15.467  19.521  1.00  0.00    -0.040 A
HETATM   40  C26 UNL     1      19.815  14.238  19.355  1.00  0.00     0.009 A
HETATM   41  C27 UNL     1      19.177  13.157  18.776  1.00  0.00     0.001 A
HETATM   42  C28 UNL     1      17.874  13.249  18.336  1.00  0.00     0.000 A
HETATM   43  C29 UNL     1      17.240  14.465  18.501  1.00  0.00     0.001 A
HETATM   44  C30 UNL     1      17.873  15.546  19.077  1.00  0.00     0.009 A
ENDBRANCH  38  39
ENDBRANCH   7  38
TORSDOF 10
ENDMDL