MODEL 2
REMARK VINA RESULT: -7.119188781      1.300      1.784
REMARK  10 active torsions:
REMARK  status: ('A' for Active; 'I' for Inactive)
REMARK       I    between atoms: C1_2  and  N1_3
REMARK    1  A    between atoms: C1_2  and  O5_37
REMARK    2  A    between atoms: N1_3  and  C2_5
REMARK    3  A    between atoms: C4_7  and  C5_8
REMARK    4  A    between atoms: C9_16  and  C10_17
REMARK    5  A    between atoms: C13_20  and  N3_21
REMARK    6  A    between atoms: N3_21  and  C14_24
REMARK    7  A    between atoms: C14_24  and  C15_25
REMARK    8  A    between atoms: O5_37  and  C26_38
REMARK    9  A    between atoms: C26_38  and  C27_39
REMARK   10  A    between atoms: C32_44  and  C33_45
ROOT
HETATM    1  C2  UNL     1       4.169  14.837  24.284  1.00  0.00     0.122 C
HETATM    2  C3  UNL     1       2.920  15.605  24.370  1.00  0.00     0.046 C
HETATM    3  C4  UNL     1       3.108  17.087  24.315  1.00  0.00     0.095 C
HETATM    4  C6  UNL     1       4.005  17.560  25.451  1.00  0.00     0.073 C
HETATM    5  C7  UNL     1       5.253  16.738  25.456  1.00  0.00     0.018 A
HETATM    6  N2  UNL     1       6.392  17.247  26.017  1.00  0.00    -0.368 N
ATOM      7  H2  UNL     1       6.352  18.179  26.430  1.00  0.00     0.165 HD
HETATM    8  C8  UNL     1       7.554  16.589  26.052  1.00  0.00     0.095 A
HETATM    9  C9  UNL     1       7.654  15.329  25.505  1.00  0.00    -0.038 A
HETATM   10  C24 UNL     1       6.544  14.768  24.931  1.00  0.00     0.020 A
HETATM   11  C25 UNL     1       5.328  15.497  24.913  1.00  0.00    -0.012 A
ENDROOT
BRANCH   9  12
HETATM   12  C10 UNL     1       8.932  14.585  25.523  1.00  0.00     0.020 C
HETATM   13  C11 UNL     1       9.844  15.036  26.643  1.00  0.00     0.011 C
HETATM   14  C12 UNL     1      11.114  14.181  26.540  1.00  0.00     0.034 C
HETATM   15  C13 UNL     1      11.830  14.469  25.238  1.00  0.00     0.186 C
HETATM   16  C22 UNL     1      10.982  15.351  24.372  1.00  0.00     0.034 C
HETATM   17  C23 UNL     1       9.638  14.623  24.200  1.00  0.00     0.011 C
BRANCH  15  18
HETATM   18  N3  UNL     1      12.111  13.195  24.614  1.00  0.00    -0.068 N
ATOM     19  H32 UNL     1      11.978  12.435  25.281  1.00  0.00     0.277 HD
ATOM     20  H31 UNL     1      11.384  12.963  23.937  1.00  0.00     0.277 HD
BRANCH  18  21
HETATM   21  C14 UNL     1      13.406  13.104  24.006  1.00  0.00     0.276 C
BRANCH  21  22
HETATM   22  C15 UNL     1      13.362  12.175  22.809  1.00  0.00     0.213 C
HETATM   23  C16 UNL     1      14.368  12.251  21.837  1.00  0.00    -0.150 C
HETATM   24  C17 UNL     1      15.336  12.605  20.885  1.00  0.00     0.082 C
HETATM   25  C18 UNL     1      16.226  11.327  20.713  1.00  0.00     0.011 C
HETATM   26  C19 UNL     1      16.459  10.540  21.933  1.00  0.00     0.003 C
HETATM   27  C20 UNL     1      15.425   9.628  22.518  1.00  0.00     0.026 C
HETATM   28  C21 UNL     1      14.597  10.304  23.623  1.00  0.00     0.169 C
HETATM   29  O4  UNL     1      13.407  10.852  23.366  1.00  0.00    -0.373 OA
ENDBRANCH  21  22
ENDBRANCH  18  21
ENDBRANCH  15  18
ENDBRANCH   9  12
BRANCH   1  30
HETATM   30  N1  UNL     1       4.036  13.510  24.879  1.00  0.00    -0.328 N
HETATM   31  C1  UNL     1       4.167  12.333  24.118  1.00  0.00     0.361 C
HETATM   32  O1  UNL     1       4.405  12.336  22.893  1.00  0.00    -0.238 OA
ATOM     33  H1  UNL     1       3.842  13.434  25.878  1.00  0.00     0.165 HD
BRANCH  31  34
HETATM   34  O5  UNL     1       4.029  11.103  24.750  1.00  0.00    -0.299 OA
BRANCH  34  35
HETATM   35  C26 UNL     1       5.178  10.330  25.112  1.00  0.00     0.220 C
BRANCH  35  36
HETATM   36  C27 UNL     1       5.827  10.971  26.252  1.00  0.00    -0.019 A
HETATM   37  C28 UNL     1       5.092  11.226  27.390  1.00  0.00     0.010 A
HETATM   38  C29 UNL     1       5.612  11.820  28.522  1.00  0.00     0.001 A
HETATM   39  C30 UNL     1       6.940  12.182  28.517  1.00  0.00     0.001 A
HETATM   40  C31 UNL     1       7.684  11.934  27.389  1.00  0.00     0.017 A
HETATM   41  C32 UNL     1       7.160  11.341  26.266  1.00  0.00     0.056 A
BRANCH  41  42
HETATM   42  C33 UNL     1       7.970  11.081  25.058  1.00  0.00     0.418 C
HETATM   43  F1  UNL     1       8.012   9.764  24.701  1.00  0.00    -0.166 F
HETATM   44  F2  UNL     1       7.574  11.896  23.993  1.00  0.00    -0.166 F
HETATM   45  F3  UNL     1       9.279  11.467  25.346  1.00  0.00    -0.166 F
ENDBRANCH  41  42
ENDBRANCH  35  36
ENDBRANCH  34  35
ENDBRANCH  31  34
ENDBRANCH   1  30
BRANCH   3  46
HETATM   46  C5  UNL     1       1.803  17.759  24.454  1.00  0.00     0.177 C
HETATM   47  O2  UNL     1       0.910  17.578  23.588  1.00  0.00    -0.648 OA
HETATM   48  O3  UNL     1       1.573  18.583  25.533  1.00  0.00    -0.648 OA
ENDBRANCH   3  46
TORSDOF 10
ENDMDL