MODEL 1
REMARK VINA RESULT: -6.265760689      0.000      0.000
REMARK  14 active torsions:
REMARK  status: ('A' for Active; 'I' for Inactive)
REMARK    1  A    between atoms: C2_2  and  C4_4
REMARK    2  A    between atoms: C4_4  and  O2_6
REMARK    3  A    between atoms: O2_6  and  C5_7
REMARK    4  A    between atoms: C8_10  and  C9_11
REMARK    5  A    between atoms: C9_11  and  C11_13
REMARK    6  A    between atoms: C11_13  and  N1_15
REMARK    7  A    between atoms: N1_15  and  C13_17
REMARK    8  A    between atoms: C13_17  and  C14_18
REMARK    9  A    between atoms: C16_20  and  C17_21
REMARK   10  A    between atoms: C20_27  and  O3_28
REMARK   11  A    between atoms: C22_33  and  C24_35
REMARK   12  A    between atoms: C24_35  and  C25_36
REMARK   13  A    between atoms: C26_37  and  O6_38
REMARK   14  A    between atoms: C26_37  and  C27_40
ROOT
HETATM    1  C5  UNL     1      17.256  13.716  21.159  1.00  0.00     0.146 C
HETATM    2  C6  UNL     1      16.956  13.906  22.563  1.00  0.00     0.036 C
HETATM    3  C7  UNL     1      17.385  14.488  23.767  1.00  0.00     0.040 C
HETATM    4  C8  UNL     1      16.148  14.413  24.764  1.00  0.00     0.162 C
HETATM    5  O4  UNL     1      15.083  13.704  24.261  1.00  0.00    -0.310 OA
HETATM    6  C21 UNL     1      14.040  13.575  23.424  1.00  0.00     0.279 C
HETATM    7  O5  UNL     1      12.991  14.329  23.471  1.00  0.00    -0.263 OA
HETATM    8  C22 UNL     1      13.928  12.548  22.322  1.00  0.00     0.099 C
HETATM    9  C23 UNL     1      12.576  12.783  21.577  1.00  0.00     0.039 C
HETATM   10  C31 UNL     1      14.989  12.709  21.373  1.00  0.00    -0.156 C
HETATM   11  C32 UNL     1      16.135  12.752  20.572  1.00  0.00     0.079 C
HETATM   12  C33 UNL     1      16.715  11.399  20.235  1.00  0.00     0.025 C
ENDROOT
BRANCH   4  13
HETATM   13  C9  UNL     1      15.956  15.788  25.264  1.00  0.00    -0.033 C
HETATM   14  C10 UNL     1      14.839  15.990  26.276  1.00  0.00     0.048 C
BRANCH  13  15
HETATM   15  C11 UNL     1      17.059  16.722  25.369  1.00  0.00     0.005 C
HETATM   16  C12 UNL     1      17.401  17.112  26.842  1.00  0.00     0.068 C
BRANCH  15  17
HETATM   17  N1  UNL     1      17.191  17.903  24.599  1.00  0.00    -0.389 N
ATOM     18  H1  UNL     1      17.840  17.938  23.813  1.00  0.00     0.159 HD
BRANCH  17  19
HETATM   19  C13 UNL     1      16.403  19.045  24.939  1.00  0.00     0.161 C
BRANCH  19  20
HETATM   20  C14 UNL     1      15.329  19.319  23.970  1.00  0.00    -0.007 A
HETATM   21  C15 UNL     1      14.017  18.913  24.263  1.00  0.00     0.027 A
HETATM   22  C16 UNL     1      12.994  18.870  23.398  1.00  0.00     0.048 A
HETATM   23  C18 UNL     1      13.195  19.263  22.086  1.00  0.00     0.019 A
HETATM   24  C19 UNL     1      14.477  19.672  21.733  1.00  0.00     0.038 A
HETATM   25  C20 UNL     1      15.504  19.692  22.647  1.00  0.00     0.073 A
BRANCH  22  26
HETATM   26  C17 UNL     1      11.672  18.332  23.850  1.00  0.00     0.417 C
HETATM   27  F1  UNL     1      10.964  19.360  24.388  1.00  0.00    -0.166 F
HETATM   28  F2  UNL     1      11.029  17.642  22.875  1.00  0.00    -0.166 F
HETATM   29  F3  UNL     1      11.958  17.423  24.904  1.00  0.00    -0.166 F
ENDBRANCH  22  26
BRANCH  25  30
HETATM   30  O3  UNL     1      16.785  20.109  22.233  1.00  0.00    -0.360 OA
ATOM     31  H3  UNL     1      17.202  19.644  21.518  1.00  0.00     0.217 HD
ENDBRANCH  25  30
ENDBRANCH  19  20
ENDBRANCH  17  19
ENDBRANCH  15  17
ENDBRANCH  13  15
ENDBRANCH   4  13
BRANCH   1  32
HETATM   32  O2  UNL     1      17.369  14.807  20.329  1.00  0.00    -0.315 OA
BRANCH  32  33
HETATM   33  C4  UNL     1      17.678  14.937  19.029  1.00  0.00     0.262 C
HETATM   34  O1  UNL     1      16.907  15.636  18.306  1.00  0.00    -0.265 OA
BRANCH  33  35
HETATM   35  C2  UNL     1      18.908  14.250  18.519  1.00  0.00     0.077 C
HETATM   36  C1  UNL     1      20.112  14.728  19.287  1.00  0.00     0.020 C
HETATM   37  C3  UNL     1      19.035  14.689  17.070  1.00  0.00     0.020 C
ENDBRANCH  33  35
ENDBRANCH  32  33
ENDBRANCH   1  32
BRANCH   8  38
HETATM   38  C24 UNL     1      13.736  11.181  22.913  1.00  0.00     0.061 C
BRANCH  38  39
HETATM   39  C25 UNL     1      14.889  10.264  22.835  1.00  0.00     0.008 C
HETATM   40  C26 UNL     1      15.611  10.148  23.927  1.00  0.00     0.047 C
BRANCH  40  41
HETATM   41  O6  UNL     1      15.185  10.919  25.048  1.00  0.00    -0.364 OA
ATOM     42  H6  UNL     1      15.347  11.854  25.000  1.00  0.00     0.217 HD
ENDBRANCH  40  41
BRANCH  40  43
HETATM   43  C27 UNL     1      16.793   9.364  24.198  1.00  0.00    -0.003 C
HETATM   44  C28 UNL     1      18.071  10.218  23.992  1.00  0.00     0.021 C
HETATM   45  C29 UNL     1      16.824   9.010  25.673  1.00  0.00     0.021 C
HETATM   46  C30 UNL     1      17.016   8.134  23.373  1.00  0.00     0.021 C
ENDBRANCH  40  43
ENDBRANCH  38  39
ENDBRANCH   8  38
TORSDOF 14
ENDMDL