MODEL 1
REMARK VINA RESULT: -6.140835782      0.000      0.000
REMARK  10 active torsions:
REMARK  status: ('A' for Active; 'I' for Inactive)
REMARK    1  A    between atoms: C2_2  and  C3_3
REMARK    2  A    between atoms: C3_3  and  O1_4
REMARK    3  A    between atoms: O1_4  and  C4_5
REMARK    4  A    between atoms: C5_6  and  C6_7
REMARK    5  A    between atoms: C7_8  and  C8_9
REMARK    6  A    between atoms: C23_25  and  O2_26
REMARK    7  A    between atoms: C23_25  and  C24_28
REMARK    8  A    between atoms: C24_28  and  O4_30
REMARK    9  A    between atoms: C31_37  and  O5_38
REMARK   10  A    between atoms: C33_40  and  O6_41
ROOT
HETATM    1  C8  UNL     1       7.582  11.909  25.437  1.00  0.00     0.063 C
HETATM    2 CL1  UNL     1       8.376  11.378  23.943  1.00  0.00    -0.114 Cl
HETATM    3  C9  UNL     1       6.495  11.007  25.888  1.00  0.00     0.009 C
HETATM    4  C10 UNL     1       5.811  10.223  24.761  1.00  0.00     0.012 C
HETATM    5  C11 UNL     1       5.441  11.596  26.764  1.00  0.00     0.007 C
HETATM    6  C12 UNL     1       5.603  13.026  27.130  1.00  0.00     0.014 C
HETATM    7  C13 UNL     1       6.181  13.928  26.098  1.00  0.00    -0.015 C
HETATM    8  C14 UNL     1       7.033  14.965  26.869  1.00  0.00     0.020 C
HETATM    9  C15 UNL     1       5.057  14.779  25.564  1.00  0.00    -0.070 C
HETATM   10  C16 UNL     1       4.365  15.498  26.461  1.00  0.00    -0.022 C
HETATM   11  C17 UNL     1       3.263  16.367  26.095  1.00  0.00     0.040 C
HETATM   12  C18 UNL     1       2.448  15.970  24.898  1.00  0.00     0.004 C
HETATM   13  C19 UNL     1       2.185  17.218  24.025  1.00  0.00     0.019 C
HETATM   14  C20 UNL     1       3.108  14.904  24.108  1.00  0.00     0.006 C
HETATM   15  C21 UNL     1       2.543  13.606  24.603  1.00  0.00     0.010 C
HETATM   16  C22 UNL     1       1.562  13.972  25.707  1.00  0.00     0.050 C
HETATM   17  C23 UNL     1       1.125  15.385  25.321  1.00  0.00     0.153 C
HETATM   18  C26 UNL     1       4.639  14.898  24.183  1.00  0.00     0.020 C
HETATM   19  C27 UNL     1       5.092  13.736  23.393  1.00  0.00     0.010 C
HETATM   20  C28 UNL     1       6.460  13.256  23.684  1.00  0.00     0.009 C
HETATM   21  C29 UNL     1       6.989  13.310  25.044  1.00  0.00     0.026 C
ENDROOT
BRANCH   1  22
HETATM   22  C7  UNL     1       8.611  12.119  26.461  1.00  0.00     0.000 C
HETATM   23  C6  UNL     1       9.781  12.632  26.554  1.00  0.00     0.012 C
BRANCH  23  24
HETATM   24  C5  UNL     1      10.744  13.305  25.731  1.00  0.00     0.002 A
HETATM   25  C4  UNL     1      12.028  12.751  25.603  1.00  0.00     0.103 A
HETATM   26  C34 UNL     1      12.963  13.477  24.853  1.00  0.00     0.104 A
HETATM   27  C33 UNL     1      12.644  14.672  24.272  1.00  0.00     0.123 A
HETATM   28 CL2  UNL     1      14.576  12.815  24.657  1.00  0.00    -0.078 Cl
HETATM   29  C31 UNL     1      11.386  15.200  24.410  1.00  0.00     0.103 A
HETATM   30  C30 UNL     1      10.443  14.519  25.135  1.00  0.00     0.054 A
BRANCH  25  31
HETATM   31  O1  UNL     1      12.443  11.560  26.164  1.00  0.00    -0.348 OA
BRANCH  31  32
HETATM   32  C3  UNL     1      12.370  10.277  25.677  1.00  0.00     0.175 C
BRANCH  32  33
HETATM   33  C2  UNL     1      11.601   9.959  24.461  1.00  0.00     0.022 C
HETATM   34  C1  UNL     1      12.548   9.431  23.398  1.00  0.00     0.007 C
ENDBRANCH  32  33
ENDBRANCH  31  32
ENDBRANCH  25  31
BRANCH  27  35
HETATM   35  O6  UNL     1      13.585  15.391  23.531  1.00  0.00    -0.356 OA
ATOM     36  H6  UNL     1      14.497  15.338  23.790  1.00  0.00     0.218 HD
ENDBRANCH  27  35
BRANCH  29  37
HETATM   37  O5  UNL     1      11.018  16.410  23.838  1.00  0.00    -0.353 OA
HETATM   38  C32 UNL     1      10.615  17.516  24.629  1.00  0.00     0.210 C
ENDBRANCH  29  37
ENDBRANCH  23  24
ENDBRANCH   1  22
BRANCH  17  39
HETATM   39  O2  UNL     1       0.563  16.025  26.429  1.00  0.00    -0.379 OA
ATOM     40  H2  UNL     1      -0.344  15.787  26.584  1.00  0.00     0.211 HD
ENDBRANCH  17  39
BRANCH  17  41
HETATM   41  C24 UNL     1       0.186  15.251  24.214  1.00  0.00     0.294 C
HETATM   42  O3  UNL     1      -0.457  16.287  23.771  1.00  0.00    -0.262 OA
BRANCH  41  43
HETATM   43  O4  UNL     1      -0.130  14.093  23.531  1.00  0.00    -0.324 OA
HETATM   44  C25 UNL     1      -1.414  13.533  23.489  1.00  0.00     0.213 C
ENDBRANCH  41  43
ENDBRANCH  17  41
TORSDOF 10
ENDMDL