MODEL 3
REMARK VINA RESULT: -6.793996915      1.072      2.995
REMARK  11 active torsions:
REMARK  status: ('A' for Active; 'I' for Inactive)
REMARK    1  A    between atoms: C2_2  and  C3_3
REMARK    2  A    between atoms: C3_3  and  C4_4
REMARK    3  A    between atoms: C4_4  and  C5_5
REMARK    4  A    between atoms: C12_16  and  N2_17
REMARK    5  A    between atoms: N2_17  and  C13_19
REMARK    6  A    between atoms: C16_22  and  O1_23
REMARK    7  A    between atoms: O1_23  and  C17_24
REMARK    8  A    between atoms: C17_24  and  C18_25
REMARK    9  A    between atoms: C21_28  and  N3_29
REMARK   10  A    between atoms: C25_33  and  C26_34
REMARK   11  A    between atoms: C26_34  and  N4_35
ROOT
HETATM    1  C13 UNL     1       4.899  10.608  23.575  1.00  0.00     0.082 C
HETATM    2  C14 UNL     1       5.331   9.551  24.549  1.00  0.00     0.027 C
HETATM    3  C15 UNL     1       4.470   8.312  24.431  1.00  0.00     0.034 C
HETATM    4  C16 UNL     1       4.149   7.963  22.990  1.00  0.00     0.122 C
HETATM    5  C31 UNL     1       5.188   8.643  22.125  1.00  0.00     0.034 C
HETATM    6  C32 UNL     1       4.982  10.132  22.140  1.00  0.00     0.027 C
ENDROOT
BRANCH   4   7
HETATM    7  O1  UNL     1       2.875   8.383  22.747  1.00  0.00    -0.381 OA
BRANCH   7   8
HETATM    8  C17 UNL     1       1.892   7.654  23.383  1.00  0.00     0.214 C
BRANCH   8   9
HETATM    9  C18 UNL     1       1.897   6.265  22.794  1.00  0.00     0.009 A
HETATM   10  C19 UNL     1       0.913   5.654  22.060  1.00  0.00     0.033 A
HETATM   11  C20 UNL     1       1.146   4.400  21.635  1.00  0.00     0.025 A
HETATM   12  C21 UNL     1       0.297   3.580  20.876  1.00  0.00     0.044 A
HETATM   13  C30 UNL     1       2.344   3.839  21.968  1.00  0.00     0.086 A
HETATM   14  C28 UNL     1       0.709   2.313  20.532  1.00  0.00     0.047 A
HETATM   15  C29 UNL     1       1.925   1.765  20.880  1.00  0.00     0.091 A
HETATM   16  N5  UNL     1       2.724   2.573  21.608  1.00  0.00    -0.359 N
ATOM     17  H5  UNL     1       3.639   2.230  21.900  1.00  0.00     0.166 HD
HETATM   18  S1  UNL     1       3.113   5.071  22.865  1.00  0.00    -0.074 SA
BRANCH  12  19
HETATM   19  N3  UNL     1      -1.009   4.020  20.443  1.00  0.00    -0.380 N
HETATM   20  C22 UNL     1      -2.088   4.301  21.344  1.00  0.00     0.123 C
HETATM   21  C23 UNL     1      -2.916   5.458  20.908  1.00  0.00     0.020 C
HETATM   22  C24 UNL     1      -2.535   6.078  19.607  1.00  0.00     0.009 C
HETATM   23  C25 UNL     1      -2.363   4.964  18.596  1.00  0.00     0.029 C
HETATM   24  C27 UNL     1      -1.195   4.151  19.023  1.00  0.00     0.129 C
BRANCH  23  25
HETATM   25  C26 UNL     1      -2.142   5.471  17.197  1.00  0.00     0.235 C
BRANCH  25  26
HETATM   26  N4  UNL     1      -1.766   4.328  16.382  1.00  0.00    -0.079 N
ATOM     27  H43 UNL     1      -1.096   4.562  15.650  1.00  0.00     0.274 HD
ATOM     28  H42 UNL     1      -1.186   3.654  16.881  1.00  0.00     0.274 HD
ATOM     29  H41 UNL     1      -2.629   3.921  16.020  1.00  0.00     0.274 HD
ENDBRANCH  25  26
ENDBRANCH  23  25
ENDBRANCH  12  19
ENDBRANCH   8   9
ENDBRANCH   7   8
ENDBRANCH   4   7
BRANCH   1  30
HETATM   30  N2  UNL     1       5.541  11.861  23.819  1.00  0.00    -0.384 N
ATOM     31  H2  UNL     1       4.927  12.675  23.802  1.00  0.00     0.160 HD
BRANCH  30  32
HETATM   32  C12 UNL     1       6.900  12.138  24.080  1.00  0.00     0.043 A
HETATM   33  C11 UNL     1       7.815  11.110  23.758  1.00  0.00     0.047 A
HETATM   34  C10 UNL     1       9.122  11.163  24.191  1.00  0.00     0.090 A
HETATM   35  N1  UNL     1       9.561  12.176  24.920  1.00  0.00    -0.365 N
HETATM   36  C9  UNL     1       8.728  13.171  25.242  1.00  0.00     0.047 A
ATOM     37  H1  UNL     1      10.531  12.198  25.235  1.00  0.00     0.165 HD
HETATM   38  C8  UNL     1       9.220  14.247  25.973  1.00  0.00     0.056 A
HETATM   39  C33 UNL     1       7.384  13.180  24.824  1.00  0.00     0.037 A
HETATM   40  C7  UNL     1       8.433  15.315  26.295  1.00  0.00     0.059 A
HETATM   41  C6  UNL     1       7.131  15.289  25.866  1.00  0.00     0.075 A
HETATM   42 CL2  UNL     1       9.098  16.634  27.218  1.00  0.00    -0.082 Cl
HETATM   43  C5  UNL     1       6.577  14.239  25.126  1.00  0.00     0.056 A
HETATM   44 CL1  UNL     1       6.071  16.637  26.257  1.00  0.00    -0.081 Cl
BRANCH  43  45
HETATM   45  C4  UNL     1       5.265  14.423  24.574  1.00  0.00    -0.064 C
BRANCH  45  46
HETATM   46  C3  UNL     1       4.144  14.658  24.106  1.00  0.00    -0.101 C
BRANCH  46  47
HETATM   47  C2  UNL     1       2.820  14.958  23.561  1.00  0.00     0.090 C
HETATM   48  C1  UNL     1       2.511  16.400  23.901  1.00  0.00     0.018 C
ENDBRANCH  46  47
ENDBRANCH  45  46
ENDBRANCH  43  45
ENDBRANCH  30  32
ENDBRANCH   1  30
TORSDOF 11
ENDMDL