MODEL 2
REMARK VINA RESULT: -6.320747733      1.406      2.036
REMARK  9 active torsions:
REMARK  status: ('A' for Active; 'I' for Inactive)
REMARK    1  A    between atoms: N1_2  and  C2_4
REMARK    2  A    between atoms: C3_5  and  O1_6
REMARK    3  A    between atoms: O1_6  and  C4_7
REMARK    4  A    between atoms: C11_20  and  N4_21
REMARK    5  A    between atoms: C12_22  and  N5_23
REMARK    6  A    between atoms: C22_33  and  C24_35
REMARK    7  A    between atoms: C26_37  and  C27_38
REMARK    8  A    between atoms: C30_41  and  O2_42
REMARK    9  A    between atoms: C31_44  and  C32_45
ROOT
HETATM    1  N4  UNL     1       6.340  13.152  25.559  1.00  0.00    -0.310 N
HETATM    2  C12 UNL     1       5.363  14.249  25.792  1.00  0.00     0.071 C
HETATM    3  C18 UNL     1       5.762  14.981  26.973  1.00  0.00     0.009 C
HETATM    4  C19 UNL     1       6.062  16.430  26.976  1.00  0.00     0.022 C
HETATM    5  C20 UNL     1       4.781  14.789  28.166  1.00  0.00     0.022 C
HETATM    6  C21 UNL     1       7.077  14.293  27.381  1.00  0.00     0.052 C
HETATM    7  C22 UNL     1       7.541  13.411  26.269  1.00  0.00     0.064 C
HETATM    8  C23 UNL     1       7.996  12.104  27.027  1.00  0.00     0.044 C
ENDROOT
BRANCH   1   9
HETATM    9  C11 UNL     1       5.981  11.979  24.843  1.00  0.00     0.141 A
HETATM   10  C2  UNL     1       5.292  10.885  25.240  1.00  0.00     0.124 A
HETATM   11  C3  UNL     1       5.076   9.847  24.334  1.00  0.00     0.179 A
HETATM   12  N2  UNL     1       5.560   9.961  23.075  1.00  0.00    -0.331 N
HETATM   13  C10 UNL     1       6.237  11.027  22.667  1.00  0.00     0.184 A
ATOM     14  H2  UNL     1       5.399   9.200  22.416  1.00  0.00     0.168 HD
HETATM   15  N3  UNL     1       6.436  12.000  23.534  1.00  0.00    -0.336 N
ATOM     16  H3  UNL     1       6.957  12.819  23.222  1.00  0.00     0.168 HD
BRANCH  10  17
HETATM   17  N1  UNL     1       4.828  10.826  26.571  1.00  0.00    -0.388 N
HETATM   18  C1  UNL     1       3.586  11.422  26.967  1.00  0.00     0.146 C
ATOM     19  H1  UNL     1       5.392  10.344  27.271  1.00  0.00     0.159 HD
ENDBRANCH  10  17
BRANCH  11  20
HETATM   20  O1  UNL     1       4.401   8.751  24.710  1.00  0.00    -0.291 OA
BRANCH  20  21
HETATM   21  C4  UNL     1       3.678   7.816  24.064  1.00  0.00     0.083 A
HETATM   22  C5  UNL     1       2.318   8.140  23.822  1.00  0.00     0.079 A
HETATM   23  C6  UNL     1       1.461   7.298  23.178  1.00  0.00     0.121 A
HETATM   24  F1  UNL     1       0.154   7.655  22.968  1.00  0.00    -0.206 F
HETATM   25  C7  UNL     1       1.941   6.063  22.738  1.00  0.00     0.084 A
HETATM   26  C8  UNL     1       3.256   5.746  22.969  1.00  0.00     0.121 A
HETATM   27  F2  UNL     1       3.754   4.541  22.549  1.00  0.00    -0.206 F
HETATM   28  C9  UNL     1       4.132   6.598  23.624  1.00  0.00     0.079 A
ENDBRANCH  20  21
ENDBRANCH  11  20
ENDBRANCH   1   9
BRANCH   2  29
HETATM   29  N5  UNL     1       4.648  14.712  24.702  1.00  0.00    -0.272 NA
HETATM   30  C13 UNL     1       3.347  14.044  24.447  1.00  0.00     0.096 C
HETATM   31  C14 UNL     1       2.200  14.624  25.212  1.00  0.00     0.015 C
HETATM   32  C15 UNL     1       1.774  15.875  24.432  1.00  0.00     0.002 C
HETATM   33  C16 UNL     1       3.049  16.363  23.803  1.00  0.00     0.015 C
HETATM   34  C17 UNL     1       4.233  16.109  24.736  1.00  0.00     0.096 C
ENDBRANCH   2  29
BRANCH   7  35
HETATM   35  C24 UNL     1       8.776  13.811  25.609  1.00  0.00    -0.029 A
HETATM   36  C25 UNL     1       9.617  12.956  24.899  1.00  0.00     0.020 A
HETATM   37  C26 UNL     1      10.746  13.396  24.286  1.00  0.00    -0.020 A
HETATM   38  C30 UNL     1      11.092  14.739  24.349  1.00  0.00     0.079 A
HETATM   39  C31 UNL     1      10.317  15.629  25.017  1.00  0.00    -0.016 A
HETATM   40  C36 UNL     1       9.171  15.136  25.634  1.00  0.00     0.020 A
BRANCH  37  41
HETATM   41  C27 UNL     1      11.580  12.406  23.598  1.00  0.00     0.013 C
HETATM   42  C28 UNL     1      11.246  10.993  24.019  1.00  0.00     0.015 C
HETATM   43  C29 UNL     1      11.734  12.493  22.143  1.00  0.00     0.015 C
ENDBRANCH  37  41
BRANCH  38  44
HETATM   44  O2  UNL     1      12.233  15.093  23.712  1.00  0.00    -0.360 OA
ATOM     45  H2  UNL     1      12.347  16.021  23.542  1.00  0.00     0.217 HD
ENDBRANCH  38  44
BRANCH  39  46
HETATM   46  C32 UNL     1      10.668  17.062  25.110  1.00  0.00    -0.021 C
HETATM   47  C33 UNL     1      11.912  17.376  25.858  1.00  0.00     0.019 C
HETATM   48  C34 UNL     1       9.533  17.817  25.860  1.00  0.00     0.019 C
HETATM   49  C35 UNL     1      10.654  17.657  23.730  1.00  0.00     0.019 C
ENDBRANCH  39  46
ENDBRANCH   7  35
TORSDOF 9
ENDMDL