MODEL 5
REMARK VINA RESULT: -6.470359754      8.330     12.684
REMARK  9 active torsions:
REMARK  status: ('A' for Active; 'I' for Inactive)
REMARK    1  A    between atoms: C2_2  and  O1_3
REMARK    2  A    between atoms: O1_3  and  C3_4
REMARK    3  A    between atoms: C6_8  and  C7_9
REMARK    4  A    between atoms: C8_10  and  C9_11
REMARK    5  A    between atoms: C9_11  and  C10_15
REMARK    6  A    between atoms: C11_16  and  N2_17
REMARK    7  A    between atoms: N2_17  and  C12_19
REMARK    8  A    between atoms: C20_31  and  C21_32
REMARK    9  A    between atoms: C27_40  and  O2_41
ROOT
HETATM    1  C10 UNL     1       6.731  12.411  26.779  1.00  0.00     0.041 C
HETATM    2  C11 UNL     1       6.455  13.659  27.069  1.00  0.00     0.088 C
HETATM    3  S2  UNL     1       4.807  14.000  26.349  1.00  0.00    -0.073 SA
HETATM    4  C19 UNL     1       4.912  12.672  25.186  1.00  0.00     0.024 C
HETATM    5  C20 UNL     1       4.434  12.575  24.012  1.00  0.00     0.036 C
HETATM    6  C25 UNL     1       5.733  11.694  25.958  1.00  0.00     0.248 C
HETATM    7  F1  UNL     1       4.828  11.154  26.880  1.00  0.00    -0.238 F
ENDROOT
BRANCH   1   8
HETATM    8  C9  UNL     1       7.984  11.744  27.184  1.00  0.00     0.038 C
HETATM    9  N1  UNL     1       8.079  11.411  28.454  1.00  0.00    -0.399 N
ATOM     10  H12 UNL     1       8.945  10.950  28.733  1.00  0.00     0.156 HD
ATOM     11  H11 UNL     1       7.237  11.577  29.005  1.00  0.00     0.156 HD
BRANCH   8  12
HETATM   12  C8  UNL     1       9.176  11.510  26.405  1.00  0.00     0.030 C
HETATM   13  C7  UNL     1      10.427  11.547  26.685  1.00  0.00     0.014 C
BRANCH  13  14
HETATM   14  C6  UNL     1      11.466  11.246  25.656  1.00  0.00    -0.032 A
HETATM   15  C5  UNL     1      11.535  11.914  24.469  1.00  0.00     0.033 A
HETATM   16  C4  UNL     1      12.517  11.631  23.504  1.00  0.00     0.048 A
HETATM   17  C3  UNL     1      13.437  10.648  23.771  1.00  0.00     0.119 A
HETATM   18 BR1  UNL     1      12.554  12.594  21.877  1.00  0.00    -0.048 Br
HETATM   19  C27 UNL     1      13.373   9.964  24.975  1.00  0.00     0.103 A
HETATM   20  C26 UNL     1      12.404  10.259  25.904  1.00  0.00     0.051 A
BRANCH  17  21
HETATM   21  O1  UNL     1      14.433  10.312  22.869  1.00  0.00    -0.347 OA
BRANCH  21  22
HETATM   22  C2  UNL     1      15.614  11.101  22.865  1.00  0.00     0.171 C
HETATM   23  C1  UNL     1      16.236  11.156  21.490  1.00  0.00     0.034 C
ENDBRANCH  21  22
ENDBRANCH  17  21
BRANCH  19  24
HETATM   24  O2  UNL     1      14.319   8.978  25.211  1.00  0.00    -0.353 OA
HETATM   25  C28 UNL     1      14.368   8.351  26.472  1.00  0.00     0.210 C
ENDBRANCH  19  24
ENDBRANCH  13  14
ENDBRANCH   8  12
ENDBRANCH   1   8
BRANCH   2  26
HETATM   26  N2  UNL     1       7.142  14.671  27.765  1.00  0.00    -0.330 N
ATOM     27  H2  UNL     1       7.062  14.752  28.778  1.00  0.00     0.168 HD
BRANCH  26  28
HETATM   28  C12 UNL     1       7.892  15.513  27.080  1.00  0.00     0.150 A
HETATM   29  N3  UNL     1       8.795  15.219  26.150  1.00  0.00    -0.335 N
HETATM   30  C13 UNL     1       9.445  16.203  25.574  1.00  0.00     0.051 A
ATOM     31  H3  UNL     1       8.979  14.250  25.891  1.00  0.00     0.168 HD
HETATM   32  C14 UNL     1      10.434  16.083  24.569  1.00  0.00     0.031 A
HETATM   33  C18 UNL     1       9.150  17.478  25.970  1.00  0.00     0.035 A
HETATM   34  C15 UNL     1      11.035  17.197  24.053  1.00  0.00     0.002 A
HETATM   35  C16 UNL     1      10.747  18.484  24.444  1.00  0.00     0.002 A
HETATM   36  C17 UNL     1       9.784  18.609  25.420  1.00  0.00     0.021 A
HETATM   37  S1  UNL     1       7.949  17.215  27.156  1.00  0.00    -0.052 SA
ENDBRANCH  26  28
ENDBRANCH   2  26
BRANCH   5  38
HETATM   38  C21 UNL     1       4.570  11.415  23.095  1.00  0.00     0.005 A
HETATM   39  C22 UNL     1       5.239  11.321  21.909  1.00  0.00     0.019 A
HETATM   40  C23 UNL     1       5.203  10.153  21.258  1.00  0.00     0.008 A
HETATM   41  C24 UNL     1       4.493   9.132  21.834  1.00  0.00     0.050 A
HETATM   42  S3  UNL     1       3.900   9.840  23.268  1.00  0.00    -0.102 SA
ENDBRANCH   5  38
TORSDOF 9
ENDMDL