MODEL 5
REMARK VINA RESULT: -6.993866279      3.867      5.601
REMARK  10 active torsions:
REMARK  status: ('A' for Active; 'I' for Inactive)
REMARK    1  A    between atoms: C5_5  and  N1_6
REMARK    2  A    between atoms: N1_6  and  O1_7
REMARK    3  A    between atoms: O1_7  and  C6_8
REMARK    4  A    between atoms: C6_8  and  C7_9
REMARK    5  A    between atoms: C7_9  and  N2_10
REMARK    6  A    between atoms: C10_13  and  O2_14
REMARK    7  A    between atoms: C10_13  and  C11_16
REMARK    8  A    between atoms: C23_28  and  C24_29
REMARK    9  A    between atoms: C30_38  and  N3_39
REMARK   10  A    between atoms: N3_39  and  C31_41
ROOT
HETATM    1  C1  UNL     1       4.960  11.151  22.020  1.00  0.00     0.016 C
HETATM    2  C2  UNL     1       4.770  11.517  23.494  1.00  0.00    -0.036 C
HETATM    3  C3  UNL     1       3.467  11.090  24.051  1.00  0.00     0.017 C
HETATM    4  C4  UNL     1       3.198   9.665  23.578  1.00  0.00     0.072 C
HETATM    5  C5  UNL     1       4.361   8.761  23.780  1.00  0.00     0.095 C
HETATM    6  C19 UNL     1       5.750   9.289  23.935  1.00  0.00     0.076 C
HETATM    7  C20 UNL     1       5.797  10.702  24.312  1.00  0.00     0.000 C
HETATM    8  C21 UNL     1       7.065  11.434  23.986  1.00  0.00     0.006 C
HETATM    9  C22 UNL     1       6.612  12.851  24.391  1.00  0.00     0.006 C
HETATM   10  C23 UNL     1       5.235  12.898  23.711  1.00  0.00    -0.001 C
ENDROOT
BRANCH   5  11
HETATM   11  N1  UNL     1       4.174   7.562  23.823  1.00  0.00    -0.290 NA
BRANCH  11  12
HETATM   12  O1  UNL     1       3.986   6.338  23.847  1.00  0.00    -0.208 OA
BRANCH  12  13
HETATM   13  C6  UNL     1       3.432   5.474  22.870  1.00  0.00     0.248 C
BRANCH  13  14
HETATM   14  C7  UNL     1       2.046   5.868  22.544  1.00  0.00     0.302 C
BRANCH  14  15
HETATM   15  N2  UNL     1       1.547   5.415  21.241  1.00  0.00     0.090 N
HETATM   16  C8  UNL     1       0.096   5.381  21.435  1.00  0.00     0.276 C
HETATM   17  C9  UNL     1      -0.337   4.013  21.877  1.00  0.00     0.073 C
HETATM   18  C10 UNL     1      -0.232   3.140  20.623  1.00  0.00     0.088 C
HETATM   19  C17 UNL     1       1.219   3.140  20.251  1.00  0.00     0.073 C
HETATM   20  C18 UNL     1       2.081   4.088  21.022  1.00  0.00     0.276 C
BRANCH  18  21
HETATM   21  O2  UNL     1      -0.721   1.884  20.977  1.00  0.00    -0.385 OA
ATOM     22  H2  UNL     1      -0.786   1.385  20.171  1.00  0.00     0.211 HD
ENDBRANCH  18  21
BRANCH  18  23
HETATM   23  C11 UNL     1      -1.149   3.696  19.616  1.00  0.00    -0.024 A
HETATM   24  C12 UNL     1      -2.457   4.035  19.807  1.00  0.00     0.010 A
HETATM   25  C13 UNL     1      -3.190   4.545  18.752  1.00  0.00     0.001 A
HETATM   26  C14 UNL     1      -2.636   4.723  17.503  1.00  0.00     0.000 A
HETATM   27  C15 UNL     1      -1.321   4.389  17.286  1.00  0.00     0.001 A
HETATM   28  C16 UNL     1      -0.595   3.882  18.341  1.00  0.00     0.010 A
ENDBRANCH  18  23
ENDBRANCH  14  15
ENDBRANCH  13  14
ENDBRANCH  12  13
ENDBRANCH  11  12
ENDBRANCH   5  11
BRANCH  10  29
HETATM   29  C24 UNL     1       4.336  13.897  24.310  1.00  0.00     0.004 C
HETATM   30  C25 UNL     1       3.233  14.352  23.391  1.00  0.00     0.085 C
HETATM   31  S1  UNL     1       1.946  15.002  24.534  1.00  0.00    -0.126 SA
HETATM   32  C26 UNL     1       2.864  16.169  25.543  1.00  0.00     0.048 A
HETATM   33  C27 UNL     1       2.191  17.137  26.274  1.00  0.00     0.136 A
HETATM   34  C32 UNL     1       4.226  16.079  25.541  1.00  0.00    -0.008 A
HETATM   35  F1  UNL     1       0.860  17.129  26.203  1.00  0.00    -0.205 F
HETATM   36  C28 UNL     1       2.926  18.031  27.017  1.00  0.00     0.088 A
HETATM   37  C29 UNL     1       4.310  17.979  27.043  1.00  0.00     0.146 A
HETATM   38  F2  UNL     1       5.007  18.887  27.788  1.00  0.00    -0.204 F
HETATM   39  C30 UNL     1       4.954  17.010  26.312  1.00  0.00     0.079 A
HETATM   40  C33 UNL     1       5.078  15.102  24.843  1.00  0.00     0.048 C
BRANCH  39  41
HETATM   41  N3  UNL     1       6.371  17.004  26.358  1.00  0.00    -0.354 N
ATOM     42  H3  UNL     1       6.879  17.388  25.561  1.00  0.00     0.166 HD
BRANCH  41  43
HETATM   43  C31 UNL     1       7.048  16.545  27.339  1.00  0.00     0.170 C
HETATM   44  S2  UNL     1       7.686  16.669  28.837  1.00  0.00    -0.074 SA
ENDBRANCH  41  43
ENDBRANCH  39  41
ENDBRANCH  10  29
TORSDOF 10
ENDMDL