MODEL 3
REMARK VINA RESULT: -7.218631999      1.524      1.814
REMARK  8 active torsions:
REMARK  status: ('A' for Active; 'I' for Inactive)
REMARK    1  A    between atoms: S1_2  and  C2_3
REMARK    2  A    between atoms: C3_6  and  C4_7
REMARK    3  A    between atoms: C4_7  and  O1_8
REMARK    4  A    between atoms: C4_7  and  C5_10
REMARK    5  A    between atoms: C12_19  and  N2_20
REMARK    6  A    between atoms: N2_20  and  C13_22
REMARK    7  A    between atoms: N3_29  and  C19_30
REMARK    8  A    between atoms: C19_30  and  C20_31
ROOT
HETATM    1  C2  UNL     1       0.834   8.223  23.987  1.00  0.00     0.148 A
HETATM    2  N1  UNL     1       1.796   9.131  23.814  1.00  0.00    -0.334 N
ATOM      3  H1  UNL     1       1.673  10.142  23.876  1.00  0.00     0.168 HD
HETATM    4  C3  UNL     1       2.948   8.506  23.545  1.00  0.00     0.103 A
HETATM    5  C18 UNL     1       2.643   7.143  23.561  1.00  0.00     0.218 A
HETATM    6  F2  UNL     1       3.622   6.227  23.296  1.00  0.00    -0.184 F
HETATM    7  N3  UNL     1       1.351   6.969  23.830  1.00  0.00    -0.302 N
ENDROOT
BRANCH   4   8
HETATM    8  C4  UNL     1       4.238   9.159  23.298  1.00  0.00     0.232 C
BRANCH   8   9
HETATM    9  O1  UNL     1       5.218   8.545  24.059  1.00  0.00    -0.383 OA
ATOM     10  H1  UNL     1       6.045   8.994  23.929  1.00  0.00     0.211 HD
ENDBRANCH   8   9
BRANCH   8  11
HETATM   11  C5  UNL     1       4.183  10.636  23.587  1.00  0.00     0.115 A
HETATM   12  O2  UNL     1       3.081  11.321  23.779  1.00  0.00    -0.309 OA
HETATM   13  C6  UNL     1       3.324  12.592  24.011  1.00  0.00     0.088 A
HETATM   14  C7  UNL     1       2.514  13.686  24.266  1.00  0.00     0.041 A
HETATM   15  C11 UNL     1       4.687  12.795  23.979  1.00  0.00     0.030 A
HETATM   16  C8  UNL     1       3.055  14.930  24.478  1.00  0.00     0.045 A
HETATM   17  C9  UNL     1       4.415  15.151  24.448  1.00  0.00     0.117 A
HETATM   18  F1  UNL     1       4.931  16.386  24.661  1.00  0.00    -0.206 F
HETATM   19  C10 UNL     1       5.207  14.055  24.194  1.00  0.00     0.059 A
HETATM   20  C12 UNL     1       5.217  11.541  23.708  1.00  0.00     0.074 A
BRANCH  20  21
HETATM   21  N2  UNL     1       6.585  11.225  23.559  1.00  0.00    -0.382 N
ATOM     22  H2  UNL     1       6.958  11.283  22.611  1.00  0.00     0.160 HD
BRANCH  21  23
HETATM   23  C13 UNL     1       7.504  10.835  24.569  1.00  0.00     0.082 C
HETATM   24  C14 UNL     1       8.903  11.331  24.231  1.00  0.00     0.025 C
HETATM   25  C15 UNL     1       9.045  12.639  24.983  1.00  0.00     0.002 C
HETATM   26  C16 UNL     1       8.000  12.648  26.077  1.00  0.00     0.002 C
HETATM   27  C17 UNL     1       7.225  11.351  25.954  1.00  0.00     0.025 C
ENDBRANCH  21  23
ENDBRANCH  20  21
ENDBRANCH   8  11
ENDBRANCH   4   8
BRANCH   1  28
HETATM   28  S1  UNL     1      -0.884   8.637  24.365  1.00  0.00    -0.098 SA
HETATM   29  C1  UNL     1      -1.829   8.883  22.837  1.00  0.00     0.099 C
ENDBRANCH   1  28
BRANCH   7  30
HETATM   30  C19 UNL     1       0.603   5.744  23.909  1.00  0.00     0.139 C
BRANCH  30  31
HETATM   31  C20 UNL     1       0.369   5.027  22.613  1.00  0.00     0.013 C
HETATM   32  C21 UNL     1      -0.206   5.809  21.518  1.00  0.00     0.024 C
HETATM   33  C22 UNL     1      -1.127   5.135  20.587  1.00  0.00     0.026 C
HETATM   34  C23 UNL     1      -2.297   6.030  20.146  1.00  0.00     0.023 C
HETATM   35  C29 UNL     1      -1.724   3.837  20.952  1.00  0.00     0.003 C
HETATM   36  C34 UNL     1      -0.559   4.820  19.243  1.00  0.00     0.144 C
HETATM   37  C24 UNL     1      -2.740   5.426  18.806  1.00  0.00    -0.002 C
HETATM   38  C25 UNL     1      -4.182   5.008  18.841  1.00  0.00     0.011 C
HETATM   39  C26 UNL     1      -1.799   4.255  18.610  1.00  0.00     0.021 C
HETATM   40  C27 UNL     1      -1.653   3.780  17.236  1.00  0.00     0.024 C
HETATM   41  C28 UNL     1      -2.144   3.179  19.628  1.00  0.00     0.023 C
HETATM   42  C30 UNL     1      -0.694   2.984  21.654  1.00  0.00     0.015 C
HETATM   43  C31 UNL     1      -0.347   3.735  22.926  1.00  0.00    -0.042 C
HETATM   44  C32 UNL     1       0.540   2.797  23.736  1.00  0.00     0.015 C
HETATM   45  C33 UNL     1      -1.624   3.938  23.701  1.00  0.00     0.015 C
HETATM   46  O3  UNL     1       0.529   4.954  18.772  1.00  0.00    -0.296 OA
ENDBRANCH  30  31
ENDBRANCH   7  30
TORSDOF 8
ENDMDL