MODEL 1
REMARK VINA RESULT: -6.530425366      0.000      0.000
REMARK  9 active torsions:
REMARK  status: ('A' for Active; 'I' for Inactive)
REMARK    1  A    between atoms: C8_10  and  N1_11
REMARK       I    between atoms: N1_11  and  C9_13
REMARK    2  A    between atoms: C9_13  and  C10_15
REMARK    3  A    between atoms: C10_15  and  S1_16
REMARK    4  A    between atoms: S1_16  and  C11_17
REMARK    5  A    between atoms: C13_21  and  N3_22
REMARK    6  A    between atoms: N3_22  and  C14_24
REMARK    7  A    between atoms: C18_28  and  C19_29
REMARK       I    between atoms: N4_32  and  C22_33
REMARK    8  A    between atoms: C22_33  and  O3_35
REMARK    9  A    between atoms: O3_35  and  C23_36
ROOT
HETATM    1  C11 UNL     1       1.758   3.844  22.378  1.00  0.00     0.113 A
HETATM    2  N2  UNL     1       1.106   4.966  22.601  1.00  0.00    -0.342 N
ATOM      3  H2  UNL     1       0.100   5.010  22.437  1.00  0.00     0.167 HD
HETATM    4  C12 UNL     1       1.740   6.025  23.034  1.00  0.00     0.077 A
HETATM    5  C13 UNL     1       1.162   7.288  23.311  1.00  0.00     0.057 A
HETATM    6  C17 UNL     1       1.962   8.285  23.752  1.00  0.00     0.039 A
HETATM    7  C18 UNL     1       3.327   8.197  23.967  1.00  0.00    -0.050 A
HETATM    8  C29 UNL     1       3.881   6.964  23.694  1.00  0.00     0.029 A
HETATM    9  C30 UNL     1       3.089   5.901  23.234  1.00  0.00     0.037 A
HETATM   10  S2  UNL     1       3.363   4.274  22.791  1.00  0.00    -0.063 SA
ENDROOT
BRANCH   1  11
HETATM   11  S1  UNL     1       1.120   2.261  21.785  1.00  0.00    -0.096 SA
BRANCH  11  12
HETATM   12  C10 UNL     1       0.834   2.402  20.021  1.00  0.00     0.184 C
BRANCH  12  13
HETATM   13  C9  UNL     1       0.062   3.609  19.657  1.00  0.00     0.231 C
HETATM   14  N1  UNL     1      -1.343   3.549  19.577  1.00  0.00    -0.325 N
ATOM     15  H1  UNL     1      -1.797   2.658  19.777  1.00  0.00     0.169 HD
HETATM   16  O1  UNL     1       0.645   4.684  19.418  1.00  0.00    -0.272 OA
BRANCH  14  17
HETATM   17  C8  UNL     1      -2.167   4.656  19.235  1.00  0.00     0.051 A
HETATM   18  C2  UNL     1      -2.737   5.463  20.172  1.00  0.00     0.004 A
HETATM   19  C1  UNL     1      -2.469   5.145  21.621  1.00  0.00     0.054 C
HETATM   20  C3  UNL     1      -3.521   6.516  19.805  1.00  0.00     0.126 A
HETATM   21  F1  UNL     1      -4.056   7.277  20.814  1.00  0.00    -0.205 F
HETATM   22  C4  UNL     1      -3.758   6.796  18.490  1.00  0.00     0.067 A
HETATM   23  C5  UNL     1      -3.180   5.977  17.540  1.00  0.00     0.045 A
HETATM   24 CL1  UNL     1      -3.493   6.347  15.837  1.00  0.00    -0.084 Cl
HETATM   25  C6  UNL     1      -2.399   4.928  17.904  1.00  0.00    -0.013 A
HETATM   26  C7  UNL     1      -1.803   4.086  16.838  1.00  0.00     0.052 C
ENDBRANCH  14  17
ENDBRANCH  12  13
ENDBRANCH  11  12
ENDBRANCH   1  11
BRANCH   5  27
HETATM   27  N3  UNL     1      -0.222   7.501  23.132  1.00  0.00    -0.384 N
ATOM     28  H3  UNL     1      -0.579   7.355  22.188  1.00  0.00     0.160 HD
BRANCH  27  29
HETATM   29  C14 UNL     1      -1.182   7.898  24.117  1.00  0.00     0.073 C
HETATM   30  C15 UNL     1      -2.446   8.498  23.570  1.00  0.00     0.031 C
HETATM   31  C16 UNL     1      -1.520   6.715  25.004  1.00  0.00     0.031 C
ENDBRANCH  27  29
ENDBRANCH   5  27
BRANCH   7  32
HETATM   32  C19 UNL     1       4.195   9.269  24.446  1.00  0.00     0.022 C
HETATM   33  C20 UNL     1       5.481   9.247  23.659  1.00  0.00     0.029 C
HETATM   34  C21 UNL     1       6.252  10.505  23.661  1.00  0.00     0.129 C
HETATM   35  N4  UNL     1       5.791  11.539  24.555  1.00  0.00    -0.328 N
HETATM   36  C22 UNL     1       6.683  12.623  24.758  1.00  0.00     0.363 C
HETATM   37  C27 UNL     1       4.530  11.533  25.224  1.00  0.00     0.129 C
HETATM   38  O2  UNL     1       6.335  13.551  25.525  1.00  0.00    -0.238 OA
HETATM   39  C28 UNL     1       3.584  10.636  24.409  1.00  0.00     0.029 C
BRANCH  36  40
HETATM   40  O3  UNL     1       7.929  12.725  24.157  1.00  0.00    -0.294 OA
BRANCH  40  41
HETATM   41  C23 UNL     1       9.092  12.296  24.838  1.00  0.00     0.061 C
HETATM   42  C24 UNL     1       8.770  11.586  26.136  1.00  0.00     0.046 C
HETATM   43  C25 UNL     1       9.900  13.530  25.211  1.00  0.00     0.046 C
HETATM   44  C26 UNL     1       9.925  11.367  23.997  1.00  0.00     0.046 C
ENDBRANCH  40  41
ENDBRANCH  36  40
ENDBRANCH   7  32
TORSDOF 9
ENDMDL