MODEL 3
REMARK VINA RESULT: -6.257665387      3.868     11.683
REMARK  10 active torsions:
REMARK  status: ('A' for Active; 'I' for Inactive)
REMARK    1  A    between atoms: C2_2  and  O1_5
REMARK    2  A    between atoms: O1_5  and  C5_6
REMARK    3  A    between atoms: C5_6  and  C6_8
REMARK    4  A    between atoms: C6_8  and  C7_9
REMARK    5  A    between atoms: C7_9  and  C8_10
REMARK    6  A    between atoms: C8_10  and  C9_11
REMARK    7  A    between atoms: N1_14  and  C12_15
REMARK    8  A    between atoms: C17_21  and  N2_22
REMARK       I    between atoms: N2_22  and  C18_24
REMARK       I    between atoms: C18_24  and  N3_26
REMARK    9  A    between atoms: N3_26  and  C19_28
REMARK   10  A    between atoms: C26_37  and  C27_38
ROOT
HETATM    1  C19 UNL     1      11.833  11.196  23.343  1.00  0.00     0.102 A
HETATM    2  S1  UNL     1      12.057  12.453  22.205  1.00  0.00    -0.045 SA
HETATM    3  C20 UNL     1      13.747  12.366  22.027  1.00  0.00     0.120 A
HETATM    4  C21 UNL     1      14.098  11.351  22.867  1.00  0.00     0.006 A
HETATM    5  C22 UNL     1      13.102  10.740  23.554  1.00  0.00     0.088 A
HETATM    6  C23 UNL     1      13.353   9.631  24.493  1.00  0.00     0.103 C
HETATM    7  N4  UNL     1      13.537   8.756  25.245  1.00  0.00    -0.191 NA
HETATM    8  C24 UNL     1      15.603  11.086  22.872  1.00  0.00     0.046 C
HETATM    9  C25 UNL     1      16.066  11.050  21.442  1.00  0.00     0.038 C
HETATM   10  C26 UNL     1      15.828  12.317  20.701  1.00  0.00     0.137 C
HETATM   11  O4  UNL     1      14.757  13.023  21.298  1.00  0.00    -0.337 OA
ENDROOT
BRANCH   1  12
HETATM   12  N3  UNL     1      10.610  10.726  23.941  1.00  0.00    -0.301 N
HETATM   13  C18 UNL     1      10.023  11.521  24.997  1.00  0.00     0.325 C
HETATM   14  N2  UNL     1       8.838  11.053  25.577  1.00  0.00    -0.306 N
HETATM   15  O3  UNL     1      10.655  12.558  25.274  1.00  0.00    -0.247 OA
ATOM     16  H2  UNL     1       8.465  10.175  25.215  1.00  0.00     0.170 HD
ATOM     17  H3  UNL     1      10.172   9.859  23.631  1.00  0.00     0.171 HD
BRANCH  14  18
HETATM   18  C17 UNL     1       8.111  11.673  26.607  1.00  0.00     0.064 A
HETATM   19  C12 UNL     1       6.939  12.377  26.306  1.00  0.00     0.059 A
HETATM   20  C13 UNL     1       6.214  12.958  27.343  1.00  0.00     0.033 A
HETATM   21  C14 UNL     1       6.589  12.879  28.654  1.00  0.00     0.026 A
HETATM   22  C15 UNL     1       7.734  12.192  28.944  1.00  0.00     0.036 A
HETATM   23 CL1  UNL     1       8.260  12.068  30.631  1.00  0.00    -0.084 Cl
HETATM   24  C16 UNL     1       8.470  11.606  27.938  1.00  0.00     0.055 A
BRANCH  19  25
HETATM   25  N1  UNL     1       6.487  12.539  24.962  1.00  0.00    -0.348 N
HETATM   26  C11 UNL     1       6.774  13.566  24.012  1.00  0.00     0.126 C
HETATM   27  C10 UNL     1       5.646  13.557  23.000  1.00  0.00     0.029 C
HETATM   28  C9  UNL     1       4.702  12.493  23.496  1.00  0.00     0.041 C
HETATM   29  C31 UNL     1       5.582  11.604  24.312  1.00  0.00     0.276 C
HETATM   30  F1  UNL     1       6.299  10.821  23.423  1.00  0.00    -0.226 F
BRANCH  28  31
HETATM   31  C8  UNL     1       3.602  13.171  24.302  1.00  0.00     0.010 C
BRANCH  31  32
HETATM   32  C7  UNL     1       3.039  14.347  23.554  1.00  0.00     0.010 C
BRANCH  32  33
HETATM   33  C6  UNL     1       2.059  15.174  24.327  1.00  0.00     0.111 C
BRANCH  33  34
HETATM   34  C5  UNL     1       2.356  16.608  24.354  1.00  0.00     0.259 C
HETATM   35  O2  UNL     1       2.289  17.296  23.311  1.00  0.00    -0.265 OA
BRANCH  34  36
HETATM   36  O1  UNL     1       2.721  17.262  25.531  1.00  0.00    -0.311 OA
BRANCH  36  37
HETATM   37  C2  UNL     1       3.883  16.907  26.264  1.00  0.00     0.060 C
HETATM   38  C1  UNL     1       5.069  16.705  25.347  1.00  0.00     0.045 C
HETATM   39  C3  UNL     1       3.695  15.665  27.086  1.00  0.00     0.045 C
HETATM   40  C4  UNL     1       4.212  18.073  27.160  1.00  0.00     0.045 C
ENDBRANCH  36  37
ENDBRANCH  34  36
ENDBRANCH  33  34
ENDBRANCH  32  33
ENDBRANCH  31  32
ENDBRANCH  28  31
ENDBRANCH  19  25
ENDBRANCH  14  18
ENDBRANCH   1  12
BRANCH  10  41
HETATM   41  C27 UNL     1      17.007  13.221  20.602  1.00  0.00    -0.025 C
HETATM   42  C28 UNL     1      17.010  14.077  19.357  1.00  0.00     0.017 C
HETATM   43  C29 UNL     1      17.133  14.138  21.796  1.00  0.00     0.017 C
HETATM   44  C30 UNL     1      18.313  12.411  20.538  1.00  0.00     0.017 C
ENDBRANCH  10  41
TORSDOF 10
ENDMDL