MODEL 1
REMARK VINA RESULT: -6.295865970      0.000      0.000
REMARK  9 active torsions:
REMARK  status: ('A' for Active; 'I' for Inactive)
REMARK    1  A    between atoms: O1_2  and  C2_3
REMARK    2  A    between atoms: C3_4  and  C4_5
REMARK    3  A    between atoms: C7_9  and  O3_10
REMARK    4  A    between atoms: C8_12  and  C9_13
REMARK    5  A    between atoms: C14_19  and  O5_20
REMARK    6  A    between atoms: O5_20  and  C15_21
REMARK       I    between atoms: C15_21  and  N1_23
REMARK    7  A    between atoms: N1_23  and  C16_25
REMARK    8  A    between atoms: C19_28  and  C20_29
REMARK    9  A    between atoms: C20_29  and  C21_30
ROOT
HETATM    1  C2  UNL     1       3.564  15.925  27.044  1.00  0.00     0.093 A
HETATM    2  C3  UNL     1       4.704  15.312  27.497  1.00  0.00     0.070 A
HETATM    3  C5  UNL     1       4.923  13.925  27.416  1.00  0.00     0.102 A
HETATM    4  C6  UNL     1       3.910  13.190  26.838  1.00  0.00     0.078 A
HETATM    5  C7  UNL     1       2.756  13.816  26.382  1.00  0.00     0.091 A
HETATM    6  C8  UNL     1       2.550  15.195  26.472  1.00  0.00     0.014 A
HETATM    7  C12 UNL     1       3.978  11.742  26.606  1.00  0.00     0.167 C
HETATM    8  O4  UNL     1       3.030  11.008  26.964  1.00  0.00    -0.292 OA
HETATM    9  C13 UNL     1       5.146  11.052  25.945  1.00  0.00     0.116 C
HETATM   10  C14 UNL     1       4.921  10.672  24.535  1.00  0.00     0.141 C
HETATM   11  C24 UNL     1       5.588  11.563  23.513  1.00  0.00     0.033 C
HETATM   12  C25 UNL     1       6.950  11.008  23.038  1.00  0.00     0.002 C
HETATM   13  C26 UNL     1       7.877  11.302  24.200  1.00  0.00     0.000 C
HETATM   14  C27 UNL     1       9.333  11.208  23.962  1.00  0.00     0.000 C
HETATM   15  C28 UNL     1       9.997  10.687  25.220  1.00  0.00     0.000 C
HETATM   16  C29 UNL     1      10.027  11.677  26.371  1.00  0.00     0.000 C
HETATM   17  C30 UNL     1       8.775  11.740  27.129  1.00  0.00     0.000 C
HETATM   18  C31 UNL     1       8.774  12.067  28.583  1.00  0.00     0.002 C
HETATM   19  C32 UNL     1       7.378  11.597  29.045  1.00  0.00     0.032 C
HETATM   20  C33 UNL     1       6.340  12.638  29.079  1.00  0.00     0.125 C
HETATM   21  C34 UNL     1       5.109  12.082  29.730  1.00  0.00     0.040 C
HETATM   22  O7  UNL     1       6.101  13.386  27.909  1.00  0.00    -0.344 OA
ENDROOT
BRANCH  10  23
HETATM   23  O5  UNL     1       5.233   9.356  24.190  1.00  0.00    -0.298 OA
BRANCH  23  24
HETATM   24  C15 UNL     1       4.417   8.529  23.387  1.00  0.00     0.365 C
HETATM   25  O6  UNL     1       4.337   8.938  22.226  1.00  0.00    -0.238 OA
HETATM   26  N1  UNL     1       3.820   7.408  23.936  1.00  0.00    -0.303 N
ATOM     27  H1  UNL     1       4.000   7.220  24.922  1.00  0.00     0.171 HD
BRANCH  26  28
HETATM   28  C16 UNL     1       2.984   6.505  23.249  1.00  0.00     0.039 A
HETATM   29  C17 UNL     1       1.684   6.924  22.904  1.00  0.00     0.030 A
HETATM   30  C18 UNL     1       0.818   6.125  22.232  1.00  0.00     0.012 A
HETATM   31  C19 UNL     1       1.193   4.846  21.856  1.00  0.00    -0.017 A
HETATM   32  C22 UNL     1       2.462   4.429  22.190  1.00  0.00     0.124 A
HETATM   33  F2  UNL     1       2.877   3.170  21.838  1.00  0.00    -0.205 F
HETATM   34  C23 UNL     1       3.360   5.248  22.882  1.00  0.00     0.072 A
BRANCH  31  35
HETATM   35  C20 UNL     1       0.263   3.957  21.124  1.00  0.00     0.073 C
BRANCH  35  36
HETATM   36  C21 UNL     1       0.287   4.313  19.638  1.00  0.00     0.227 C
HETATM   37  F1  UNL     1       1.490   4.846  19.271  1.00  0.00    -0.255 F
ENDBRANCH  35  36
ENDBRANCH  31  35
ENDBRANCH  26  28
ENDBRANCH  23  24
ENDBRANCH  10  23
BRANCH   5  38
HETATM   38  O3  UNL     1       1.735  13.085  25.806  1.00  0.00    -0.359 OA
ATOM     39  H3  UNL     1       0.851  13.429  25.768  1.00  0.00     0.217 HD
ENDBRANCH   5  38
BRANCH   2  40
HETATM   40  C4  UNL     1       5.712  16.240  28.051  1.00  0.00     0.275 C
HETATM   41  O2  UNL     1       6.626  16.650  27.328  1.00  0.00    -0.301 OA
ENDBRANCH   2  40
BRANCH   6  42
HETATM   42  C9  UNL     1       1.325  15.878  25.991  1.00  0.00     0.016 C
HETATM   43  C10 UNL     1       0.828  15.530  24.647  1.00  0.00     0.015 C
HETATM   44  C11 UNL     1       0.221  15.526  26.996  1.00  0.00     0.015 C
ENDBRANCH   6  42
BRANCH   1  45
HETATM   45  O1  UNL     1       3.376  17.309  27.140  1.00  0.00    -0.354 OA
HETATM   46  C1  UNL     1       2.830  17.922  28.299  1.00  0.00     0.210 C
ENDBRANCH   1  45
TORSDOF 9
ENDMDL