MODEL 5
REMARK VINA RESULT: -6.683580459      1.235      1.748
REMARK  10 active torsions:
REMARK  status: ('A' for Active; 'I' for Inactive)
REMARK    1  A    between atoms: C12_13  and  O1_14
REMARK    2  A    between atoms: O1_14  and  C13_15
REMARK    3  A    between atoms: C13_15  and  C14_17
REMARK    4  A    between atoms: C14_17  and  O3_18
REMARK    5  A    between atoms: C14_17  and  C21_30
REMARK    6  A    between atoms: O3_18  and  C15_19
REMARK    7  A    between atoms: C15_19  and  O4_20
REMARK    8  A    between atoms: C15_19  and  C16_22
REMARK    9  A    between atoms: C18_25  and  O6_26
REMARK   10  A    between atoms: C30_39  and  C31_40
ROOT
HETATM    1  C1  UNL     1       3.686  16.119  24.771  1.00  0.00     0.052 C
HETATM    2  C2  UNL     1       4.570  14.963  24.445  1.00  0.00    -0.008 C
HETATM    3  C3  UNL     1       5.759  14.876  24.996  1.00  0.00    -0.056 C
HETATM    4  C4  UNL     1       6.498  15.754  25.944  1.00  0.00     0.027 C
HETATM    5  C5  UNL     1       5.875  15.996  27.245  1.00  0.00     0.012 C
HETATM    6  C6  UNL     1       6.396  14.932  28.146  1.00  0.00     0.027 C
HETATM    7  C7  UNL     1       7.791  14.693  27.615  1.00  0.00     0.042 C
HETATM    8  C8  UNL     1       8.653  15.584  28.547  1.00  0.00     0.033 C
HETATM    9 CL1  UNL     1       8.249  13.071  28.118  1.00  0.00    -0.119 Cl
HETATM   10  C9  UNL     1       7.810  15.074  26.239  1.00  0.00    -0.007 C
HETATM   11  C10 UNL     1       8.983  16.048  25.998  1.00  0.00     0.015 C
HETATM   12  C11 UNL     1      10.254  15.430  25.604  1.00  0.00     0.033 C
HETATM   13  C12 UNL     1      10.276  14.207  24.778  1.00  0.00     0.132 C
HETATM   14  C24 UNL     1       9.077  13.286  24.971  1.00  0.00     0.039 C
HETATM   15  C25 UNL     1       7.902  14.159  25.077  1.00  0.00     0.012 C
HETATM   16  C26 UNL     1       6.560  13.644  24.722  1.00  0.00    -0.011 C
HETATM   17  C27 UNL     1       6.088  12.419  25.420  1.00  0.00     0.021 C
HETATM   18  C28 UNL     1       6.439  13.301  23.225  1.00  0.00     0.057 C
HETATM   19  C29 UNL     1       5.022  13.031  22.921  1.00  0.00    -0.006 C
HETATM   20  C30 UNL     1       4.627  11.970  22.266  1.00  0.00     0.012 C
HETATM   21  C33 UNL     1       4.102  14.071  23.391  1.00  0.00     0.184 C
HETATM   22  O7  UNL     1       2.955  14.178  22.897  1.00  0.00    -0.287 OA
ENDROOT
BRANCH  13  23
HETATM   23  O1  UNL     1      11.455  13.475  24.950  1.00  0.00    -0.314 OA
BRANCH  23  24
HETATM   24  C13 UNL     1      12.037  12.701  23.954  1.00  0.00     0.288 C
HETATM   25  O2  UNL     1      11.881  13.090  22.769  1.00  0.00    -0.262 OA
BRANCH  24  26
HETATM   26  C14 UNL     1      12.818  11.465  24.214  1.00  0.00     0.227 C
BRANCH  26  27
HETATM   27  O3  UNL     1      13.352  10.937  23.043  1.00  0.00    -0.342 OA
BRANCH  27  28
HETATM   28  C15 UNL     1      14.727  10.936  22.994  1.00  0.00     0.295 C
BRANCH  28  29
HETATM   29  O4  UNL     1      15.167  11.305  24.274  1.00  0.00    -0.367 OA
ATOM     30  H4  UNL     1      15.887  10.723  24.487  1.00  0.00     0.213 HD
ENDBRANCH  28  29
BRANCH  28  31
HETATM   31  C16 UNL     1      15.328  11.781  21.965  1.00  0.00     0.029 A
HETATM   32  C17 UNL     1      15.174  13.124  21.728  1.00  0.00     0.157 A
HETATM   33  O5  UNL     1      15.911  13.481  20.685  1.00  0.00    -0.299 OA
HETATM   34  C18 UNL     1      16.544  12.456  20.214  1.00  0.00     0.189 A
HETATM   35  C19 UNL     1      16.214  11.348  20.985  1.00  0.00     0.009 A
HETATM   36  C20 UNL     1      16.715   9.975  20.794  1.00  0.00     0.054 C
BRANCH  34  37
HETATM   37  O6  UNL     1      17.408  12.497  19.112  1.00  0.00    -0.340 OA
ATOM     38  H6  UNL     1      18.280  12.119  19.099  1.00  0.00     0.220 HD
ENDBRANCH  34  37
ENDBRANCH  28  31
ENDBRANCH  27  28
ENDBRANCH  26  27
BRANCH  26  39
HETATM   39  C21 UNL     1      12.036  10.434  24.961  1.00  0.00     0.016 C
HETATM   40  C22 UNL     1      12.530  10.197  26.357  1.00  0.00     0.012 C
HETATM   41  C23 UNL     1      11.989   9.144  24.152  1.00  0.00     0.012 C
ENDBRANCH  26  39
ENDBRANCH  24  26
ENDBRANCH  23  24
ENDBRANCH  13  23
BRANCH  20  42
HETATM   42  C31 UNL     1       5.489  10.938  21.755  1.00  0.00     0.012 C
HETATM   43  C32 UNL     1       5.588   9.763  22.375  1.00  0.00     0.084 C
HETATM   44 CL2  UNL     1       4.664   9.448  23.833  1.00  0.00    -0.097 Cl
ENDBRANCH  20  42
TORSDOF 10
ENDMDL