MODEL 3
REMARK VINA RESULT: -5.636675980      6.376     11.377
REMARK  11 active torsions:
REMARK  status: ('A' for Active; 'I' for Inactive)
REMARK    1  A    between atoms: C2_2  and  C4_4
REMARK    2  A    between atoms: N3_9  and  C5_10
REMARK    3  A    between atoms: C10_15  and  C11_16
REMARK       I    between atoms: C11_16  and  N4_18
REMARK    4  A    between atoms: N4_18  and  C12_20
REMARK    5  A    between atoms: C12_20  and  C13_21
REMARK    6  A    between atoms: C12_20  and  C26_41
REMARK    7  A    between atoms: C16_24  and  N5_25
REMARK       I    between atoms: N5_25  and  C17_27
REMARK       I    between atoms: C17_27  and  N7_34
REMARK    8  A    between atoms: N6_28  and  C18_30
REMARK    9  A    between atoms: N7_34  and  C23_36
REMARK   10  A    between atoms: C29_44  and  C30_45
REMARK   11  A    between atoms: C30_45  and  N8_46
ROOT
HETATM    1  C12 UNL     1      -3.140  11.544   0.534  1.00  0.00     0.122 C
ENDROOT
BRANCH   1   2
HETATM    2  N4  UNL     1      -1.840  10.958   0.251  1.00  0.00    -0.347 N
HETATM    3  C11 UNL     1      -0.651  11.745   0.244  1.00  0.00     0.272 C
HETATM    4  O1  UNL     1      -0.840  12.962   0.505  1.00  0.00    -0.266 OA
ATOM      5  H4  UNL     1      -1.777   9.959   0.054  1.00  0.00     0.163 HD
BRANCH   3   6
HETATM    6  C10 UNL     1       0.664  11.261  -0.022  1.00  0.00     0.149 A
HETATM    7  C4  UNL     1       1.664  11.087   0.945  1.00  0.00     0.065 A
HETATM    8  N1  UNL     1       2.754  10.656   0.255  1.00  0.00    -0.287 N
HETATM    9  N2  UNL     1       2.467  10.574  -0.989  1.00  0.00    -0.235 N
ATOM     10  H1  UNL     1       3.660  10.433   0.666  1.00  0.00     0.188 HD
HETATM   11  N3  UNL     1       1.178  10.940  -1.219  1.00  0.00    -0.243 N
ATOM     12  H2  UNL     1       3.119  10.274  -1.713  1.00  0.00     0.209 HD
BRANCH   7  13
HETATM   13  C2  UNL     1       1.581  11.295   2.409  1.00  0.00     0.031 C
HETATM   14  C1  UNL     1       2.407  12.573   2.706  1.00  0.00     0.016 C
HETATM   15  C3  UNL     1       2.258  10.194   3.184  1.00  0.00     0.016 C
ENDBRANCH   7  13
BRANCH  11  16
HETATM   16  C5  UNL     1       0.636  10.956  -2.515  1.00  0.00     0.014 C
HETATM   17  C6  UNL     1       0.240  12.240  -3.134  1.00  0.00     0.054 C
HETATM   18  C7  UNL     1      -0.185  11.827  -4.542  1.00  0.00     0.006 C
HETATM   19  C8  UNL     1       0.169  10.341  -4.676  1.00  0.00     0.006 C
HETATM   20  C9  UNL     1       1.278  10.173  -3.596  1.00  0.00     0.054 C
ENDBRANCH  11  16
ENDBRANCH   3   6
ENDBRANCH   1   2
BRANCH   1  21
HETATM   21  C13 UNL     1      -3.978  11.686  -0.688  1.00  0.00    -0.035 A
HETATM   22  C14 UNL     1      -3.408  12.214  -1.824  1.00  0.00     0.011 A
HETATM   23  C15 UNL     1      -4.136  12.365  -2.991  1.00  0.00     0.030 A
HETATM   24  C16 UNL     1      -5.458  12.000  -3.079  1.00  0.00     0.049 A
HETATM   25  C24 UNL     1      -6.024  11.467  -1.919  1.00  0.00     0.030 A
HETATM   26  C25 UNL     1      -5.290  11.321  -0.763  1.00  0.00     0.011 A
BRANCH  24  27
HETATM   27  N5  UNL     1      -6.218  12.111  -4.268  1.00  0.00    -0.192 N
HETATM   28  C17 UNL     1      -7.593  11.846  -4.405  1.00  0.00     0.681 C
HETATM   29  N6  UNL     1      -8.416  12.773  -4.703  1.00  0.00    -0.218 N
HETATM   30  N7  UNL     1      -8.136  10.546  -4.225  1.00  0.00    -0.164 N
ATOM     31  H6  UNL     1      -9.391  12.482  -4.780  1.00  0.00     0.178 HD
HETATM   32  C22 UNL     1      -7.375   9.369  -4.573  1.00  0.00     0.174 C
ATOM     33  H5  UNL     1      -5.721  12.410  -5.107  1.00  0.00     0.184 HD
BRANCH  29  34
HETATM   34  C18 UNL     1      -8.173  14.152  -4.945  1.00  0.00     0.036 C
HETATM   35  C19 UNL     1      -7.170  14.342  -6.040  1.00  0.00     0.038 C
HETATM   36  C20 UNL     1      -9.479  14.812  -5.335  1.00  0.00     0.038 C
HETATM   37  C21 UNL     1      -7.691  14.871  -3.687  1.00  0.00     0.038 C
ENDBRANCH  29  34
BRANCH  30  38
HETATM   38  C23 UNL     1      -9.463  10.379  -3.691  1.00  0.00     0.474 C
HETATM   39  F1  UNL     1     -10.415  10.281  -4.698  1.00  0.00    -0.190 F
HETATM   40  F2  UNL     1      -9.596   9.243  -2.914  1.00  0.00    -0.190 F
ENDBRANCH  30  38
ENDBRANCH  24  27
ENDBRANCH   1  21
BRANCH   1  41
HETATM   41  C26 UNL     1      -3.827  10.791   1.624  1.00  0.00     0.013 C
HETATM   42  C27 UNL     1      -3.322   9.412   1.724  1.00  0.00     0.007 C
HETATM   43  C28 UNL     1      -3.699   8.717   3.020  1.00  0.00     0.007 C
HETATM   44  C29 UNL     1      -4.795   9.514   3.740  1.00  0.00     0.011 C
HETATM   45  C31 UNL     1      -4.148  10.826   4.114  1.00  0.00     0.007 C
HETATM   46  C32 UNL     1      -3.718  11.593   2.892  1.00  0.00     0.007 C
BRANCH  44  47
HETATM   47  C30 UNL     1      -5.184   8.741   4.969  1.00  0.00     0.234 C
BRANCH  47  48
HETATM   48  N8  UNL     1      -4.900   9.532   6.172  1.00  0.00    -0.079 N
ATOM     49  H83 UNL     1      -4.193  10.246   6.001  1.00  0.00     0.274 HD
ATOM     50  H82 UNL     1      -5.676  10.147   6.417  1.00  0.00     0.274 HD
ATOM     51  H81 UNL     1      -4.643   8.916   6.943  1.00  0.00     0.274 HD
ENDBRANCH  47  48
ENDBRANCH  44  47
ENDBRANCH   1  41
TORSDOF 11
ENDMDL