MODEL 2
REMARK VINA RESULT: -5.926081983      4.039      6.359
REMARK  9 active torsions:
REMARK  status: ('A' for Active; 'I' for Inactive)
REMARK    1  A    between atoms: C2_2  and  N1_3
REMARK    2  A    between atoms: N1_3  and  C3_4
REMARK       I    between atoms: N1_3  and  C5_6
REMARK       I    between atoms: C5_6  and  N2_8
REMARK    3  A    between atoms: N2_8  and  C6_10
REMARK    4  A    between atoms: C9_13  and  N3_14
REMARK       I    between atoms: N3_14  and  C10_16
REMARK       I    between atoms: C10_16  and  N4_18
REMARK    5  A    between atoms: N4_18  and  C11_20
REMARK    6  A    between atoms: C16_29  and  C17_30
REMARK    7  A    between atoms: C17_30  and  C20_33
REMARK    8  A    between atoms: C22_37  and  C23_38
REMARK    9  A    between atoms: C29_45  and  O3_46
ROOT
HETATM    1  C11 UNL     1      -1.632  11.398  -0.448  1.00  0.00     0.045 C
HETATM    2  C12 UNL     1      -0.436  11.295   0.313  1.00  0.00     0.062 C
HETATM    3  C13 UNL     1       0.847  11.664  -0.071  1.00  0.00     0.062 A
HETATM    4  N5  UNL     1       1.943  11.760   0.698  1.00  0.00    -0.350 N
ATOM      5  H5  UNL     1       1.973  11.571   1.700  1.00  0.00     0.166 HD
HETATM    6  C14 UNL     1       2.998  12.143  -0.051  1.00  0.00     0.181 A
HETATM    7  N6  UNL     1       2.626  12.312  -1.354  1.00  0.00    -0.350 N
ATOM      8  H6  UNL     1       3.228  12.597  -2.128  1.00  0.00     0.166 HD
HETATM    9  C15 UNL     1       1.335  12.035  -1.419  1.00  0.00     0.067 A
HETATM   10  C16 UNL     1       0.538  12.081  -2.538  1.00  0.00    -0.015 C
HETATM   11  C21 UNL     1      -0.827  12.437  -2.527  1.00  0.00     0.020 C
HETATM   12  C22 UNL     1      -1.788  12.215  -1.577  1.00  0.00    -0.026 C
ENDROOT
BRANCH   1  13
HETATM   13  N4  UNL     1      -2.675  10.546  -0.081  1.00  0.00    -0.308 N
HETATM   14  C10 UNL     1      -3.286  10.492   1.210  1.00  0.00     0.325 C
HETATM   15  N3  UNL     1      -4.286   9.586   1.583  1.00  0.00    -0.306 N
HETATM   16  O2  UNL     1      -2.895  11.313   2.065  1.00  0.00    -0.247 OA
ATOM     17  H3  UNL     1      -4.589   8.868   0.926  1.00  0.00     0.171 HD
ATOM     18  H4  UNL     1      -3.031   9.908  -0.794  1.00  0.00     0.170 HD
BRANCH  15  19
HETATM   19  C9  UNL     1      -4.892   9.662   2.889  1.00  0.00     0.070 A
HETATM   20  C8  UNL     1      -5.979  10.493   3.061  1.00  0.00     0.035 A
HETATM   21  C7  UNL     1      -6.661  10.499   4.253  1.00  0.00     0.032 A
HETATM   22  C6  UNL     1      -6.290   9.677   5.329  1.00  0.00     0.039 A
HETATM   23  C31 UNL     1      -5.206   8.880   5.104  1.00  0.00     0.068 A
HETATM   24  C29 UNL     1      -4.494   8.837   3.934  1.00  0.00     0.097 A
BRANCH  22  25
HETATM   25  N2  UNL     1      -7.113   9.709   6.451  1.00  0.00    -0.309 N
HETATM   26  C5  UNL     1      -8.028   8.730   6.892  1.00  0.00     0.322 C
HETATM   27  N1  UNL     1      -8.807   8.959   8.074  1.00  0.00    -0.335 N
HETATM   28  O1  UNL     1      -8.158   7.653   6.243  1.00  0.00    -0.247 OA
ATOM     29  H2  UNL     1      -7.045  10.547   7.029  1.00  0.00     0.170 HD
BRANCH  27  30
HETATM   30  C2  UNL     1      -8.685  10.192   8.812  1.00  0.00     0.123 C
HETATM   31  C1  UNL     1      -9.899  11.071   8.584  1.00  0.00     0.026 C
ENDBRANCH  27  30
BRANCH  27  32
HETATM   32  C3  UNL     1      -9.717   7.922   8.522  1.00  0.00     0.123 C
HETATM   33  C4  UNL     1      -9.328   7.568   9.952  1.00  0.00     0.026 C
ENDBRANCH  27  32
ENDBRANCH  22  25
BRANCH  24  34
HETATM   34  O3  UNL     1      -3.426   8.032   3.746  1.00  0.00    -0.354 OA
HETATM   35  C30 UNL     1      -3.446   6.745   3.192  1.00  0.00     0.210 C
ENDBRANCH  24  34
ENDBRANCH  15  19
ENDBRANCH   1  13
BRANCH  12  36
HETATM   36  C23 UNL     1      -3.134  12.793  -1.691  1.00  0.00     0.024 C
HETATM   37  C24 UNL     1      -3.075  14.248  -1.266  1.00  0.00     0.039 C
HETATM   38  C25 UNL     1      -4.439  14.907  -1.533  1.00  0.00     0.272 C
HETATM   39  N7  UNL     1      -4.572  15.069  -2.975  1.00  0.00     0.084 N
HETATM   40  C26 UNL     1      -5.960  14.890  -3.324  1.00  0.00     0.309 C
HETATM   41  C27 UNL     1      -3.674  14.206  -3.679  1.00  0.00     0.272 C
HETATM   42  C28 UNL     1      -3.674  12.829  -3.104  1.00  0.00     0.039 C
ENDBRANCH  12  36
BRANCH  10  43
HETATM   43  C17 UNL     1       1.148  11.708  -3.809  1.00  0.00     0.041 C
HETATM   44  C18 UNL     1       2.318  12.556  -4.234  1.00  0.00     0.026 C
HETATM   45  C19 UNL     1       0.079  11.890  -4.902  1.00  0.00     0.026 C
BRANCH  43  46
HETATM   46  C20 UNL     1       1.511  10.232  -3.885  1.00  0.00     0.365 C
HETATM   47  F1  UNL     1       0.479   9.396  -3.531  1.00  0.00    -0.213 F
HETATM   48  F2  UNL     1       1.908   9.930  -5.205  1.00  0.00    -0.213 F
ENDBRANCH  43  46
ENDBRANCH  10  43
TORSDOF 9
ENDMDL