MODEL 1
REMARK VINA RESULT: -5.611489582      0.000      0.000
REMARK  11 active torsions:
REMARK  status: ('A' for Active; 'I' for Inactive)
REMARK    1  A    between atoms: C3_3  and  O1_4
REMARK    2  A    between atoms: O1_4  and  C4_5
REMARK    3  A    between atoms: C7_9  and  O2_10
REMARK    4  A    between atoms: C9_14  and  C10_15
REMARK    5  A    between atoms: C16_23  and  O5_24
REMARK    6  A    between atoms: C17_26  and  C18_27
REMARK    7  A    between atoms: C18_27  and  C19_28
REMARK    8  A    between atoms: C20_29  and  C22_31
REMARK    9  A    between atoms: C22_31  and  C23_32
REMARK   10  A    between atoms: C23_32  and  C24_33
REMARK   11  A    between atoms: C28_37  and  O6_38
ROOT
HETATM    1  C1  UNL     1       1.727  13.604  -0.450  1.00  0.00     0.019 C
HETATM    2  C2  UNL     1       2.299  12.522   0.044  1.00  0.00    -0.033 C
HETATM    3  C3  UNL     1       2.988  11.397  -0.732  1.00  0.00     0.166 C
HETATM    4  C6  UNL     1       4.046  10.959   0.166  1.00  0.00     0.127 C
HETATM    5  C7  UNL     1       4.191   9.458   0.401  1.00  0.00     0.206 C
HETATM    6  O3  UNL     1       2.922   9.174   0.896  1.00  0.00    -0.341 OA
HETATM    7  C8  UNL     1       2.704  10.089   1.913  1.00  0.00     0.170 A
HETATM    8  C9  UNL     1       1.500  10.982   1.780  1.00  0.00     0.049 A
HETATM    9  C12 UNL     1       2.388  12.177   1.485  1.00  0.00     0.103 A
HETATM   10 CL1  UNL     1       2.256  13.522   2.604  1.00  0.00    -0.110 Cl
HETATM   11  C13 UNL     1       3.530  11.304   1.550  1.00  0.00     0.132 A
HETATM   12  O4  UNL     1       4.591  11.453   2.409  1.00  0.00    -0.334 OA
HETATM   13  C14 UNL     1       5.423  10.297   2.449  1.00  0.00     0.087 A
HETATM   14  C15 UNL     1       6.387  10.152   3.415  1.00  0.00     0.074 A
HETATM   15  C16 UNL     1       7.187   8.998   3.423  1.00  0.00     0.077 A
HETATM   16  C17 UNL     1       7.012   8.012   2.471  1.00  0.00     0.012 A
HETATM   17  C28 UNL     1       6.035   8.199   1.524  1.00  0.00     0.089 A
HETATM   18  C29 UNL     1       5.226   9.343   1.495  1.00  0.00     0.071 A
ENDROOT
BRANCH  16  19
HETATM   19  C18 UNL     1       7.896   6.832   2.557  1.00  0.00     0.072 C
BRANCH  19  20
HETATM   20  C19 UNL     1       8.991   6.808   1.560  1.00  0.00    -0.020 C
HETATM   21  C20 UNL     1      10.189   6.308   1.780  1.00  0.00    -0.087 C
HETATM   22  C21 UNL     1      10.510   5.724   3.103  1.00  0.00     0.043 C
BRANCH  21  23
HETATM   23  C22 UNL     1      11.198   6.346   0.677  1.00  0.00     0.037 C
BRANCH  23  24
HETATM   24  C23 UNL     1      10.492   6.276  -0.669  1.00  0.00     0.031 C
BRANCH  24  25
HETATM   25  C24 UNL     1      10.694   4.916  -1.269  1.00  0.00    -0.024 C
HETATM   26  C25 UNL     1       9.571   4.257  -1.609  1.00  0.00    -0.091 C
HETATM   27  C26 UNL     1       8.222   4.798  -1.419  1.00  0.00     0.042 C
HETATM   28  C27 UNL     1       9.737   2.895  -2.204  1.00  0.00     0.042 C
ENDBRANCH  24  25
ENDBRANCH  23  24
ENDBRANCH  21  23
ENDBRANCH  19  20
ENDBRANCH  16  19
BRANCH  15  29
HETATM   29  O5  UNL     1       8.154   8.847   4.392  1.00  0.00    -0.360 OA
ATOM     30  H5  UNL     1       9.030   8.579   4.142  1.00  0.00     0.217 HD
ENDBRANCH  15  29
BRANCH  17  31
HETATM   31  O6  UNL     1       5.851   7.214   0.561  1.00  0.00    -0.359 OA
ATOM     32  H6  UNL     1       5.416   6.409   0.817  1.00  0.00     0.217 HD
ENDBRANCH  17  31
BRANCH   5  33
HETATM   33  O2  UNL     1       4.542   8.749  -0.707  1.00  0.00    -0.361 OA
ATOM     34  H2  UNL     1       3.820   8.291  -1.122  1.00  0.00     0.213 HD
ENDBRANCH   5  33
BRANCH   3  35
HETATM   35  O1  UNL     1       2.030  10.478  -1.140  1.00  0.00    -0.365 OA
BRANCH  35  36
HETATM   36  C4  UNL     1       1.576  10.773  -2.431  1.00  0.00     0.189 C
HETATM   37  C5  UNL     1       0.386   9.892  -2.797  1.00  0.00     0.052 C
HETATM   38 BR1  UNL     1       2.954  10.654  -3.728  1.00  0.00    -0.062 Br
ENDBRANCH  35  36
ENDBRANCH   3  35
BRANCH   8  39
HETATM   39  C10 UNL     1       0.739  11.176   3.093  1.00  0.00     0.005 C
HETATM   40  C11 UNL     1      -0.729  11.446   2.823  1.00  0.00     0.005 C
ENDBRANCH   8  39
TORSDOF 11
ENDMDL