MODEL 5
REMARK VINA RESULT: -5.764233420      4.375      8.690
REMARK  12 active torsions:
REMARK  status: ('A' for Active; 'I' for Inactive)
REMARK    1  A    between atoms: C2_2  and  C5_5
REMARK    2  A    between atoms: C6_6  and  O1_7
REMARK    3  A    between atoms: O1_7  and  C7_8
REMARK    4  A    between atoms: C8_9  and  C9_10
REMARK    5  A    between atoms: C9_10  and  N1_11
REMARK    6  A    between atoms: C12_14  and  C13_15
REMARK    7  A    between atoms: C13_15  and  C14_16
REMARK    8  A    between atoms: C14_16  and  N2_17
REMARK    9  A    between atoms: C15_18  and  O2_19
REMARK   10  A    between atoms: C20_27  and  C21_28
REMARK   11  A    between atoms: C22_29  and  C23_30
REMARK   12  A    between atoms: C31_41  and  O4_42
ROOT
HETATM    1  C5  UNL     1      -1.246  12.861  -2.829  1.00  0.00    -0.003 A
HETATM    2  C6  UNL     1      -1.837  12.390  -1.639  1.00  0.00     0.101 A
HETATM    3  C20 UNL     1      -1.620  11.141  -1.125  1.00  0.00     0.054 A
HETATM    4  C29 UNL     1      -0.749  10.300  -1.821  1.00  0.00     0.054 A
HETATM    5  C30 UNL     1      -0.142  10.724  -2.974  1.00  0.00     0.046 A
HETATM    6  N3  UNL     1       0.743  10.083  -3.757  1.00  0.00    -0.336 N
ATOM      7  H3  UNL     1       1.088   9.135  -3.605  1.00  0.00     0.168 HD
HETATM    8  C31 UNL     1       1.099  10.875  -4.755  1.00  0.00     0.141 A
HETATM    9  C32 UNL     1       0.417  12.094  -4.626  1.00  0.00     0.070 A
HETATM   10  C33 UNL     1      -0.369  12.003  -3.506  1.00  0.00     0.005 A
ENDROOT
BRANCH   2  11
HETATM   11  O1  UNL     1      -2.645  13.236  -0.941  1.00  0.00    -0.321 OA
BRANCH  11  12
HETATM   12  C7  UNL     1      -2.264  14.082   0.056  1.00  0.00     0.140 C
HETATM   13  C8  UNL     1      -1.216  13.965   1.045  1.00  0.00     0.017 C
BRANCH  13  14
HETATM   14  C9  UNL     1       0.216  13.847   0.732  1.00  0.00     0.151 C
BRANCH  14  15
HETATM   15  N1  UNL     1       0.780  12.563   1.033  1.00  0.00    -0.390 N
HETATM   16  C10 UNL     1       1.725  12.017   0.165  1.00  0.00     0.058 C
HETATM   17  C11 UNL     1       2.780  11.160   0.803  1.00  0.00     0.049 C
HETATM   18  C12 UNL     1       2.344  10.511   2.092  1.00  0.00    -0.007 C
HETATM   19  C18 UNL     1       1.587  11.452   2.969  1.00  0.00     0.025 C
HETATM   20  C19 UNL     1       0.351  11.888   2.176  1.00  0.00     0.122 C
BRANCH  18  21
HETATM   21  C13 UNL     1       3.503   9.847   2.770  1.00  0.00     0.025 C
BRANCH  21  22
HETATM   22  C14 UNL     1       4.826  10.221   2.177  1.00  0.00     0.135 C
BRANCH  22  23
HETATM   23  N2  UNL     1       5.693   9.020   2.043  1.00  0.00    -0.288 N
HETATM   24  C15 UNL     1       5.628   8.216   1.015  1.00  0.00     0.152 A
HETATM   25  C16 UNL     1       6.472   7.140   0.988  1.00  0.00     0.111 A
HETATM   26  S1  UNL     1       7.332   7.322   2.449  1.00  0.00    -0.036 SA
HETATM   27  C17 UNL     1       6.577   8.744   3.006  1.00  0.00     0.292 A
HETATM   28  O3  UNL     1       6.785   9.413   4.086  1.00  0.00    -0.259 OA
BRANCH  24  29
HETATM   29  O2  UNL     1       4.726   8.404  -0.077  1.00  0.00    -0.345 OA
ATOM     30  H2  UNL     1       3.943   8.939  -0.023  1.00  0.00     0.219 HD
ENDBRANCH  24  29
ENDBRANCH  22  23
ENDBRANCH  21  22
ENDBRANCH  18  21
ENDBRANCH  14  15
ENDBRANCH  13  14
ENDBRANCH  11  12
ENDBRANCH   2  11
BRANCH   1  31
HETATM   31  C2  UNL     1      -1.764  14.066  -3.430  1.00  0.00    -0.020 C
HETATM   32  C1  UNL     1      -1.388  13.923  -4.982  1.00  0.00     0.019 C
HETATM   33  C3  UNL     1      -3.179  14.430  -3.459  1.00  0.00     0.019 C
HETATM   34  C4  UNL     1      -1.011  15.373  -3.118  1.00  0.00     0.019 C
ENDBRANCH   1  31
BRANCH   3  35
HETATM   35  C21 UNL     1      -2.270  10.613   0.048  1.00  0.00    -0.059 C
HETATM   36  C22 UNL     1      -2.799  10.210   1.060  1.00  0.00    -0.061 C
BRANCH  36  37
HETATM   37  C23 UNL     1      -3.403   9.721   2.268  1.00  0.00     0.021 A
HETATM   38  C24 UNL     1      -3.579   8.367   2.477  1.00  0.00     0.021 A
HETATM   39  C25 UNL     1      -4.154   7.871   3.632  1.00  0.00     0.004 A
HETATM   40  C26 UNL     1      -4.581   8.717   4.634  1.00  0.00     0.042 A
HETATM   41  C27 UNL     1      -4.411  10.071   4.438  1.00  0.00     0.117 A
HETATM   42  F1  UNL     1      -4.829  10.901   5.420  1.00  0.00    -0.206 F
HETATM   43  C28 UNL     1      -3.835  10.555   3.281  1.00  0.00     0.062 A
ENDBRANCH  36  37
ENDBRANCH   3  35
BRANCH   8  44
HETATM   44  O4  UNL     1       1.992  10.613  -5.793  1.00  0.00    -0.346 OA
ATOM     45  H4  UNL     1       2.456  11.232  -6.345  1.00  0.00     0.219 HD
ENDBRANCH   8  44
TORSDOF 12
ENDMDL