MODEL 1
REMARK VINA RESULT: -6.128594808      0.000      0.000
REMARK  8 active torsions:
REMARK  status: ('A' for Active; 'I' for Inactive)
REMARK    1  A    between atoms: C2_2  and  C3_3
REMARK    2  A    between atoms: C3_3  and  N1_4
REMARK       I    between atoms: N1_4  and  C4_6
REMARK       I    between atoms: C4_6  and  N2_8
REMARK    3  A    between atoms: N2_8  and  C5_10
REMARK    4  A    between atoms: C10_17  and  C11_18
REMARK    5  A    between atoms: N3_19  and  N4_21
REMARK    6  A    between atoms: C12_22  and  C13_23
REMARK    7  A    between atoms: C13_23  and  O2_24
REMARK    8  A    between atoms: O2_24  and  C14_25
ROOT
HETATM    1  C5  UNL     1       2.571  10.817  -1.548  1.00  0.00     0.086 A
HETATM    2  C6  UNL     1       3.476  10.082  -0.830  1.00  0.00     0.145 A
HETATM    3  F1  UNL     1       3.050   9.211   0.148  1.00  0.00    -0.204 F
HETATM    4  C7  UNL     1       4.824  10.170  -1.042  1.00  0.00     0.063 A
HETATM    5  C8  UNL     1       5.314  11.028  -2.011  1.00  0.00     0.014 A
HETATM    6 BR1  UNL     1       7.182  11.186  -2.367  1.00  0.00    -0.051 Br
HETATM    7  C9  UNL     1       4.426  11.772  -2.738  1.00  0.00     0.034 A
HETATM    8  C10 UNL     1       3.072  11.682  -2.524  1.00  0.00     0.012 A
ENDROOT
BRANCH   8   9
HETATM    9  C11 UNL     1       2.153  12.535  -3.311  1.00  0.00     0.121 C
HETATM   10  N3  UNL     1       1.423  11.987  -4.207  1.00  0.00    -0.301 N
ATOM     11  H3  UNL     1       1.519  10.978  -4.320  1.00  0.00     0.186 HD
BRANCH  10  12
HETATM   12  N4  UNL     1       0.520  12.618  -5.036  1.00  0.00    -0.213 N
HETATM   13  C12 UNL     1       0.739  13.001  -6.291  1.00  0.00     0.145 A
HETATM   14  N5  UNL     1      -0.387  13.594  -6.729  1.00  0.00    -0.283 N
HETATM   15  N6  UNL     1      -1.301  13.588  -5.771  1.00  0.00    -0.273 N
ATOM     16  H5  UNL     1      -0.517  13.989  -7.660  1.00  0.00     0.188 HD
HETATM   17  C20 UNL     1      -0.730  12.973  -4.708  1.00  0.00     0.213 A
ATOM     18  H6  UNL     1      -2.245  13.970  -5.823  1.00  0.00     0.189 HD
HETATM   19  S1  UNL     1      -1.569  12.779  -3.311  1.00  0.00    -0.037 SA
BRANCH  13  20
HETATM   20  C13 UNL     1       1.975  12.827  -7.106  1.00  0.00     0.255 C
BRANCH  20  21
HETATM   21  O2  UNL     1       2.379  11.495  -7.176  1.00  0.00    -0.344 OA
BRANCH  21  22
HETATM   22  C14 UNL     1       3.461  10.893  -6.642  1.00  0.00     0.069 A
HETATM   23  C15 UNL     1       4.656  11.557  -6.511  1.00  0.00     0.037 A
HETATM   24  C16 UNL     1       5.769  10.929  -5.957  1.00  0.00     0.003 A
HETATM   25  C17 UNL     1       5.689   9.626  -5.529  1.00  0.00     0.000 A
HETATM   26  C18 UNL     1       4.482   8.952  -5.660  1.00  0.00     0.003 A
HETATM   27  C19 UNL     1       3.382   9.585  -6.212  1.00  0.00     0.037 A
ENDBRANCH  21  22
ENDBRANCH  20  21
ENDBRANCH  13  20
ENDBRANCH  10  12
ENDBRANCH   8   9
BRANCH   1  28
HETATM   28  N2  UNL     1       1.174  10.753  -1.323  1.00  0.00    -0.305 N
HETATM   29  C4  UNL     1       0.582  11.358  -0.135  1.00  0.00     0.324 C
HETATM   30  N1  UNL     1      -0.775  11.229   0.083  1.00  0.00    -0.322 N
HETATM   31  O1  UNL     1       1.390  11.953   0.588  1.00  0.00    -0.247 OA
ATOM     32  H1  UNL     1      -1.244  10.678  -0.636  1.00  0.00     0.169 HD
ATOM     33  H2  UNL     1       0.576  10.278  -1.998  1.00  0.00     0.171 HD
BRANCH  30  34
HETATM   34  C3  UNL     1      -1.639  11.684   1.064  1.00  0.00     0.075 C
BRANCH  34  35
HETATM   35  C2  UNL     1      -2.799  10.903   1.567  1.00  0.00    -0.012 C
HETATM   36  C1  UNL     1      -3.828  10.873   0.454  1.00  0.00     0.021 C
HETATM   37  C21 UNL     1      -3.376  11.954   2.621  1.00  0.00     0.014 C
HETATM   38  C22 UNL     1      -4.624  11.466   3.247  1.00  0.00     0.001 C
HETATM   39  C23 UNL     1      -4.368  10.922   4.633  1.00  0.00     0.000 C
HETATM   40  C24 UNL     1      -4.208   9.450   4.694  1.00  0.00     0.000 C
HETATM   41  C25 UNL     1      -4.542   8.682   3.475  1.00  0.00     0.000 C
HETATM   42  C26 UNL     1      -3.585   8.645   2.361  1.00  0.00     0.001 C
HETATM   43  C27 UNL     1      -2.507   9.689   2.294  1.00  0.00     0.014 C
ENDBRANCH  34  35
ENDBRANCH  30  34
ENDBRANCH   1  28
TORSDOF 8
ENDMDL