MODEL 1
REMARK VINA RESULT: -5.673183661      0.000      0.000
REMARK  12 active torsions:
REMARK  status: ('A' for Active; 'I' for Inactive)
REMARK    1  A    between atoms: C2_2  and  C3_3
REMARK    2  A    between atoms: C3_3  and  O1_4
REMARK    3  A    between atoms: C3_3  and  C4_6
REMARK    4  A    between atoms: C4_6  and  C6_8
REMARK    5  A    between atoms: C6_8  and  O2_9
REMARK    6  A    between atoms: O2_9  and  C7_10
REMARK    7  A    between atoms: C9_12  and  O3_13
REMARK    8  A    between atoms: C14_20  and  C15_21
REMARK    9  A    between atoms: C15_21  and  C17_23
REMARK   10  A    between atoms: C15_21  and  C23_29
REMARK   11  A    between atoms: C18_24  and  C19_25
REMARK   12  A    between atoms: C23_29  and  C24_30
ROOT
HETATM    1  C7  UNL     1      -2.623  11.482   2.278  1.00  0.00     0.091 A
HETATM    2  C8  UNL     1      -1.391  11.648   2.867  1.00  0.00     0.075 A
HETATM    3  C9  UNL     1      -0.249  11.557   2.130  1.00  0.00     0.082 A
HETATM    4  C10 UNL     1      -0.302  11.294   0.750  1.00  0.00     0.048 A
HETATM    5  C11 UNL     1       0.884  11.226   0.071  1.00  0.00     0.062 A
HETATM    6 CL1  UNL     1       2.375  11.476   0.965  1.00  0.00    -0.082 Cl
HETATM    7  C12 UNL     1       0.902  10.976  -1.322  1.00  0.00     0.021 A
HETATM    8  C13 UNL     1       1.964  10.898  -2.128  1.00  0.00     0.032 A
HETATM    9  C14 UNL     1       1.758  10.662  -3.463  1.00  0.00     0.006 A
HETATM   10  S1  UNL     1       0.044  10.557  -3.534  1.00  0.00    -0.074 SA
HETATM   11  C25 UNL     1      -0.333  10.816  -1.884  1.00  0.00     0.087 A
HETATM   12  N1  UNL     1      -1.505  10.889  -1.169  1.00  0.00    -0.348 N
ATOM     13  H1  UNL     1      -2.391  10.756  -1.656  1.00  0.00     0.166 HD
HETATM   14  C26 UNL     1      -1.518  11.128   0.146  1.00  0.00     0.068 A
HETATM   15  C27 UNL     1      -2.660  11.220   0.899  1.00  0.00     0.072 A
HETATM   16 BR1  UNL     1      -4.359  10.991   0.045  1.00  0.00    -0.046 Br
ENDROOT
BRANCH   9  17
HETATM   17  C15 UNL     1       2.772  10.596  -4.545  1.00  0.00     0.063 C
HETATM   18  C16 UNL     1       2.686  11.888  -5.348  1.00  0.00     0.035 C
BRANCH  17  19
HETATM   19  C17 UNL     1       4.094  10.655  -3.866  1.00  0.00    -0.090 C
HETATM   20  C18 UNL     1       5.169  10.720  -3.290  1.00  0.00    -0.097 C
BRANCH  20  21
HETATM   21  C19 UNL     1       6.445  10.823  -2.585  1.00  0.00     0.013 C
HETATM   22  C20 UNL     1       6.401  10.176  -1.207  1.00  0.00     0.028 C
HETATM   23  C21 UNL     1       7.476  10.143  -3.463  1.00  0.00     0.028 C
HETATM   24  C22 UNL     1       6.868  12.281  -2.404  1.00  0.00     0.028 C
ENDBRANCH  20  21
ENDBRANCH  17  19
BRANCH  17  25
HETATM   25  C23 UNL     1       2.710   9.455  -5.469  1.00  0.00     0.140 C
BRANCH  25  26
HETATM   26  C24 UNL     1       3.884   8.972  -6.127  1.00  0.00     0.174 C
HETATM   27  O4  UNL     1       4.311   7.803  -5.709  1.00  0.00    -0.648 OA
HETATM   28  O5  UNL     1       4.615   9.528  -7.100  1.00  0.00    -0.648 OA
ENDBRANCH  25  26
ENDBRANCH  17  25
ENDBRANCH   9  17
BRANCH   3  29
HETATM   29  O3  UNL     1       0.959  11.737   2.759  1.00  0.00    -0.360 OA
ATOM     30  H3  UNL     1       1.035  12.418   3.417  1.00  0.00     0.217 HD
ENDBRANCH   3  29
BRANCH   1  31
HETATM   31  O2  UNL     1      -3.828  11.573   2.933  1.00  0.00    -0.349 OA
BRANCH  31  32
HETATM   32  C6  UNL     1      -4.118  11.479   4.269  1.00  0.00     0.182 C
BRANCH  32  33
HETATM   33  C4  UNL     1      -4.306  10.159   4.904  1.00  0.00     0.035 C
HETATM   34  C5  UNL     1      -4.866  10.278   6.328  1.00  0.00     0.015 C
BRANCH  33  35
HETATM   35  C3  UNL     1      -4.919   9.020   4.212  1.00  0.00     0.123 C
BRANCH  35  36
HETATM   36  C2  UNL     1      -3.790   7.992   3.897  1.00  0.00     0.027 C
HETATM   37  C1  UNL     1      -3.651   7.973   2.375  1.00  0.00     0.007 C
ENDBRANCH  35  36
BRANCH  35  38
HETATM   38  O1  UNL     1      -5.804   8.372   5.129  1.00  0.00    -0.395 OA
ATOM     39  H1  UNL     1      -6.626   8.847   5.084  1.00  0.00     0.210 HD
ENDBRANCH  35  38
ENDBRANCH  33  35
ENDBRANCH  32  33
ENDBRANCH  31  32
ENDBRANCH   1  31
TORSDOF 12
ENDMDL