MODEL 2
REMARK VINA RESULT: -6.806416222      2.488      3.696
REMARK  8 active torsions:
REMARK  status: ('A' for Active; 'I' for Inactive)
REMARK    1  A    between atoms: O1_2  and  N1_3
REMARK    2  A    between atoms: C2_5  and  C3_7
REMARK    3  A    between atoms: C9_15  and  C10_16
REMARK    4  A    between atoms: C15_22  and  C16_23
REMARK    5  A    between atoms: C24_31  and  C25_32
REMARK    6  A    between atoms: C25_32  and  C26_33
REMARK    7  A    between atoms: C26_33  and  N3_34
REMARK    8  A    between atoms: N3_34  and  C27_36
ROOT
HETATM    1  C3  UNL     1      -4.100  11.102   2.020  1.00  0.00     0.034 A
HETATM    2  C4  UNL     1      -2.879  11.198   2.664  1.00  0.00     0.054 A
HETATM    3  C5  UNL     1      -1.671  11.220   2.012  1.00  0.00     0.080 A
HETATM    4  C6  UNL     1      -1.651  11.139   0.608  1.00  0.00     0.025 A
HETATM    5  C7  UNL     1      -2.835  11.043  -0.050  1.00  0.00     0.148 A
HETATM    6  F1  UNL     1      -2.832  10.962  -1.419  1.00  0.00    -0.204 F
HETATM    7  C8  UNL     1      -4.033  11.024   0.645  1.00  0.00     0.086 A
HETATM    8 CL1  UNL     1      -5.531  10.900  -0.251  1.00  0.00    -0.080 Cl
HETATM    9  C9  UNL     1      -0.301  11.179  -0.011  1.00  0.00     0.067 C
HETATM   10  C14 UNL     1       0.418  12.319   0.734  1.00  0.00     0.052 C
HETATM   11  C15 UNL     1       0.641  12.005   2.172  1.00  0.00     0.163 C
HETATM   12  O2  UNL     1      -0.462  11.319   2.699  1.00  0.00    -0.341 OA
ENDROOT
BRANCH  11  13
HETATM   13  C16 UNL     1       1.922  11.362   2.482  1.00  0.00    -0.028 A
HETATM   14  C17 UNL     1       1.958  10.184   3.184  1.00  0.00     0.012 A
HETATM   15  C18 UNL     1       3.152   9.551   3.497  1.00  0.00     0.030 A
HETATM   16  C19 UNL     1       4.359  10.109   3.101  1.00  0.00     0.034 A
HETATM   17  C20 UNL     1       4.326  11.291   2.396  1.00  0.00    -0.031 A
HETATM   18  N4  UNL     1       5.596   9.525   3.394  1.00  0.00    -0.385 N
HETATM   19  C21 UNL     1       3.108  11.914   2.089  1.00  0.00     0.019 A
HETATM   20  C22 UNL     1       5.617  11.877   1.966  1.00  0.00     0.043 C
HETATM   21  C23 UNL     1       6.737  11.663   2.922  1.00  0.00     0.030 C
HETATM   22  C24 UNL     1       6.755  10.346   3.622  1.00  0.00     0.083 C
ATOM     23  H4  UNL     1       5.676   8.510   3.448  1.00  0.00     0.160 HD
BRANCH  22  24
HETATM   24  C25 UNL     1       8.059   9.593   3.456  1.00  0.00     0.044 C
BRANCH  24  25
HETATM   25  C26 UNL     1       8.672   9.749   2.109  1.00  0.00     0.116 C
BRANCH  25  26
HETATM   26  N3  UNL     1       8.904   8.455   1.519  1.00  0.00    -0.417 N
ATOM     27  H3  UNL     1       9.549   8.319   0.740  1.00  0.00     0.153 HD
BRANCH  26  28
HETATM   28  C27 UNL     1       8.173   7.378   2.096  1.00  0.00     0.076 C
HETATM   29  C28 UNL     1       7.030   6.875   1.232  1.00  0.00     0.024 C
HETATM   30  C29 UNL     1       7.565   6.306  -0.081  1.00  0.00     0.002 C
HETATM   31  C30 UNL     1       8.482   5.146   0.188  1.00  0.00     0.000 C
HETATM   32  C31 UNL     1       9.588   5.571   1.099  1.00  0.00     0.002 C
HETATM   33  C32 UNL     1       9.042   6.166   2.372  1.00  0.00     0.024 C
ENDBRANCH  26  28
ENDBRANCH  25  26
ENDBRANCH  24  25
ENDBRANCH  22  24
ENDBRANCH  11  13
BRANCH   9  34
HETATM   34  C10 UNL     1      -0.295  11.565  -1.447  1.00  0.00    -0.009 A
HETATM   35  C11 UNL     1      -0.116  10.769  -2.546  1.00  0.00     0.016 A
HETATM   36  C12 UNL     1      -0.171  11.340  -3.758  1.00  0.00     0.008 A
HETATM   37  C13 UNL     1      -0.406  12.692  -3.804  1.00  0.00     0.050 A
HETATM   38  S1  UNL     1      -0.540  13.117  -2.163  1.00  0.00    -0.106 SA
ENDBRANCH   9  34
BRANCH   1  39
HETATM   39  C2  UNL     1      -5.361  11.084   2.745  1.00  0.00     0.148 C
HETATM   40  N1  UNL     1      -5.583  10.184   3.630  1.00  0.00    -0.253 N
ATOM     41  H1  UNL     1      -4.863   9.484   3.808  1.00  0.00     0.195 HD
HETATM   42  N2  UNL     1      -6.353  12.058   2.493  1.00  0.00    -0.080 NA
BRANCH  40  43
HETATM   43  O1  UNL     1      -6.756  10.121   4.352  1.00  0.00    -0.284 OA
HETATM   44  C1  UNL     1      -6.760   9.776   5.731  1.00  0.00     0.237 C
ENDBRANCH  40  43
ENDBRANCH   1  39
TORSDOF 8
ENDMDL