MODEL 1
REMARK VINA RESULT: -6.649070567      0.000      0.000
REMARK  9 active torsions:
REMARK  status: ('A' for Active; 'I' for Inactive)
REMARK    1  A    between atoms: C2_2  and  C4_4
REMARK    2  A    between atoms: C2_2  and  C12_17
REMARK    3  A    between atoms: C4_4  and  N1_5
REMARK    4  A    between atoms: N1_5  and  C5_7
REMARK    5  A    between atoms: C8_10  and  O1_11
REMARK    6  A    between atoms: O1_11  and  C9_12
REMARK    7  A    between atoms: C18_23  and  C20_25
REMARK    8  A    between atoms: C20_25  and  C21_26
REMARK    9  A    between atoms: C25_33  and  O5_34
ROOT
HETATM    1  C12 UNL     1       1.551  12.436   1.460  1.00  0.00    -0.065 C
HETATM    2  C13 UNL     1       1.140  12.354   2.732  1.00  0.00    -0.022 C
HETATM    3  C14 UNL     1      -0.255  11.869   2.848  1.00  0.00     0.040 C
HETATM    4  C15 UNL     1      -0.457  11.206   1.539  1.00  0.00     0.058 C
HETATM    5  C16 UNL     1      -1.793  11.013   1.061  1.00  0.00     0.050 C
HETATM    6  C17 UNL     1      -2.387  10.478   2.060  1.00  0.00     0.023 C
HETATM    7  C18 UNL     1      -3.818  10.015   2.245  1.00  0.00     0.046 C
HETATM    8  C19 UNL     1      -3.747   8.508   2.275  1.00  0.00     0.028 C
HETATM    9  C22 UNL     1      -4.583  10.539   1.063  1.00  0.00     0.144 C
HETATM   10  O4  UNL     1      -5.263   9.565   0.669  1.00  0.00    -0.296 OA
HETATM   11  C23 UNL     1      -4.887  11.644   0.175  1.00  0.00     0.069 C
HETATM   12  C24 UNL     1      -6.320  12.079   0.374  1.00  0.00     0.044 C
HETATM   13  C25 UNL     1      -6.554  13.013   1.493  1.00  0.00     0.119 C
HETATM   14  C26 UNL     1      -5.529  14.034   1.784  1.00  0.00     0.032 C
HETATM   15  C27 UNL     1      -4.136  13.703   1.381  1.00  0.00     0.015 C
HETATM   16  C28 UNL     1      -4.058  12.870   0.145  1.00  0.00    -0.007 C
HETATM   17  C29 UNL     1      -4.762  13.762  -0.926  1.00  0.00     0.018 C
HETATM   18  C30 UNL     1      -2.671  12.730  -0.412  1.00  0.00     0.137 C
HETATM   19  C31 UNL     1      -1.635  13.613   0.268  1.00  0.00     0.034 C
HETATM   20  C32 UNL     1      -0.252  13.191  -0.025  1.00  0.00     0.017 C
HETATM   21  C33 UNL     1       0.391  12.060   0.619  1.00  0.00    -0.010 C
HETATM   22  C34 UNL     1       0.847  11.073  -0.487  1.00  0.00     0.021 C
HETATM   23  O6  UNL     1      -2.281  11.358  -0.223  1.00  0.00    -0.349 OA
ENDROOT
BRANCH   1  24
HETATM   24  C2  UNL     1       2.924  12.893   1.071  1.00  0.00    -0.008 C
HETATM   25  C1  UNL     1       3.970  11.808   1.080  1.00  0.00     0.021 C
HETATM   26  C3  UNL     1       2.915  13.682  -0.189  1.00  0.00     0.021 C
BRANCH  24  27
HETATM   27  C4  UNL     1       3.409  13.880   2.162  1.00  0.00     0.133 C
BRANCH  27  28
HETATM   28  N1  UNL     1       2.883  15.199   1.858  1.00  0.00    -0.389 N
ATOM     29  H1  UNL     1       3.132  15.645   0.975  1.00  0.00     0.159 HD
BRANCH  28  30
HETATM   30  C5  UNL     1       2.032  15.879   2.763  1.00  0.00     0.028 A
HETATM   31  C6  UNL     1       2.508  16.446   3.907  1.00  0.00     0.032 A
HETATM   32  C7  UNL     1       1.667  17.101   4.770  1.00  0.00     0.039 A
HETATM   33  C8  UNL     1       0.292  17.216   4.516  1.00  0.00     0.075 A
HETATM   34  C10 UNL     1      -0.184  16.647   3.367  1.00  0.00     0.039 A
HETATM   35  C11 UNL     1       0.692  15.992   2.516  1.00  0.00     0.032 A
BRANCH  33  36
HETATM   36  O1  UNL     1      -0.532  17.869   5.380  1.00  0.00    -0.290 OA
BRANCH  36  37
HETATM   37  C9  UNL     1      -1.875  18.117   5.186  1.00  0.00     0.505 C
HETATM   38  F1  UNL     1      -2.625  16.948   5.415  1.00  0.00    -0.184 F
HETATM   39  F2  UNL     1      -2.314  19.002   6.186  1.00  0.00    -0.184 F
ENDBRANCH  36  37
ENDBRANCH  33  36
ENDBRANCH  28  30
ENDBRANCH  27  28
ENDBRANCH  24  27
ENDBRANCH   1  24
BRANCH   7  40
HETATM   40  C20 UNL     1      -4.329  10.464   3.576  1.00  0.00     0.134 C
BRANCH  40  41
HETATM   41  C21 UNL     1      -5.599   9.882   3.957  1.00  0.00     0.173 C
HETATM   42  O2  UNL     1      -6.712  10.276   3.594  1.00  0.00    -0.648 OA
HETATM   43  O3  UNL     1      -5.612   8.759   4.819  1.00  0.00    -0.648 OA
ENDBRANCH  40  41
ENDBRANCH   7  40
BRANCH  13  44
HETATM   44  O5  UNL     1      -7.748  13.722   1.157  1.00  0.00    -0.396 OA
ATOM     45  H5  UNL     1      -8.385  13.475   1.817  1.00  0.00     0.210 HD
ENDBRANCH  13  44
TORSDOF 9
ENDMDL