MODEL 3
REMARK VINA RESULT: -6.428584040      0.830      1.391
REMARK  11 active torsions:
REMARK  status: ('A' for Active; 'I' for Inactive)
REMARK    1  A    between atoms: C2_2  and  C3_3
REMARK    2  A    between atoms: C3_3  and  O1_4
REMARK    3  A    between atoms: C3_3  and  C4_6
REMARK    4  A    between atoms: C4_6  and  C5_7
REMARK    5  A    between atoms: C8_10  and  C9_11
REMARK    6  A    between atoms: C11_15  and  N2_16
REMARK    7  A    between atoms: C12_19  and  C13_20
REMARK    8  A    between atoms: C16_24  and  O2_25
REMARK    9  A    between atoms: O2_25  and  C17_26
REMARK   10  A    between atoms: C17_26  and  C18_27
REMARK   11  A    between atoms: C19_28  and  C20_29
ROOT
HETATM    1  C13 UNL     1       1.420  11.387  -3.244  1.00  0.00     0.036 A
HETATM    2  C14 UNL     1       1.724  12.419  -2.384  1.00  0.00     0.062 A
HETATM    3  C15 UNL     1       1.138  12.540  -1.156  1.00  0.00     0.151 A
HETATM    4  F1  UNL     1       1.447  13.568  -0.310  1.00  0.00    -0.203 F
HETATM    5  C16 UNL     1       0.183  11.607  -0.698  1.00  0.00     0.116 A
HETATM    6  C31 UNL     1      -0.111  10.561  -1.596  1.00  0.00     0.083 A
HETATM    7  C32 UNL     1       0.485  10.460  -2.813  1.00  0.00     0.131 A
HETATM    8  F2  UNL     1       0.198   9.451  -3.675  1.00  0.00    -0.205 F
ENDROOT
BRANCH   1   9
HETATM    9  C12 UNL     1       2.084  11.260  -4.526  1.00  0.00     0.090 A
HETATM   10  C11 UNL     1       1.448  11.706  -5.659  1.00  0.00     0.127 A
HETATM   11  N1  UNL     1       2.140  11.557  -6.835  1.00  0.00    -0.349 N
HETATM   12  C10 UNL     1       3.356  11.014  -6.896  1.00  0.00     0.115 A
ATOM     13  H1  UNL     1       1.705  11.875  -7.701  1.00  0.00     0.167 HD
HETATM   14  C9  UNL     1       3.977  10.572  -5.758  1.00  0.00     0.029 A
HETATM   15  N4  UNL     1       3.323  10.707  -4.605  1.00  0.00    -0.354 N
ATOM     16  H4  UNL     1       3.770  10.384  -3.747  1.00  0.00     0.166 HD
BRANCH  10  17
HETATM   17  N2  UNL     1       0.271  12.225  -5.694  1.00  0.00    -0.384 N
ATOM     18  H22 UNL     1      -0.199  12.559  -6.535  1.00  0.00     0.157 HD
ATOM     19  H21 UNL     1      -0.245  12.332  -4.820  1.00  0.00     0.157 HD
ENDBRANCH  10  17
BRANCH  14  20
HETATM   20  C8  UNL     1       5.323   9.982  -5.845  1.00  0.00     0.037 C
HETATM   21  C7  UNL     1       5.333   8.498  -5.793  1.00  0.00     0.011 C
HETATM   22  C6  UNL     1       6.043   7.820  -6.917  1.00  0.00     0.005 C
HETATM   23  C5  UNL     1       7.392   8.431  -7.249  1.00  0.00    -0.012 C
HETATM   24  C34 UNL     1       7.423   9.898  -7.214  1.00  0.00     0.005 C
HETATM   25  C33 UNL     1       6.086  10.558  -7.016  1.00  0.00     0.011 C
BRANCH  23  26
HETATM   26  C4  UNL     1       8.535   7.641  -6.752  1.00  0.00     0.036 C
BRANCH  26  27
HETATM   27  C3  UNL     1       8.715   7.362  -5.333  1.00  0.00     0.118 C
BRANCH  27  28
HETATM   28  C2  UNL     1       9.358   8.381  -4.446  1.00  0.00     0.027 C
HETATM   29  C1  UNL     1       8.365   9.225  -3.673  1.00  0.00     0.007 C
ENDBRANCH  27  28
BRANCH  27  30
HETATM   30  O1  UNL     1       9.461   6.163  -5.183  1.00  0.00    -0.396 OA
ATOM     31  H1  UNL     1      10.013   6.087  -5.953  1.00  0.00     0.210 HD
ENDBRANCH  27  30
ENDBRANCH  26  27
ENDBRANCH  23  26
ENDBRANCH  14  20
ENDBRANCH   1   9
BRANCH   5  32
HETATM   32  O2  UNL     1      -0.375  11.721   0.476  1.00  0.00    -0.319 OA
BRANCH  32  33
HETATM   33  C17 UNL     1      -0.923  11.831   1.630  1.00  0.00     0.156 C
BRANCH  33  34
HETATM   34  C18 UNL     1      -2.313  11.945   2.031  1.00  0.00     0.017 A
HETATM   35  C19 UNL     1      -2.922  13.196   1.843  1.00  0.00     0.029 A
HETATM   36  N3  UNL     1      -4.258  13.285   2.152  1.00  0.00    -0.367 N
HETATM   37  C24 UNL     1      -4.986  12.279   2.610  1.00  0.00     0.103 A
ATOM     38  H3  UNL     1      -4.719  14.185   2.020  1.00  0.00     0.165 HD
HETATM   39  C25 UNL     1      -4.405  11.034   2.805  1.00  0.00     0.032 A
HETATM   40  C26 UNL     1      -3.078  10.868   2.515  1.00  0.00    -0.029 A
HETATM   41  C30 UNL     1      -5.198   9.937   3.341  1.00  0.00     0.161 C
HETATM   42  C27 UNL     1      -2.477   9.532   2.636  1.00  0.00     0.041 C
HETATM   43  C28 UNL     1      -3.432   8.368   2.745  1.00  0.00     0.012 C
HETATM   44  C29 UNL     1      -4.571   8.637   3.707  1.00  0.00     0.084 C
HETATM   45  O3  UNL     1      -6.427  10.072   3.500  1.00  0.00    -0.292 OA
BRANCH  35  46
HETATM   46  C20 UNL     1      -2.198  14.394   1.419  1.00  0.00    -0.008 C
HETATM   47  C21 UNL     1      -3.166  15.573   1.841  1.00  0.00     0.021 C
HETATM   48  C22 UNL     1      -2.007  14.621  -0.033  1.00  0.00     0.021 C
HETATM   49  C23 UNL     1      -0.972  14.726   2.275  1.00  0.00     0.021 C
ENDBRANCH  35  46
ENDBRANCH  33  34
ENDBRANCH  32  33
ENDBRANCH   5  32
TORSDOF 11
ENDMDL