MODEL 5
REMARK VINA RESULT: -6.251781731      4.469      8.265
REMARK  10 active torsions:
REMARK  status: ('A' for Active; 'I' for Inactive)
REMARK    1  A    between atoms: C4_4  and  C5_5
REMARK    2  A    between atoms: C5_5  and  C6_6
REMARK    3  A    between atoms: C7_7  and  O1_8
REMARK    4  A    between atoms: C8_10  and  C9_11
REMARK    5  A    between atoms: C10_12  and  C11_13
REMARK       I    between atoms: C11_13  and  N1_15
REMARK    6  A    between atoms: N1_15  and  C12_17
REMARK    7  A    between atoms: C12_17  and  C14_19
REMARK    8  A    between atoms: C21_28  and  C22_29
REMARK    9  A    between atoms: C23_33  and  C24_34
REMARK   10  A    between atoms: C34_45  and  O5_46
ROOT
HETATM    1  C6  UNL     1      -5.254  11.416   1.546  1.00  0.00     0.013 A
HETATM    2  C7  UNL     1      -3.870  11.365   1.473  1.00  0.00     0.085 A
HETATM    3  C8  UNL     1      -3.063  10.906   2.485  1.00  0.00    -0.001 A
HETATM    4  C20 UNL     1      -3.780  10.483   3.639  1.00  0.00     0.033 A
HETATM    5  C21 UNL     1      -5.131  10.520   3.743  1.00  0.00     0.051 A
HETATM    6  C34 UNL     1      -5.876  10.978   2.717  1.00  0.00     0.089 A
ENDROOT
BRANCH   3   7
HETATM    7  C9  UNL     1      -1.647  10.682   2.453  1.00  0.00     0.020 C
HETATM    8  C10 UNL     1      -0.576  11.097   1.930  1.00  0.00     0.075 C
BRANCH   8   9
HETATM    9  C11 UNL     1      -0.177  12.095   0.994  1.00  0.00     0.241 C
HETATM   10  O2  UNL     1       0.438  13.131   1.271  1.00  0.00    -0.269 OA
HETATM   11  N1  UNL     1      -0.488  11.941  -0.424  1.00  0.00    -0.353 N
ATOM     12  H1  UNL     1      -0.993  11.109  -0.730  1.00  0.00     0.163 HD
BRANCH  11  13
HETATM   13  C12 UNL     1      -0.109  12.913  -1.394  1.00  0.00     0.084 C
HETATM   14  C13 UNL     1      -1.320  13.675  -1.873  1.00  0.00     0.032 C
BRANCH  13  15
HETATM   15  C14 UNL     1       0.574  12.245  -2.554  1.00  0.00     0.008 C
HETATM   16  C15 UNL     1      -0.353  12.055  -3.730  1.00  0.00     0.012 C
HETATM   17  C16 UNL     1       0.477  11.646  -4.929  1.00  0.00     0.079 C
HETATM   18  C17 UNL     1       1.118  10.311  -4.617  1.00  0.00     0.243 C
HETATM   19  F1  UNL     1       0.118   9.344  -4.579  1.00  0.00    -0.206 F
HETATM   20  F2  UNL     1       1.989   9.952  -5.647  1.00  0.00    -0.206 F
HETATM   21  C18 UNL     1       1.909  10.340  -3.351  1.00  0.00     0.079 C
HETATM   22  C19 UNL     1       1.189  10.931  -2.180  1.00  0.00     0.012 C
ENDBRANCH  13  15
ENDBRANCH  11  13
ENDBRANCH   8   9
ENDBRANCH   3   7
BRANCH   2  23
HETATM   23  O1  UNL     1      -3.291  11.824   0.298  1.00  0.00    -0.359 OA
ATOM     24  H1  UNL     1      -3.800  12.440  -0.215  1.00  0.00     0.217 HD
ENDBRANCH   2  23
BRANCH   1  25
HETATM   25  C5  UNL     1      -6.043  11.950   0.410  1.00  0.00     0.072 C
BRANCH  25  26
HETATM   26  C4  UNL     1      -6.485  10.867  -0.515  1.00  0.00    -0.020 C
HETATM   27  C2  UNL     1      -6.204  10.831  -1.807  1.00  0.00    -0.091 C
HETATM   28  C1  UNL     1      -6.745   9.641  -2.577  1.00  0.00     0.042 C
HETATM   29  C3  UNL     1      -5.428  11.867  -2.531  1.00  0.00     0.042 C
ENDBRANCH  25  26
ENDBRANCH   1  25
BRANCH   5  30
HETATM   30  C22 UNL     1      -5.738  10.048   5.004  1.00  0.00     0.178 C
HETATM   31  N2  UNL     1      -5.261  10.043   6.172  1.00  0.00    -0.241 N
HETATM   32  O3  UNL     1      -6.115   9.524   7.105  1.00  0.00    -0.244 OA
ATOM     33  H2  UNL     1      -4.329  10.391   6.398  1.00  0.00     0.196 HD
HETATM   34  C23 UNL     1      -7.194   8.985   6.378  1.00  0.00     0.305 C
HETATM   35  O4  UNL     1      -7.027   9.495   5.102  1.00  0.00    -0.299 OA
BRANCH  34  36
HETATM   36  C24 UNL     1      -8.465   9.442   7.052  1.00  0.00     0.013 C
HETATM   37  C25 UNL     1      -9.370   8.234   7.181  1.00  0.00     0.019 C
HETATM   38  C26 UNL     1     -10.650   8.585   7.912  1.00  0.00    -0.013 C
HETATM   39  C27 UNL     1     -10.279   9.067   9.305  1.00  0.00     0.009 C
HETATM   40  C31 UNL     1     -11.368   9.707   7.218  1.00  0.00     0.009 C
HETATM   41  C28 UNL     1      -9.409  10.286   9.197  1.00  0.00    -0.013 C
HETATM   42  C29 UNL     1     -10.084  11.397   8.430  1.00  0.00     0.009 C
HETATM   43  C33 UNL     1      -8.148   9.906   8.461  1.00  0.00     0.019 C
HETATM   44  C30 UNL     1     -10.432  10.872   7.061  1.00  0.00    -0.013 C
HETATM   45  C32 UNL     1      -9.187  10.496   6.283  1.00  0.00     0.019 C
ENDBRANCH  34  36
ENDBRANCH   5  30
BRANCH   6  46
HETATM   46  O5  UNL     1      -7.246  11.061   2.698  1.00  0.00    -0.359 OA
ATOM     47  H5  UNL     1      -7.673  10.697   3.464  1.00  0.00     0.217 HD
ENDBRANCH   6  46
TORSDOF 10
ENDMDL