MODEL 5
REMARK VINA RESULT: -5.545757035      5.240      8.469
REMARK  12 active torsions:
REMARK  status: ('A' for Active; 'I' for Inactive)
REMARK    1  A    between atoms: C2_2  and  O2_4
REMARK    2  A    between atoms: O2_4  and  C3_5
REMARK    3  A    between atoms: C22_26  and  C24_28
REMARK    4  A    between atoms: C24_28  and  C25_29
REMARK    5  A    between atoms: C25_29  and  C27_31
REMARK    6  A    between atoms: C27_31  and  O3_32
REMARK    7  A    between atoms: C28_34  and  C29_35
REMARK    8  A    between atoms: C29_35  and  C30_36
REMARK    9  A    between atoms: C30_36  and  O4_37
REMARK   10  A    between atoms: C30_36  and  C31_39
REMARK   11  A    between atoms: C31_39  and  C33_41
REMARK   12  A    between atoms: C33_41  and  O5_42
ROOT
HETATM    1  C3  UNL     1       8.838   6.881  -0.167  1.00  0.00     0.142 C
HETATM    2  C4  UNL     1       9.193   5.721   0.838  1.00  0.00     0.038 C
HETATM    3  C5  UNL     1       8.579   5.892   2.160  1.00  0.00     0.039 C
HETATM    4  C6  UNL     1       8.390   7.301   2.526  1.00  0.00    -0.053 C
HETATM    5  C7  UNL     1       7.885   7.395   3.770  1.00  0.00    -0.079 C
HETATM    6  C8  UNL     1       7.644   6.115   4.475  1.00  0.00     0.043 C
HETATM    7  C9  UNL     1       7.501   8.628   4.541  1.00  0.00     0.034 C
HETATM    8  C10 UNL     1       6.371   9.314   3.768  1.00  0.00     0.010 C
HETATM    9  C11 UNL     1       6.277   8.793   2.376  1.00  0.00     0.004 C
HETATM   10  C12 UNL     1       4.987   9.263   1.710  1.00  0.00     0.021 C
HETATM   11  C13 UNL     1       4.750   8.378   0.516  1.00  0.00     0.015 C
HETATM   12  C14 UNL     1       5.123  10.717   1.321  1.00  0.00    -0.031 C
HETATM   13  C15 UNL     1       4.084  11.304   0.778  1.00  0.00    -0.079 C
HETATM   14  C16 UNL     1       2.817  10.542   0.564  1.00  0.00     0.043 C
HETATM   15  C17 UNL     1       4.072  12.714   0.322  1.00  0.00     0.043 C
HETATM   16  C18 UNL     1       6.390  11.382   1.603  1.00  0.00     0.037 C
HETATM   17 CL1  UNL     1       6.445  13.098   1.856  1.00  0.00    -0.084 Cl
HETATM   18  C19 UNL     1       7.533  10.702   1.695  1.00  0.00     0.005 C
HETATM   19  C20 UNL     1       7.427   9.236   1.491  1.00  0.00     0.043 C
HETATM   20  C21 UNL     1       8.693   8.478   1.695  1.00  0.00     0.077 C
HETATM   21 CL2  UNL     1       9.897   9.449   2.576  1.00  0.00    -0.113 Cl
HETATM   22  C22 UNL     1       9.390   8.089   0.360  1.00  0.00     0.009 C
HETATM   23  C23 UNL     1      10.846   7.748   0.867  1.00  0.00     0.020 C
ENDROOT
BRANCH  22  24
HETATM   24  C24 UNL     1       9.597   9.369  -0.325  1.00  0.00     0.025 C
BRANCH  24  25
HETATM   25  C25 UNL     1       9.440   9.604  -1.747  1.00  0.00     0.039 C
HETATM   26  C26 UNL     1      10.237   8.774  -2.692  1.00  0.00     0.017 C
BRANCH  25  27
HETATM   27  C27 UNL     1       8.018   9.516  -2.263  1.00  0.00     0.043 C
HETATM   28  C28 UNL     1       7.091  10.387  -2.044  1.00  0.00     0.008 C
BRANCH  27  29
HETATM   29  O3  UNL     1       7.780   8.386  -3.019  1.00  0.00    -0.365 OA
ATOM     30  H3  UNL     1       8.256   7.622  -2.716  1.00  0.00     0.217 HD
ENDBRANCH  27  29
BRANCH  28  31
HETATM   31  C29 UNL     1       5.711  10.394  -2.485  1.00  0.00     0.061 C
BRANCH  31  32
HETATM   32  C30 UNL     1       5.411  10.765  -3.897  1.00  0.00     0.127 C
BRANCH  32  33
HETATM   33  O4  UNL     1       5.935   9.786  -4.747  1.00  0.00    -0.395 OA
ATOM     34  H4  UNL     1       5.457   8.975  -4.616  1.00  0.00     0.210 HD
ENDBRANCH  32  33
BRANCH  32  35
HETATM   35  C31 UNL     1       3.919  10.786  -4.165  1.00  0.00     0.034 C
HETATM   36  C32 UNL     1       3.102  10.342  -2.989  1.00  0.00     0.015 C
BRANCH  35  37
HETATM   37  C33 UNL     1       3.532  10.038  -5.422  1.00  0.00     0.170 C
BRANCH  37  38
HETATM   38  O5  UNL     1       3.368   8.673  -5.090  1.00  0.00    -0.400 OA
ATOM     39  H5  UNL     1       3.294   8.178  -5.897  1.00  0.00     0.209 HD
ENDBRANCH  37  38
ENDBRANCH  35  37
ENDBRANCH  32  35
ENDBRANCH  31  32
ENDBRANCH  28  31
ENDBRANCH  25  27
ENDBRANCH  24  25
ENDBRANCH  22  24
BRANCH   1  40
HETATM   40  O2  UNL     1       9.310   6.306  -1.346  1.00  0.00    -0.315 OA
BRANCH  40  41
HETATM   41  C2  UNL     1       8.651   5.196  -1.912  1.00  0.00     0.255 C
HETATM   42  C1  UNL     1       9.349   3.914  -1.961  1.00  0.00     0.126 C
HETATM   43  O1  UNL     1       7.506   5.343  -2.346  1.00  0.00    -0.266 OA
ENDBRANCH  40  41
ENDBRANCH   1  40
TORSDOF 12
ENDMDL