MODEL 4
REMARK VINA RESULT: -5.633389744      5.532      9.717
REMARK  12 active torsions:
REMARK  status: ('A' for Active; 'I' for Inactive)
REMARK    1  A    between atoms: C2_2  and  C3_3
REMARK    2  A    between atoms: C2_2  and  C26_34
REMARK    3  A    between atoms: C3_3  and  O1_4
REMARK    4  A    between atoms: C3_3  and  C4_6
REMARK    5  A    between atoms: C4_6  and  C5_7
REMARK    6  A    between atoms: C9_11  and  C10_12
REMARK    7  A    between atoms: C10_12  and  S1_15
REMARK    8  A    between atoms: S1_15  and  C11_16
REMARK    9  A    between atoms: C14_19  and  C15_20
REMARK   10  A    between atoms: C21_26  and  O2_27
REMARK   11  A    between atoms: C28_36  and  O4_37
REMARK   12  A    between atoms: C30_40  and  O5_41
ROOT
HETATM    1  C5  UNL     1      -0.578  12.130  -2.262  1.00  0.00    -0.003 A
HETATM    2  C6  UNL     1      -0.175  12.024  -3.602  1.00  0.00     0.022 A
HETATM    3  C7  UNL     1       1.051  11.579  -3.898  1.00  0.00    -0.043 A
HETATM    4  C8  UNL     1       1.960  11.208  -2.873  1.00  0.00     0.032 A
HETATM    5  C9  UNL     1       1.624  11.284  -1.558  1.00  0.00     0.072 A
HETATM    6  C21 UNL     1       0.316  11.760  -1.291  1.00  0.00     0.089 A
HETATM    7  C22 UNL     1       3.286  10.780  -3.303  1.00  0.00     0.161 C
HETATM    8  O3  UNL     1       4.257  11.220  -2.639  1.00  0.00    -0.292 OA
HETATM    9  C23 UNL     1       3.396   9.874  -4.477  1.00  0.00     0.084 C
HETATM   10  C24 UNL     1       2.115   9.940  -5.268  1.00  0.00     0.012 C
HETATM   11  C25 UNL     1       1.618  11.381  -5.287  1.00  0.00     0.040 C
ENDROOT
BRANCH   1  12
HETATM   12  C4  UNL     1      -1.904  12.642  -1.989  1.00  0.00     0.023 C
BRANCH  12  13
HETATM   13  C3  UNL     1      -3.083  11.820  -1.715  1.00  0.00     0.170 C
BRANCH  13  14
HETATM   14  C2  UNL     1      -3.917  11.913  -0.551  1.00  0.00    -0.053 C
HETATM   15  C1  UNL     1      -4.937  12.732  -0.431  1.00  0.00     0.017 C
BRANCH  14  16
HETATM   16  C26 UNL     1      -3.691  11.062   0.673  1.00  0.00     0.025 C
HETATM   17  C27 UNL     1      -3.321  11.944   1.849  1.00  0.00     0.041 C
HETATM   18  C28 UNL     1      -2.644  11.110   2.930  1.00  0.00     0.121 C
HETATM   19  C29 UNL     1      -3.221   9.729   3.009  1.00  0.00     0.064 C
HETATM   20  C30 UNL     1      -4.665   9.681   2.477  1.00  0.00     0.127 C
HETATM   21  C32 UNL     1      -4.649   9.988   0.961  1.00  0.00     0.019 C
HETATM   22  C33 UNL     1      -4.189   8.644   0.360  1.00  0.00     0.013 C
BRANCH  18  23
HETATM   23  O4  UNL     1      -1.292  10.982   2.535  1.00  0.00    -0.395 OA
ATOM     24  H4  UNL     1      -1.210  10.112   2.163  1.00  0.00     0.210 HD
ENDBRANCH  18  23
BRANCH  20  25
HETATM   25  O5  UNL     1      -5.357  10.602   3.208  1.00  0.00    -0.390 OA
HETATM   26  C31 UNL     1      -5.917  10.104   4.365  1.00  0.00     0.202 C
ENDBRANCH  20  25
ENDBRANCH  14  16
ENDBRANCH  13  14
BRANCH  13  27
HETATM   27  O1  UNL     1      -3.864  11.950  -2.920  1.00  0.00    -0.387 OA
ATOM     28  H1  UNL     1      -3.463  12.568  -3.521  1.00  0.00     0.210 HD
ENDBRANCH  13  27
ENDBRANCH  12  13
ENDBRANCH   1  12
BRANCH   6  29
HETATM   29  O2  UNL     1      -0.002  11.818   0.067  1.00  0.00    -0.359 OA
ATOM     30  H2  UNL     1       0.269  11.141   0.676  1.00  0.00     0.217 HD
ENDBRANCH   6  29
BRANCH   5  31
HETATM   31  C10 UNL     1       2.630  10.984  -0.543  1.00  0.00     0.327 C
HETATM   32  F1  UNL     1       3.511  12.059  -0.315  1.00  0.00    -0.187 F
HETATM   33  F2  UNL     1       1.865  11.214   0.650  1.00  0.00    -0.187 F
BRANCH  31  34
HETATM   34  S1  UNL     1       3.266   9.417  -0.260  1.00  0.00    -0.048 SA
BRANCH  34  35
HETATM   35  C11 UNL     1       4.361   8.890   0.928  1.00  0.00     0.006 A
HETATM   36  C12 UNL     1       4.443   9.508   2.180  1.00  0.00     0.019 A
HETATM   37  C13 UNL     1       5.382   9.172   3.122  1.00  0.00     0.009 A
HETATM   38  C14 UNL     1       6.316   8.186   2.886  1.00  0.00    -0.051 A
HETATM   39  C19 UNL     1       6.254   7.559   1.661  1.00  0.00     0.009 A
HETATM   40  C20 UNL     1       5.325   7.882   0.711  1.00  0.00     0.019 A
BRANCH  38  41
HETATM   41  C15 UNL     1       7.365   7.819   3.872  1.00  0.00    -0.024 C
HETATM   42  C16 UNL     1       6.901   8.121   5.261  1.00  0.00     0.019 C
HETATM   43  C17 UNL     1       7.799   6.379   3.698  1.00  0.00     0.019 C
HETATM   44  C18 UNL     1       8.618   8.678   3.645  1.00  0.00     0.019 C
ENDBRANCH  38  41
ENDBRANCH  34  35
ENDBRANCH  31  34
ENDBRANCH   5  31
TORSDOF 12
ENDMDL