MODEL 1
REMARK VINA RESULT: -5.169566642      0.000      0.000
REMARK  12 active torsions:
REMARK  status: ('A' for Active; 'I' for Inactive)
REMARK    1  A    between atoms: C2_2  and  C3_3
REMARK    2  A    between atoms: C7_8  and  O2_9
REMARK    3  A    between atoms: C11_14  and  O3_15
REMARK    4  A    between atoms: O3_15  and  C12_16
REMARK    5  A    between atoms: C12_16  and  C13_18
REMARK    6  A    between atoms: C13_18  and  C14_19
REMARK    7  A    between atoms: C14_19  and  C15_20
REMARK    8  A    between atoms: C15_20  and  C16_21
REMARK    9  A    between atoms: C16_21  and  C17_22
REMARK   10  A    between atoms: C17_22  and  C18_23
REMARK   11  A    between atoms: C21_26  and  O5_28
REMARK   12  A    between atoms: C23_30  and  O6_31
ROOT
HETATM    1  C3  UNL     1       2.990  11.273  -3.780  1.00  0.00     0.017 C
HETATM    2  C4  UNL     1       1.482  11.247  -3.697  1.00  0.00     0.047 C
HETATM    3  C5  UNL     1       1.494  11.071  -2.185  1.00  0.00     0.066 C
HETATM    4  C6  UNL     1       1.150   9.636  -1.875  1.00  0.00     0.046 C
HETATM    5  O1  UNL     1       1.038  12.033  -1.409  1.00  0.00    -0.343 OA
HETATM    6  C7  UNL     1      -0.160  12.290  -0.944  1.00  0.00     0.175 C
HETATM    7  C8  UNL     1      -1.317  12.031  -1.906  1.00  0.00     0.047 C
HETATM    8  C9  UNL     1      -1.972  13.302  -2.398  1.00  0.00     0.015 C
HETATM    9  C10 UNL     1      -2.346  11.249  -1.158  1.00  0.00     0.043 C
HETATM   10  C11 UNL     1      -2.096  11.696   0.280  1.00  0.00     0.144 C
HETATM   11  C20 UNL     1      -0.618  11.717   0.348  1.00  0.00     0.114 C
HETATM   12  C21 UNL     1      -0.049  12.205   1.621  1.00  0.00     0.091 C
HETATM   13  C22 UNL     1      -0.587  13.463   2.196  1.00  0.00     0.049 C
HETATM   14  C23 UNL     1       1.455  12.232   1.682  1.00  0.00     0.153 C
HETATM   15  C24 UNL     1       2.005  11.615   2.934  1.00  0.00     0.039 C
HETATM   16  C25 UNL     1       3.403  11.030   2.778  1.00  0.00    -0.015 C
HETATM   17  C26 UNL     1       4.404  12.162   2.769  1.00  0.00     0.010 C
HETATM   18  C27 UNL     1       3.560  10.018   1.715  1.00  0.00     0.026 C
HETATM   19  C28 UNL     1       4.732  10.141   0.801  1.00  0.00     0.101 C
HETATM   20 CL1  UNL     1       5.325   8.510   0.312  1.00  0.00    -0.123 Cl
HETATM   21  C29 UNL     1       4.605  10.939  -0.423  1.00  0.00     0.101 C
HETATM   22 CL2  UNL     1       6.274  11.314  -0.997  1.00  0.00    -0.123 Cl
HETATM   23  C30 UNL     1       3.834  10.307  -1.558  1.00  0.00     0.030 C
HETATM   24  C31 UNL     1       3.013  11.293  -2.302  1.00  0.00     0.029 C
ENDROOT
BRANCH  10  25
HETATM   25  O3  UNL     1      -2.798  12.862   0.460  1.00  0.00    -0.315 OA
BRANCH  25  26
HETATM   26  C12 UNL     1      -4.190  12.749   0.703  1.00  0.00     0.259 C
HETATM   27  O4  UNL     1      -4.976  13.561   0.156  1.00  0.00    -0.265 OA
BRANCH  26  28
HETATM   28  C13 UNL     1      -4.735  11.715   1.573  1.00  0.00     0.111 C
BRANCH  28  29
HETATM   29  C14 UNL     1      -4.436  12.002   3.007  1.00  0.00     0.010 C
BRANCH  29  30
HETATM   30  C15 UNL     1      -3.696  10.960   3.766  1.00  0.00     0.000 C
BRANCH  30  31
HETATM   31  C16 UNL     1      -4.614  10.184   4.694  1.00  0.00     0.000 C
BRANCH  31  32
HETATM   32  C17 UNL     1      -4.497   8.705   4.572  1.00  0.00    -0.000 C
BRANCH  32  33
HETATM   33  C18 UNL     1      -4.111   8.304   3.189  1.00  0.00    -0.005 C
HETATM   34  C19 UNL     1      -3.380   6.970   3.285  1.00  0.00     0.005 C
ENDBRANCH  32  33
ENDBRANCH  31  32
ENDBRANCH  30  31
ENDBRANCH  29  30
ENDBRANCH  28  29
ENDBRANCH  26  28
ENDBRANCH  25  26
ENDBRANCH  10  25
BRANCH   6  35
HETATM   35  O2  UNL     1      -0.198  13.702  -0.745  1.00  0.00    -0.364 OA
ATOM     36  H2  UNL     1      -0.334  13.824   0.187  1.00  0.00     0.213 HD
ENDBRANCH   6  35
BRANCH  12  37
HETATM   37  O5  UNL     1      -0.413  11.202   2.572  1.00  0.00    -0.387 OA
ATOM     38  H5  UNL     1       0.236  11.289   3.260  1.00  0.00     0.210 HD
ENDBRANCH  12  37
BRANCH  14  39
HETATM   39  O6  UNL     1       1.977  13.511   1.551  1.00  0.00    -0.393 OA
ATOM     40  H6  UNL     1       2.852  13.517   1.181  1.00  0.00     0.210 HD
ENDBRANCH  14  39
BRANCH   1  41
HETATM   41  C2  UNL     1       3.625  10.158  -4.482  1.00  0.00    -0.032 C
HETATM   42  C1  UNL     1       2.961   9.377  -5.297  1.00  0.00     0.007 C
ENDBRANCH   1  41
TORSDOF 12
ENDMDL