MODEL 4
REMARK VINA RESULT: -6.033698302      0.597      1.052
REMARK  9 active torsions:
REMARK  status: ('A' for Active; 'I' for Inactive)
REMARK    1  A    between atoms: O1_2  and  C2_3
REMARK    2  A    between atoms: C3_4  and  O2_5
REMARK    3  A    between atoms: O2_5  and  C4_6
REMARK    4  A    between atoms: C4_6  and  C5_7
REMARK    5  A    between atoms: C5_7  and  N1_8
REMARK    6  A    between atoms: C10_13  and  C11_14
REMARK    7  A    between atoms: C11_14  and  N2_15
REMARK    8  A    between atoms: N2_15  and  C12_17
REMARK    9  A    between atoms: C24_35  and  C25_36
ROOT
HETATM    1  C2  UNL     1       1.333  11.224  -4.283  1.00  0.00     0.115 A
HETATM    2  C3  UNL     1       2.188  10.501  -3.456  1.00  0.00     0.111 A
HETATM    3  C10 UNL     1       1.895  10.476  -2.134  1.00  0.00    -0.004 A
HETATM    4  C18 UNL     1       0.831  11.059  -1.505  1.00  0.00     0.025 A
HETATM    5  C19 UNL     1      -0.038  11.776  -2.324  1.00  0.00    -0.007 A
HETATM    6  C20 UNL     1       0.235  11.844  -3.675  1.00  0.00     0.040 A
HETATM    7  C21 UNL     1      -0.763  12.702  -4.327  1.00  0.00     0.067 A
HETATM    8  N3  UNL     1      -0.851  13.163  -5.511  1.00  0.00    -0.396 N
ATOM      9  H31 UNL     1      -1.545  13.759  -5.964  1.00  0.00     0.156 HD
ATOM     10  H32 UNL     1      -0.197  12.845  -6.226  1.00  0.00     0.156 HD
HETATM   11  C22 UNL     1      -1.708  13.160  -3.296  1.00  0.00     0.064 A
HETATM   12  N4  UNL     1      -2.710  13.919  -3.465  1.00  0.00    -0.397 N
ATOM     13  H41 UNL     1      -3.364  14.236  -2.750  1.00  0.00     0.156 HD
ATOM     14  H42 UNL     1      -3.036  14.329  -4.341  1.00  0.00     0.156 HD
HETATM   15  C23 UNL     1      -1.233  12.562  -2.022  1.00  0.00     0.005 A
HETATM   16  C24 UNL     1      -1.884  12.602  -0.916  1.00  0.00     0.029 C
ENDROOT
BRANCH   3  17
HETATM   17  C11 UNL     1       2.910   9.806  -1.204  1.00  0.00     0.156 C
BRANCH  17  18
HETATM   18  N2  UNL     1       3.373  10.813  -0.300  1.00  0.00    -0.413 N
ATOM     19  H2  UNL     1       3.539  11.775  -0.597  1.00  0.00     0.153 HD
BRANCH  18  20
HETATM   20  C12 UNL     1       3.578  10.399   0.999  1.00  0.00     0.076 C
HETATM   21  C13 UNL     1       4.122   8.970   1.086  1.00  0.00     0.024 C
HETATM   22  C14 UNL     1       5.109   9.053   2.273  1.00  0.00     0.002 C
HETATM   23  C15 UNL     1       4.435   9.807   3.399  1.00  0.00     0.000 C
HETATM   24  C16 UNL     1       2.925   9.807   3.293  1.00  0.00     0.002 C
HETATM   25  C17 UNL     1       2.486  10.535   2.016  1.00  0.00     0.024 C
ENDBRANCH  18  20
ENDBRANCH  17  18
ENDBRANCH   3  17
BRANCH   2  26
HETATM   26  O2  UNL     1       3.247   9.853  -3.915  1.00  0.00    -0.346 OA
BRANCH  26  27
HETATM   27  C4  UNL     1       4.472  10.108  -4.473  1.00  0.00     0.206 C
BRANCH  27  28
HETATM   28  C5  UNL     1       4.561   9.457  -5.863  1.00  0.00     0.299 C
BRANCH  28  29
HETATM   29  N1  UNL     1       5.945   9.316  -6.301  1.00  0.00     0.090 N
HETATM   30  C6  UNL     1       6.223   7.875  -6.351  1.00  0.00     0.272 C
HETATM   31  C7  UNL     1       7.656   7.696  -5.958  1.00  0.00     0.032 C
HETATM   32  C8  UNL     1       8.027   8.970  -5.210  1.00  0.00     0.032 C
HETATM   33  C9  UNL     1       6.783   9.794  -5.205  1.00  0.00     0.272 C
ENDBRANCH  28  29
ENDBRANCH  27  28
ENDBRANCH  26  27
ENDBRANCH   2  26
BRANCH   1  34
HETATM   34  O1  UNL     1       1.555  11.333  -5.609  1.00  0.00    -0.352 OA
HETATM   35  C1  UNL     1       2.338  12.341  -6.232  1.00  0.00     0.210 C
ENDBRANCH   1  34
BRANCH  16  36
HETATM   36  C25 UNL     1      -1.766  11.972   0.343  1.00  0.00     0.004 A
HETATM   37  C26 UNL     1      -0.957  12.423   1.339  1.00  0.00     0.045 A
HETATM   38 CL1  UNL     1       0.235  13.701   1.020  1.00  0.00    -0.083 Cl
HETATM   39  C27 UNL     1      -1.024  11.859   2.615  1.00  0.00     0.025 A
HETATM   40  C28 UNL     1      -1.908  10.838   2.882  1.00  0.00     0.003 A
HETATM   41  C29 UNL     1      -2.711  10.389   1.893  1.00  0.00     0.020 A
HETATM   42  C30 UNL     1      -2.703  10.899   0.586  1.00  0.00     0.022 A
HETATM   43 BR1  UNL     1      -3.873  10.252  -0.722  1.00  0.00    -0.050 Br
ENDBRANCH  16  36
TORSDOF 9
ENDMDL