MODEL 5
REMARK VINA RESULT: -6.322887051      5.032      8.839
REMARK  9 active torsions:
REMARK  status: ('A' for Active; 'I' for Inactive)
REMARK    1  A    between atoms: C3_3  and  C4_4
REMARK    2  A    between atoms: C3_3  and  C26_36
REMARK    3  A    between atoms: C5_5  and  O1_6
REMARK    4  A    between atoms: C14_21  and  C15_22
REMARK    5  A    between atoms: C19_28  and  O3_29
REMARK    6  A    between atoms: O3_29  and  C20_30
REMARK    7  A    between atoms: C20_30  and  C21_31
REMARK    8  A    between atoms: C21_31  and  C22_32
REMARK    9  A    between atoms: C26_36  and  C27_37
ROOT
HETATM    1  C4  UNL     1      -2.560  13.749  -0.963  1.00  0.00     0.039 A
HETATM    2  C5  UNL     1      -2.916  14.861  -1.744  1.00  0.00     0.079 A
HETATM    3  C6  UNL     1      -2.252  16.063  -1.529  1.00  0.00     0.044 A
HETATM    4  C7  UNL     1      -1.253  16.217  -0.576  1.00  0.00    -0.050 A
HETATM    5  C8  UNL     1      -0.594  17.564  -0.421  1.00  0.00     0.049 C
HETATM    6  C9  UNL     1      -0.922  15.120   0.176  1.00  0.00    -0.007 A
HETATM    7  C10 UNL     1      -1.600  13.899  -0.048  1.00  0.00     0.098 A
HETATM    8  O2  UNL     1      -1.219  12.832   0.729  1.00  0.00    -0.295 OA
HETATM    9  C11 UNL     1      -0.240  12.887   1.683  1.00  0.00     0.136 C
HETATM   10  N1  UNL     1      -0.211  12.007   2.633  1.00  0.00    -0.382 N
ATOM     11  H11 UNL     1       0.519  12.049   3.345  1.00  0.00     0.158 HD
ATOM     12  H12 UNL     1      -0.911  11.267   2.684  1.00  0.00     0.158 HD
HETATM   13  C12 UNL     1       0.782  13.968   1.609  1.00  0.00     0.180 C
HETATM   14  C13 UNL     1       1.774  13.549   0.624  1.00  0.00     0.073 C
HETATM   15  N2  UNL     1       2.555  13.196  -0.172  1.00  0.00    -0.196 NA
HETATM   16  C14 UNL     1       0.132  15.279   1.203  1.00  0.00     0.080 C
ENDROOT
BRANCH  16  17
HETATM   17  C15 UNL     1      -0.288  15.952   2.432  1.00  0.00    -0.042 A
HETATM   18  C16 UNL     1       0.583  16.469   3.366  1.00  0.00     0.053 A
HETATM   19  C17 UNL     1       0.151  17.116   4.498  1.00  0.00     0.158 A
HETATM   20  F1  UNL     1       1.008  17.629   5.421  1.00  0.00    -0.203 F
HETATM   21  C18 UNL     1      -1.198  17.256   4.715  1.00  0.00     0.188 A
HETATM   22  F2  UNL     1      -1.633  17.891   5.823  1.00  0.00    -0.200 F
HETATM   23  C19 UNL     1      -2.134  16.746   3.796  1.00  0.00     0.111 A
HETATM   24  C25 UNL     1      -1.636  16.117   2.696  1.00  0.00     0.048 A
BRANCH  23  25
HETATM   25  O3  UNL     1      -3.441  16.922   4.080  1.00  0.00    -0.348 OA
BRANCH  25  26
HETATM   26  C20 UNL     1      -4.400  17.830   3.770  1.00  0.00     0.176 C
BRANCH  26  27
HETATM   27  C21 UNL     1      -4.695  18.105   2.331  1.00  0.00     0.031 C
BRANCH  27  28
HETATM   28  C22 UNL     1      -5.509  17.051   1.646  1.00  0.00    -0.013 A
HETATM   29  C23 UNL     1      -4.897  15.763   1.227  1.00  0.00     0.005 A
HETATM   30  C24 UNL     1      -5.481  16.747   0.221  1.00  0.00     0.005 A
ENDBRANCH  27  28
ENDBRANCH  26  27
ENDBRANCH  25  26
ENDBRANCH  23  25
ENDBRANCH  16  17
BRANCH   1  31
HETATM   31  C3  UNL     1      -3.228  12.504  -1.327  1.00  0.00    -0.028 C
HETATM   32  C2  UNL     1      -2.703  11.909  -2.399  1.00  0.00    -0.021 C
HETATM   33  C1  UNL     1      -1.539  12.447  -3.155  1.00  0.00     0.036 C
BRANCH  31  34
HETATM   34  C26 UNL     1      -4.399  11.922  -0.659  1.00  0.00     0.046 C
HETATM   35  C33 UNL     1      -4.702  10.579  -1.364  1.00  0.00     0.026 C
HETATM   36  C34 UNL     1      -5.971   9.987  -0.818  1.00  0.00     0.021 C
HETATM   37  C35 UNL     1      -7.104  10.925  -1.160  1.00  0.00     0.119 C
HETATM   38  N3  UNL     1      -6.850  12.175  -0.558  1.00  0.00    -0.401 N
HETATM   39  C36 UNL     1      -5.603  12.784  -0.740  1.00  0.00     0.075 C
ATOM     40  H3  UNL     1      -7.568  12.631   0.006  1.00  0.00     0.158 HD
BRANCH  34  41
HETATM   41  C27 UNL     1      -4.144  11.443   0.749  1.00  0.00    -0.040 A
HETATM   42  C28 UNL     1      -4.574  12.178   1.829  1.00  0.00     0.009 A
HETATM   43  C29 UNL     1      -4.313  11.746   3.135  1.00  0.00     0.001 A
HETATM   44  C30 UNL     1      -3.630  10.593   3.380  1.00  0.00     0.000 A
HETATM   45  C31 UNL     1      -3.195   9.847   2.289  1.00  0.00     0.001 A
HETATM   46  C32 UNL     1      -3.452  10.272   1.018  1.00  0.00     0.009 A
ENDBRANCH  34  41
ENDBRANCH  31  34
ENDBRANCH   1  31
BRANCH   2  47
HETATM   47  O1  UNL     1      -3.893  14.864  -2.718  1.00  0.00    -0.360 OA
ATOM     48  H1  UNL     1      -4.426  14.114  -2.957  1.00  0.00     0.217 HD
ENDBRANCH   2  47
TORSDOF 9
ENDMDL