MODEL 5
REMARK VINA RESULT: -5.816025856      3.920      5.561
REMARK  10 active torsions:
REMARK  status: ('A' for Active; 'I' for Inactive)
REMARK    1  A    between atoms: O1_2  and  C2_3
REMARK    2  A    between atoms: C4_5  and  C5_6
REMARK    3  A    between atoms: C6_7  and  C7_8
REMARK    4  A    between atoms: C8_13  and  C9_14
REMARK    5  A    between atoms: C9_14  and  C10_15
REMARK    6  A    between atoms: C13_19  and  O2_20
REMARK    7  A    between atoms: N3_25  and  C16_26
REMARK    8  A    between atoms: C16_26  and  C17_27
REMARK    9  A    between atoms: C17_27  and  C18_28
REMARK   10  A    between atoms: C26_36  and  O3_37
ROOT
HETATM    1  C7  UNL     1       0.195  13.820   0.248  1.00  0.00     0.123 A
HETATM    2  N1  UNL     1       1.505  13.845   0.022  1.00  0.00    -0.284 N
ATOM      3  H1  UNL     1       2.151  14.575   0.322  1.00  0.00     0.188 HD
HETATM    4  N2  UNL     1       1.823  12.757  -0.662  1.00  0.00    -0.287 N
ATOM      5  H2  UNL     1       2.759  12.506  -0.981  1.00  0.00     0.188 HD
HETATM    6  C8  UNL     1       0.688  12.028  -0.870  1.00  0.00     0.103 A
HETATM    7  N3  UNL     1      -0.307  12.699  -0.302  1.00  0.00    -0.320 N
ENDROOT
BRANCH   1   8
HETATM    8  C6  UNL     1      -0.545  14.860   0.995  1.00  0.00     0.051 C
HETATM    9  C5  UNL     1      -0.367  14.957   2.292  1.00  0.00     0.015 C
BRANCH   9  10
HETATM   10  C4  UNL     1      -1.053  15.951   3.102  1.00  0.00    -0.033 A
HETATM   11  C3  UNL     1      -2.412  16.161   3.050  1.00  0.00     0.051 A
HETATM   12  C2  UNL     1      -3.070  17.109   3.840  1.00  0.00     0.102 A
HETATM   13  C26 UNL     1      -2.292  17.849   4.697  1.00  0.00     0.099 A
HETATM   14  C25 UNL     1      -0.931  17.665   4.775  1.00  0.00     0.040 A
HETATM   15  C24 UNL     1      -0.292  16.729   3.993  1.00  0.00     0.014 A
BRANCH  12  16
HETATM   16  O1  UNL     1      -4.415  17.249   3.723  1.00  0.00    -0.353 OA
HETATM   17  C1  UNL     1      -5.079  17.790   2.598  1.00  0.00     0.210 C
ENDBRANCH  12  16
BRANCH  13  18
HETATM   18  O3  UNL     1      -2.922  18.806   5.503  1.00  0.00    -0.358 OA
ATOM     19  H3  UNL     1      -2.397  19.521   5.844  1.00  0.00     0.217 HD
ENDBRANCH  13  18
ENDBRANCH   9  10
ENDBRANCH   1   8
BRANCH   7  20
HETATM   20  C16 UNL     1      -1.681  12.318  -0.268  1.00  0.00     0.132 C
BRANCH  20  21
HETATM   21  C17 UNL     1      -2.027  11.249   0.685  1.00  0.00     0.025 C
BRANCH  21  22
HETATM   22  C18 UNL     1      -2.108  11.711   2.107  1.00  0.00    -0.013 C
HETATM   23  C19 UNL     1      -2.081  10.607   3.093  1.00  0.00     0.005 C
HETATM   24  C20 UNL     1      -3.392   9.835   3.102  1.00  0.00     0.000 C
HETATM   25  C21 UNL     1      -4.421  10.835   3.642  1.00  0.00     0.000 C
HETATM   26  C22 UNL     1      -4.554  11.925   2.612  1.00  0.00     0.000 C
HETATM   27  C23 UNL     1      -3.274  12.661   2.325  1.00  0.00     0.005 C
ENDBRANCH  21  22
ENDBRANCH  20  21
ENDBRANCH   7  20
BRANCH   6  28
HETATM   28  C9  UNL     1       0.639  10.783  -1.598  1.00  0.00     0.116 C
BRANCH  28  29
HETATM   29  C10 UNL     1       0.985  11.014  -3.020  1.00  0.00    -0.048 A
HETATM   30  C11 UNL     1       1.878  10.164  -3.666  1.00  0.00     0.029 A
HETATM   31  C12 UNL     1       2.201  10.382  -4.995  1.00  0.00     0.046 A
HETATM   32 BR1  UNL     1       3.436   9.215  -5.897  1.00  0.00    -0.048 Br
HETATM   33  C13 UNL     1       1.639  11.442  -5.681  1.00  0.00     0.100 A
HETATM   34  C14 UNL     1       0.766  12.281  -5.065  1.00  0.00     0.046 A
HETATM   35 BR2  UNL     1      -0.043  13.766  -5.960  1.00  0.00    -0.048 Br
HETATM   36  C15 UNL     1       0.451  12.052  -3.738  1.00  0.00     0.029 A
BRANCH  33  37
HETATM   37  O2  UNL     1       1.988  11.633  -7.021  1.00  0.00    -0.358 OA
ATOM     38  H2  UNL     1       2.908  11.613  -7.259  1.00  0.00     0.217 HD
ENDBRANCH  33  37
ENDBRANCH  28  29
ENDBRANCH   6  28
TORSDOF 10
ENDMDL