MODEL 5
REMARK VINA RESULT: -6.989776682      1.098      1.395
REMARK  11 active torsions:
REMARK  status: ('A' for Active; 'I' for Inactive)
REMARK    1  A    between atoms: C5_5  and  C6_6
REMARK    2  A    between atoms: C6_6  and  C7_7
REMARK    3  A    between atoms: C10_10  and  N1_11
REMARK    4  A    between atoms: N1_11  and  C11_13
REMARK    5  A    between atoms: C12_14  and  O1_15
REMARK    6  A    between atoms: C12_14  and  C13_17
REMARK    7  A    between atoms: C13_17  and  N2_18
REMARK    8  A    between atoms: C14_19  and  N3_20
REMARK    9  A    between atoms: N3_20  and  C15_21
REMARK   10  A    between atoms: C22_29  and  C23_30
REMARK   11  A    between atoms: C25_32  and  O2_33
ROOT
HETATM    1  N2  UNL     1      -1.379  11.870  -1.486  1.00  0.00    -0.296 N
HETATM    2  C14 UNL     1      -1.769  12.380  -2.695  1.00  0.00     0.260 A
HETATM    3  N4  UNL     1      -3.138  12.202  -2.720  1.00  0.00    -0.309 N
HETATM    4  C18 UNL     1      -4.008  12.604  -3.827  1.00  0.00     0.161 C
HETATM    5  C19 UNL     1      -3.559  11.617  -1.610  1.00  0.00     0.068 A
HETATM    6  C20 UNL     1      -4.815  11.191  -1.181  1.00  0.00     0.033 A
HETATM    7  C21 UNL     1      -4.955  10.546   0.026  1.00  0.00     0.018 A
HETATM    8  C22 UNL     1      -3.867  10.306   0.833  1.00  0.00     0.017 A
HETATM    9  C29 UNL     1      -2.637  10.739   0.387  1.00  0.00     0.156 A
HETATM   10  F1  UNL     1      -1.592  10.432   1.170  1.00  0.00    -0.203 F
HETATM   11  C30 UNL     1      -2.454  11.406  -0.835  1.00  0.00     0.105 A
ENDROOT
BRANCH   1  12
HETATM   12  C13 UNL     1      -0.028  11.842  -1.034  1.00  0.00     0.199 C
BRANCH  12  13
HETATM   13  C12 UNL     1       0.601  13.003  -0.423  1.00  0.00     0.076 C
HETATM   14  C11 UNL     1       0.488  13.504   0.921  1.00  0.00     0.117 C
BRANCH  14  15
HETATM   15  N1  UNL     1       0.432  12.679   2.074  1.00  0.00    -0.392 N
ATOM     16  H1  UNL     1      -0.275  12.757   2.805  1.00  0.00     0.159 HD
BRANCH  15  17
HETATM   17  C10 UNL     1       1.528  11.697   2.080  1.00  0.00     0.081 C
HETATM   18  C9  UNL     1       2.862  12.393   1.921  1.00  0.00     0.025 C
HETATM   19  C8  UNL     1       3.898  11.829   2.850  1.00  0.00     0.006 C
HETATM   20  C7  UNL     1       3.890  10.308   2.844  1.00  0.00    -0.014 C
HETATM   21  C32 UNL     1       2.524   9.781   3.228  1.00  0.00     0.006 C
HETATM   22  C31 UNL     1       1.578  10.955   3.385  1.00  0.00     0.025 C
BRANCH  20  23
HETATM   23  C6  UNL     1       4.311   9.784   1.492  1.00  0.00     0.009 C
BRANCH  23  24
HETATM   24  C5  UNL     1       5.724   9.278   1.495  1.00  0.00    -0.014 C
HETATM   25  C4  UNL     1       6.020   8.252   0.442  1.00  0.00     0.005 C
HETATM   26  C3  UNL     1       6.149   6.857   1.036  1.00  0.00     0.004 C
HETATM   27  C2  UNL     1       7.323   6.724   1.970  1.00  0.00    -0.019 C
HETATM   28  C1  UNL     1       8.606   6.391   1.227  1.00  0.00     0.010 C
HETATM   29  C34 UNL     1       7.435   8.023   2.750  1.00  0.00     0.004 C
HETATM   30  C33 UNL     1       6.063   8.683   2.857  1.00  0.00     0.005 C
ENDBRANCH  23  24
ENDBRANCH  20  23
ENDBRANCH  15  17
ENDBRANCH  14  15
BRANCH  13  31
HETATM   31  O1  UNL     1       0.631  14.153  -1.297  1.00  0.00    -0.362 OA
ATOM     32  H1  UNL     1       0.968  14.879  -0.786  1.00  0.00     0.217 HD
ENDBRANCH  13  31
ENDBRANCH  12  13
ENDBRANCH   1  12
BRANCH   2  33
HETATM   33  N3  UNL     1      -1.146  12.827  -3.627  1.00  0.00    -0.410 NA
BRANCH  33  34
HETATM   34  C15 UNL     1      -0.459  13.314  -4.640  1.00  0.00     0.158 C
HETATM   35  C16 UNL     1       0.184  12.248  -5.571  1.00  0.00     0.047 C
HETATM   36  C17 UNL     1      -1.212  14.212  -5.634  1.00  0.00     0.047 C
ENDBRANCH  33  34
ENDBRANCH   2  33
BRANCH   8  37
HETATM   37  C23 UNL     1      -3.997   9.588   2.111  1.00  0.00     0.002 A
HETATM   38  C24 UNL     1      -3.857   8.212   2.130  1.00  0.00     0.050 A
HETATM   39  C25 UNL     1      -3.981   7.474   3.285  1.00  0.00     0.066 A
HETATM   40  C26 UNL     1      -4.252   8.087   4.480  1.00  0.00     0.038 A
HETATM   41  C27 UNL     1      -4.397   9.471   4.478  1.00  0.00     0.027 A
HETATM   42  C28 UNL     1      -4.268  10.204   3.298  1.00  0.00     0.045 A
HETATM   43 CL1  UNL     1      -4.446  11.953   3.334  1.00  0.00    -0.083 Cl
BRANCH  39  44
HETATM   44  O2  UNL     1      -3.824   6.100   3.204  1.00  0.00    -0.361 OA
ATOM     45  H2  UNL     1      -3.041   5.715   3.579  1.00  0.00     0.217 HD
ENDBRANCH  39  44
ENDBRANCH   8  37
TORSDOF 11
ENDMDL