MODEL 3
REMARK VINA RESULT: -6.146282009      5.839     12.037
REMARK  12 active torsions:
REMARK  status: ('A' for Active; 'I' for Inactive)
REMARK    1  A    between atoms: C2_2  and  N1_4
REMARK    2  A    between atoms: N1_4  and  C4_6
REMARK    3  A    between atoms: C5_7  and  C6_8
REMARK    4  A    between atoms: C6_8  and  C7_10
REMARK    5  A    between atoms: C13_18  and  O2_19
REMARK    6  A    between atoms: O2_19  and  C14_20
REMARK    7  A    between atoms: C17_25  and  N4_26
REMARK    8  A    between atoms: N4_26  and  C18_28
REMARK    9  A    between atoms: C21_31  and  N5_32
REMARK       I    between atoms: N5_32  and  C22_34
REMARK   10  A    between atoms: C22_34  and  O4_36
REMARK   11  A    between atoms: O4_36  and  C23_37
REMARK   12  A    between atoms: C30_44  and  C31_45
ROOT
HETATM    1  C4  UNL     1       1.259  12.184  -4.328  1.00  0.00     0.061 A
HETATM    2  C5  UNL     1       1.112  12.821  -5.544  1.00  0.00     0.053 A
HETATM    3  C10 UNL     1      -0.150  13.415  -5.801  1.00  0.00     0.106 A
HETATM    4  N2  UNL     1      -1.137  13.375  -4.929  1.00  0.00    -0.364 N
ATOM      5  H2  UNL     1      -2.027  13.816  -5.160  1.00  0.00     0.165 HD
HETATM    6  C11 UNL     1      -0.994  12.763  -3.742  1.00  0.00     0.048 A
HETATM    7  C12 UNL     1      -2.082  12.801  -2.875  1.00  0.00     0.067 A
HETATM    8  C13 UNL     1      -1.996  12.226  -1.647  1.00  0.00     0.079 A
HETATM    9  C29 UNL     1      -0.820  11.619  -1.300  1.00  0.00     0.054 A
HETATM   10  C30 UNL     1       0.329  11.549  -2.148  1.00  0.00     0.065 A
HETATM   11  C32 UNL     1       0.202  12.141  -3.382  1.00  0.00     0.034 A
ENDROOT
BRANCH   8  12
HETATM   12  O2  UNL     1      -3.045  12.245  -0.771  1.00  0.00    -0.311 OA
BRANCH  12  13
HETATM   13  C14 UNL     1      -3.538  11.160  -0.077  1.00  0.00     0.081 A
HETATM   14  C15 UNL     1      -3.962  10.000  -0.671  1.00  0.00     0.054 A
HETATM   15  C16 UNL     1      -4.434   9.000   0.117  1.00  0.00     0.092 A
HETATM   16  N3  UNL     1      -4.498   9.106   1.462  1.00  0.00    -0.352 N
HETATM   17  C17 UNL     1      -4.101  10.207   2.107  1.00  0.00     0.103 A
ATOM     18  H3  UNL     1      -4.861   8.321   2.003  1.00  0.00     0.166 HD
HETATM   19  C28 UNL     1      -3.612  11.244   1.278  1.00  0.00     0.085 A
BRANCH  17  20
HETATM   20  N4  UNL     1      -4.161  10.339   3.321  1.00  0.00    -0.372 N
ATOM     21  H4  UNL     1      -3.234  10.699   3.548  1.00  0.00     0.161 HD
BRANCH  20  22
HETATM   22  C18 UNL     1      -4.755  10.280   4.536  1.00  0.00     0.083 C
HETATM   23  C19 UNL     1      -4.294   9.209   5.485  1.00  0.00     0.027 C
HETATM   24  C20 UNL     1      -4.753   9.570   6.887  1.00  0.00     0.027 C
HETATM   25  C21 UNL     1      -6.216   9.873   6.877  1.00  0.00     0.086 C
HETATM   26  C26 UNL     1      -6.857   9.391   5.589  1.00  0.00     0.027 C
HETATM   27  C27 UNL     1      -6.292  10.165   4.440  1.00  0.00     0.027 C
BRANCH  25  28
HETATM   28  N5  UNL     1      -6.861   9.232   7.996  1.00  0.00    -0.332 N
HETATM   29  C22 UNL     1      -8.233   9.447   8.269  1.00  0.00     0.361 C
HETATM   30  O3  UNL     1      -8.933  10.215   7.534  1.00  0.00    -0.238 OA
ATOM     31  H5  UNL     1      -6.320   8.614   8.599  1.00  0.00     0.165 HD
BRANCH  29  32
HETATM   32  O4  UNL     1      -8.876   8.841   9.335  1.00  0.00    -0.299 OA
BRANCH  32  33
HETATM   33  C23 UNL     1      -8.859   7.452   9.559  1.00  0.00     0.125 C
HETATM   34  C24 UNL     1      -9.066   7.202  11.030  1.00  0.00     0.040 C
HETATM   35  C25 UNL     1      -9.985   6.747   8.819  1.00  0.00     0.040 C
ENDBRANCH  32  33
ENDBRANCH  29  32
ENDBRANCH  25  28
ENDBRANCH  20  22
ENDBRANCH  17  20
ENDBRANCH  12  13
ENDBRANCH   8  12
BRANCH  10  36
HETATM   36  C31 UNL     1       1.527  10.888  -1.731  1.00  0.00     0.418 C
HETATM   37  F1  UNL     1       1.195  10.608  -0.326  1.00  0.00    -0.166 F
HETATM   38  F2  UNL     1       2.633  11.566  -1.324  1.00  0.00    -0.166 F
HETATM   39  F3  UNL     1       1.600   9.517  -1.940  1.00  0.00    -0.166 F
ENDBRANCH  10  36
BRANCH   1  40
HETATM   40  N1  UNL     1       2.271  11.528  -4.098  1.00  0.00    -0.362 N
ATOM     41  H1  UNL     1       2.497  11.711  -3.120  1.00  0.00     0.165 HD
BRANCH  40  42
HETATM   42  C2  UNL     1       3.258  10.648  -4.549  1.00  0.00    -0.021 C
HETATM   43  C1  UNL     1       2.856   9.341  -5.179  1.00  0.00     0.062 C
HETATM   44  C3  UNL     1       4.600  10.626  -3.855  1.00  0.00     0.062 C
ENDBRANCH  40  42
ENDBRANCH   1  40
BRANCH   2  45
HETATM   45  C6  UNL     1       2.105  13.121  -6.551  1.00  0.00     0.167 C
HETATM   46  O1  UNL     1       2.946  12.426  -7.103  1.00  0.00    -0.292 OA
BRANCH  45  47
HETATM   47  C7  UNL     1       2.133  14.564  -7.027  1.00  0.00     0.061 A
HETATM   48  C8  UNL     1       3.036  15.474  -6.183  1.00  0.00     0.013 A
HETATM   49  C9  UNL     1       3.352  15.145  -7.576  1.00  0.00     0.013 A
ENDBRANCH  45  47
ENDBRANCH   2  45
TORSDOF 12
ENDMDL