MODEL 3
REMARK VINA RESULT: -6.492930214      1.456      2.115
REMARK  8 active torsions:
REMARK  status: ('A' for Active; 'I' for Inactive)
REMARK    1  A    between atoms: C4_4  and  N1_5
REMARK    2  A    between atoms: C10_12  and  N3_13
REMARK    3  A    between atoms: N3_13  and  C11_15
REMARK    4  A    between atoms: C15_19  and  C16_20
REMARK    5  A    between atoms: C17_21  and  N4_22
REMARK    6  A    between atoms: N4_22  and  C18_24
REMARK    7  A    between atoms: C21_27  and  O1_28
REMARK    8  A    between atoms: O1_28  and  C22_29
ROOT
HETATM    1  C16 UNL     1      -2.011  11.127   0.484  1.00  0.00     0.069 A
HETATM    2  C17 UNL     1      -1.651  11.346   1.827  1.00  0.00     0.050 A
HETATM    3  C32 UNL     1      -2.447  10.749   2.772  1.00  0.00     0.047 A
HETATM    4  C33 UNL     1      -3.551   9.966   2.456  1.00  0.00     0.093 A
HETATM    5  N5  UNL     1      -3.858   9.783   1.163  1.00  0.00    -0.333 N
ATOM      6  H5  UNL     1      -4.661   9.213   0.899  1.00  0.00     0.168 HD
HETATM    7  C34 UNL     1      -3.101  10.353   0.227  1.00  0.00     0.258 A
HETATM    8  O2  UNL     1      -3.392  10.181  -1.005  1.00  0.00    -0.267 OA
ENDROOT
BRANCH   1   9
HETATM    9  C15 UNL     1      -1.210  11.731  -0.586  1.00  0.00    -0.010 A
HETATM   10  C2  UNL     1      -1.582  12.950  -1.103  1.00  0.00    -0.048 A
HETATM   11  C1  UNL     1      -2.795  13.617  -0.550  1.00  0.00     0.049 C
HETATM   12  C3  UNL     1      -0.868  13.566  -2.106  1.00  0.00     0.039 A
HETATM   13  C4  UNL     1       0.259  12.945  -2.615  1.00  0.00     0.057 A
HETATM   14  C10 UNL     1       0.665  11.727  -2.126  1.00  0.00     0.056 A
HETATM   15  C14 UNL     1      -0.084  11.136  -1.111  1.00  0.00     0.044 A
BRANCH  13  16
HETATM   16  N1  UNL     1       0.997  13.550  -3.682  1.00  0.00    -0.376 N
HETATM   17  C5  UNL     1       0.534  13.491  -5.046  1.00  0.00     0.142 C
HETATM   18  C6  UNL     1       1.454  14.302  -5.910  1.00  0.00     0.136 C
HETATM   19  N2  UNL     1       2.840  13.964  -5.787  1.00  0.00    -0.414 N
HETATM   20  C7  UNL     1       3.333  13.017  -6.726  1.00  0.00     0.143 C
HETATM   21  C8  UNL     1       3.288  13.804  -4.435  1.00  0.00     0.136 C
HETATM   22  C9  UNL     1       2.248  14.242  -3.427  1.00  0.00     0.142 C
ENDBRANCH  13  16
BRANCH  14  23
HETATM   23  N3  UNL     1       1.844  11.071  -2.585  1.00  0.00    -0.383 N
ATOM     24  H3  UNL     1       2.754  11.415  -2.277  1.00  0.00     0.160 HD
BRANCH  23  25
HETATM   25  C11 UNL     1       1.788   9.937  -3.472  1.00  0.00     0.082 A
HETATM   26  C12 UNL     1       1.535  10.161  -4.893  1.00  0.00     0.027 A
HETATM   27  C13 UNL     1       2.916   9.808  -4.478  1.00  0.00     0.027 A
ENDBRANCH  23  25
ENDBRANCH  14  23
ENDBRANCH   1   9
BRANCH   2  28
HETATM   28  N4  UNL     1      -0.554  12.171   2.091  1.00  0.00    -0.355 N
ATOM     29  H4  UNL     1      -0.729  13.174   2.151  1.00  0.00     0.166 HD
BRANCH  28  30
HETATM   30  C18 UNL     1       0.775  11.737   2.281  1.00  0.00     0.032 A
HETATM   31  C19 UNL     1       1.041  10.667   3.154  1.00  0.00     0.032 A
HETATM   32  C20 UNL     1       2.310  10.239   3.399  1.00  0.00     0.039 A
HETATM   33  C21 UNL     1       3.423  10.840   2.796  1.00  0.00     0.069 A
HETATM   34  C30 UNL     1       3.181  11.875   1.951  1.00  0.00     0.039 A
HETATM   35  C31 UNL     1       1.883  12.310   1.704  1.00  0.00     0.032 A
BRANCH  33  36
HETATM   36  O1  UNL     1       4.661  10.357   3.088  1.00  0.00    -0.345 OA
BRANCH  36  37
HETATM   37  C22 UNL     1       5.161   9.056   2.968  1.00  0.00     0.137 C
HETATM   38  C23 UNL     1       5.027   8.665   1.525  1.00  0.00     0.039 C
HETATM   39  C24 UNL     1       5.932   7.568   1.080  1.00  0.00     0.081 C
HETATM   40  C25 UNL     1       7.365   8.075   1.305  1.00  0.00     0.244 C
HETATM   41  F1  UNL     1       7.417   9.337   0.741  1.00  0.00    -0.206 F
HETATM   42  F2  UNL     1       8.286   7.221   0.783  1.00  0.00    -0.206 F
HETATM   43  C26 UNL     1       7.537   8.194   2.781  1.00  0.00     0.090 C
HETATM   44  C27 UNL     1       6.574   9.077   3.475  1.00  0.00    -0.015 C
HETATM   45  C28 UNL     1       6.505   8.601   4.935  1.00  0.00     0.018 C
HETATM   46  C29 UNL     1       7.139  10.490   3.527  1.00  0.00     0.018 C
ENDBRANCH  36  37
ENDBRANCH  33  36
ENDBRANCH  28  30
ENDBRANCH   2  28
TORSDOF 8
ENDMDL