MODEL 3
REMARK VINA RESULT: -5.425209183     11.597     15.088
REMARK  10 active torsions:
REMARK  status: ('A' for Active; 'I' for Inactive)
REMARK    1  A    between atoms: C2_2  and  C3_3
REMARK    2  A    between atoms: C3_3  and  O1_4
REMARK    3  A    between atoms: C3_3  and  C4_6
REMARK    4  A    between atoms: C3_3  and  C6_8
REMARK    5  A    between atoms: C6_8  and  C7_9
REMARK    6  A    between atoms: C7_9  and  C8_10
REMARK    7  A    between atoms: C8_10  and  C9_11
REMARK    8  A    between atoms: C10_12  and  O2_13
REMARK    9  A    between atoms: C12_15  and  O3_17
REMARK   10  A    between atoms: C19_24  and  O4_25
ROOT
HETATM    1  C9  UNL     1       9.407   7.822   1.963  1.00  0.00    -0.018 C
HETATM    2  C10 UNL     1       9.656   9.086   1.246  1.00  0.00     0.187 C
HETATM    3  C12 UNL     1       8.692   9.606   0.240  1.00  0.00     0.092 C
HETATM    4  C13 UNL     1       9.070   8.833  -1.078  1.00  0.00     0.050 C
HETATM    5  C14 UNL     1       7.360   9.916   0.147  1.00  0.00     0.002 A
HETATM    6  C15 UNL     1       7.004  11.238  -0.523  1.00  0.00     0.014 C
HETATM    7  C16 UNL     1       5.869  11.757   0.389  1.00  0.00     0.019 C
HETATM    8  C17 UNL     1       5.816  10.723   1.482  1.00  0.00     0.034 C
HETATM    9  C18 UNL     1       4.535  10.667   2.239  1.00  0.00     0.024 A
HETATM   10  C19 UNL     1       3.504  11.455   1.857  1.00  0.00     0.075 A
HETATM   11  C20 UNL     1       2.260  11.347   2.463  1.00  0.00     0.040 A
HETATM   12  C21 UNL     1       2.012  10.452   3.468  1.00  0.00     0.048 A
HETATM   13  C22 UNL     1       3.080   9.663   3.849  1.00  0.00     0.150 A
HETATM   14  F1  UNL     1       2.852   8.739   4.858  1.00  0.00    -0.203 F
HETATM   15  C23 UNL     1       4.333   9.748   3.270  1.00  0.00     0.117 A
HETATM   16  O5  UNL     1       5.288   8.859   3.849  1.00  0.00    -0.339 OA
HETATM   17  C24 UNL     1       6.500   9.369   4.467  1.00  0.00     0.166 C
HETATM   18  C25 UNL     1       7.308   8.317   5.141  1.00  0.00     0.039 C
HETATM   19  C26 UNL     1       8.659   7.981   4.460  1.00  0.00     0.045 C
HETATM   20  C27 UNL     1       8.320   7.897   3.021  1.00  0.00     0.084 C
HETATM   21  C28 UNL     1       7.509   6.616   2.940  1.00  0.00     0.051 C
HETATM   22  O6  UNL     1       7.753   9.045   2.739  1.00  0.00    -0.360 OA
HETATM   23  C29 UNL     1       7.374  10.045   3.447  1.00  0.00     0.117 C
HETATM   24  C30 UNL     1       8.296  10.897   4.302  1.00  0.00     0.052 C
HETATM   25  C31 UNL     1       6.781  11.045   2.531  1.00  0.00     0.221 C
HETATM   26  F2  UNL     1       6.217  11.982   3.425  1.00  0.00    -0.245 F
HETATM   27  C32 UNL     1       6.005   9.604   0.586  1.00  0.00    -0.018 A
HETATM   28  C33 UNL     1       4.741   9.529  -0.282  1.00  0.00     0.017 C
HETATM   29  C34 UNL     1       6.737   8.668  -0.160  1.00  0.00     0.024 A
ENDROOT
BRANCH   1  30
HETATM   30  C8  UNL     1      10.490   6.900   2.316  1.00  0.00    -0.018 C
BRANCH  30  31
HETATM   31  C7  UNL     1      10.930   5.738   1.589  1.00  0.00     0.030 C
BRANCH  31  32
HETATM   32  C6  UNL     1       9.809   5.412   0.565  1.00  0.00     0.041 C
BRANCH  32  33
HETATM   33  C3  UNL     1      10.409   5.165  -0.769  1.00  0.00     0.057 C
BRANCH  33  34
HETATM   34  C2  UNL     1      11.236   3.913  -0.777  1.00  0.00     0.033 C
HETATM   35  C1  UNL     1      10.738   2.902  -1.784  1.00  0.00     0.008 C
ENDBRANCH  33  34
BRANCH  33  36
HETATM   36  O1  UNL     1      11.287   6.238  -1.049  1.00  0.00    -0.390 OA
ATOM     37  H1  UNL     1      11.372   6.740  -0.247  1.00  0.00     0.210 HD
ENDBRANCH  33  36
BRANCH  33  38
HETATM   38  C4  UNL     1       9.381   5.165  -1.884  1.00  0.00     0.033 C
HETATM   39  C5  UNL     1       8.019   5.279  -1.255  1.00  0.00     0.008 C
ENDBRANCH  33  38
ENDBRANCH  32  33
ENDBRANCH  31  32
ENDBRANCH  30  31
ENDBRANCH   1  30
BRANCH   2  40
HETATM   40  O2  UNL     1      10.844   8.877   0.530  1.00  0.00    -0.383 OA
HETATM   41  C11 UNL     1      11.986   9.418   0.994  1.00  0.00     0.202 C
ENDBRANCH   2  40
BRANCH   3  42
HETATM   42  O3  UNL     1       9.432  10.803  -0.112  1.00  0.00    -0.386 OA
ATOM     43  H3  UNL     1       9.519  11.149   0.768  1.00  0.00     0.210 HD
ENDBRANCH   3  42
BRANCH  10  44
HETATM   44  O4  UNL     1       3.648  12.397   0.872  1.00  0.00    -0.360 OA
ATOM     45  H4  UNL     1       3.931  12.161  -0.004  1.00  0.00     0.217 HD
ENDBRANCH  10  44
TORSDOF 10
ENDMDL