MODEL 5
REMARK VINA RESULT: -6.871467606      1.863      9.122
REMARK  10 active torsions:
REMARK  status: ('A' for Active; 'I' for Inactive)
REMARK    1  A    between atoms: C3_4  and  C4_5
REMARK    2  A    between atoms: C4_5  and  N2_6
REMARK    3  A    between atoms: C4_5  and  C5_10
REMARK    4  A    between atoms: C5_10  and  C6_11
REMARK       I    between atoms: C6_11  and  N3_13
REMARK    5  A    between atoms: N3_13  and  N4_15
REMARK    6  A    between atoms: C8_18  and  O2_19
REMARK    7  A    between atoms: C8_18  and  N6_21
REMARK    8  A    between atoms: N6_21  and  C9_22
REMARK    9  A    between atoms: C9_22  and  C10_23
REMARK   10  A    between atoms: C10_23  and  N7_24
ROOT
HETATM    1  C6  UNL     1       2.632   5.726  81.243  1.00  0.00     0.240 C
HETATM    2  O1  UNL     1       2.047   4.833  80.618  1.00  0.00    -0.272 OA
HETATM    3  N3  UNL     1       2.161   6.302  82.420  1.00  0.00    -0.233 N
ATOM      4  H3  UNL     1       2.777   7.026  82.789  1.00  0.00     0.193 HD
ENDROOT
BRANCH   3   5
HETATM    5  N4  UNL     1       1.049   6.099  83.183  1.00  0.00    -0.069 N
HETATM    6  N5  UNL     1       0.875   5.164  84.015  1.00  0.00    -0.287 NA
HETATM    7  C7  UNL     1       0.362   4.451  84.840  1.00  0.00     0.266 A
HETATM    8  C8  UNL     1      -0.237   3.617  85.807  1.00  0.00     0.263 C
HETATM    9  C11 UNL     1      -1.027   5.414  84.778  1.00  0.00     0.298 A
HETATM   10  O3  UNL     1      -1.911   5.050  85.514  1.00  0.00    -0.264 OA
HETATM   11  N8  UNL     1      -1.055   6.406  84.002  1.00  0.00    -0.269 N
HETATM   12  C12 UNL     1      -0.086   6.859  83.153  1.00  0.00     0.374 A
ATOM     13  H8  UNL     1      -1.920   6.947  84.010  1.00  0.00     0.174 HD
HETATM   14  O4  UNL     1      -0.241   7.815  82.468  1.00  0.00    -0.242 OA
BRANCH   8  15
HETATM   15  O2  UNL     1       0.802   2.654  86.067  1.00  0.00    -0.333 OA
ATOM     16  H2  UNL     1       0.354   2.013  86.606  1.00  0.00     0.220 HD
ENDBRANCH   8  15
BRANCH   8  17
HETATM   17  N6  UNL     1      -1.216   3.304  86.545  1.00  0.00    -0.393 NA
BRANCH  17  18
HETATM   18  C9  UNL     1      -2.123   2.974  87.254  1.00  0.00     0.185 C
BRANCH  18  19
HETATM   19  C10 UNL     1      -2.641   1.566  87.272  1.00  0.00     0.288 C
BRANCH  19  20
HETATM   20  N7  UNL     1      -1.549   0.631  87.206  1.00  0.00    -0.074 N
ATOM     21  H73 UNL     1      -1.572  -0.036  87.977  1.00  0.00     0.274 HD
ATOM     22  H72 UNL     1      -1.657  -0.028  86.434  1.00  0.00     0.274 HD
ATOM     23  H71 UNL     1      -0.659   1.129  87.160  1.00  0.00     0.274 HD
ENDBRANCH  19  20
ENDBRANCH  18  19
ENDBRANCH  17  18
ENDBRANCH   8  17
ENDBRANCH   3   5
BRANCH   1  24
HETATM   24  C5  UNL     1       3.950   6.252  80.712  1.00  0.00     0.142 C
BRANCH  24  25
HETATM   25  C4  UNL     1       4.961   5.179  80.597  1.00  0.00     0.232 C
BRANCH  25  26
HETATM   26  C3  UNL     1       5.316   4.888  79.209  1.00  0.00     0.056 A
HETATM   27  C2  UNL     1       4.408   5.060  78.191  1.00  0.00     0.110 A
HETATM   28  N1  UNL     1       4.698   4.815  76.884  1.00  0.00    -0.313 N
HETATM   29  C1  UNL     1       3.682   5.035  75.849  1.00  0.00     0.160 C
HETATM   30  C14 UNL     1       5.927   4.386  76.574  1.00  0.00     0.328 A
HETATM   31  N9  UNL     1       6.849   4.207  77.560  1.00  0.00    -0.275 N
HETATM   32  O6  UNL     1       6.200   4.160  75.370  1.00  0.00    -0.246 OA
HETATM   33  C13 UNL     1       6.578   4.442  78.841  1.00  0.00     0.259 A
ATOM     34  H9  UNL     1       7.781   3.880  77.307  1.00  0.00     0.173 HD
HETATM   35  O5  UNL     1       7.442   4.269  79.732  1.00  0.00    -0.267 OA
ENDBRANCH  25  26
BRANCH  25  36
HETATM   36  N2  UNL     1       4.624   3.994  81.352  1.00  0.00    -0.070 N
ATOM     37  H23 UNL     1       3.740   4.117  81.847  1.00  0.00     0.275 HD
ATOM     38  H22 UNL     1       4.362   3.229  80.732  1.00  0.00     0.275 HD
ATOM     39  H21 UNL     1       5.364   3.707  81.993  1.00  0.00     0.275 HD
ENDBRANCH  25  36
ENDBRANCH  24  25
ENDBRANCH   1  24
TORSDOF 10
ENDMDL