MODEL 1
REMARK VINA RESULT: -6.665655430      0.000      0.000
REMARK  9 active torsions:
REMARK  status: ('A' for Active; 'I' for Inactive)
REMARK       I    between atoms: N1_2  and  C3_4
REMARK    1  A    between atoms: C3_4  and  C4_6
REMARK    2  A    between atoms: C4_6  and  N3_9
REMARK    3  A    between atoms: N3_9  and  N4_10
REMARK       I    between atoms: N3_9  and  C6_14
REMARK    4  A    between atoms: N4_10  and  N5_11
REMARK    5  A    between atoms: C6_14  and  C7_16
REMARK    6  A    between atoms: C8_21  and  N8_22
REMARK       I    between atoms: N8_22  and  C9_24
REMARK    7  A    between atoms: C9_24  and  C10_26
REMARK    8  A    between atoms: C14_33  and  N11_34
REMARK    9  A    between atoms: N12_37  and  N13_38
ROOT
HETATM    1  C4  UNL     1      -1.584   4.236  84.318  1.00  0.00     0.307 C
HETATM    2  C5  UNL     1      -2.176   4.051  85.677  1.00  0.00     0.096 C
HETATM    3  N2  UNL     1      -2.646   3.907  86.725  1.00  0.00    -0.194 NA
ENDROOT
BRANCH   1   4
HETATM    4  C3  UNL     1      -0.592   5.355  84.529  1.00  0.00     0.257 C
HETATM    5  N1  UNL     1      -0.717   6.561  83.825  1.00  0.00    -0.358 N
HETATM    6  C1  UNL     1       0.296   7.605  84.108  1.00  0.00     0.152 C
HETATM    7  C2  UNL     1      -1.747   6.827  82.858  1.00  0.00     0.152 C
HETATM    8  O1  UNL     1       0.328   5.157  85.346  1.00  0.00    -0.270 OA
ENDBRANCH   1   4
BRANCH   1   9
HETATM    9  N3  UNL     1      -0.868   3.045  83.969  1.00  0.00    -0.211 N
HETATM   10  C6  UNL     1      -0.077   2.749  82.853  1.00  0.00     0.309 C
HETATM   11  O2  UNL     1       0.465   1.578  82.774  1.00  0.00    -0.262 OA
BRANCH   9  12
HETATM   12  N4  UNL     1      -1.029   1.999  84.961  1.00  0.00    -0.023 NA
BRANCH  12  13
HETATM   13  N5  UNL     1       0.084   1.890  85.764  1.00  0.00    -0.328 N
ATOM     14  H52 UNL     1       1.028   1.765  85.400  1.00  0.00     0.174 HD
ATOM     15  H51 UNL     1      -0.160   1.948  86.752  1.00  0.00     0.174 HD
ENDBRANCH  12  13
ENDBRANCH   9  12
BRANCH  10  16
HETATM   16  C7  UNL     1       0.188   3.673  81.769  1.00  0.00     0.213 A
HETATM   17  N6  UNL     1      -0.608   3.863  80.719  1.00  0.00    -0.278 N
HETATM   18  N7  UNL     1      -0.356   4.688  79.752  1.00  0.00    -0.281 N
ATOM     19  H6  UNL     1      -1.472   3.324  80.671  1.00  0.00     0.189 HD
HETATM   20  C8  UNL     1       0.784   5.463  79.722  1.00  0.00     0.169 A
ATOM     21  H7  UNL     1      -1.025   4.768  78.987  1.00  0.00     0.188 HD
HETATM   22  C14 UNL     1       1.612   5.280  80.800  1.00  0.00     0.168 A
HETATM   23  N12 UNL     1       1.339   4.398  81.823  1.00  0.00    -0.220 N
BRANCH  20  24
HETATM   24  N8  UNL     1       0.981   6.231  78.778  1.00  0.00    -0.305 N
HETATM   25  C9  UNL     1       0.498   6.518  77.539  1.00  0.00     0.260 C
HETATM   26  O3  UNL     1       1.025   5.982  76.492  1.00  0.00    -0.267 OA
ATOM     27  H8  UNL     1       1.759   6.854  78.997  1.00  0.00     0.171 HD
BRANCH  25  28
HETATM   28  C10 UNL     1      -0.615   7.416  77.235  1.00  0.00     0.066 A
HETATM   29  C11 UNL     1      -1.150   7.734  76.017  1.00  0.00     0.125 A
HETATM   30  N9  UNL     1      -2.144   8.591  76.257  1.00  0.00    -0.309 N
HETATM   31  N10 UNL     1      -2.255   8.822  77.560  1.00  0.00    -0.307 N
ATOM     32  H9  UNL     1      -2.737   9.010  75.539  1.00  0.00     0.186 HD
HETATM   33  C12 UNL     1      -3.233   9.706  78.191  1.00  0.00     0.177 C
HETATM   34  C13 UNL     1      -1.326   8.112  78.193  1.00  0.00     0.128 A
ENDBRANCH  25  28
ENDBRANCH  20  24
BRANCH  22  35
HETATM   35  N11 UNL     1       2.694   5.926  80.991  1.00  0.00    -0.381 N
ATOM     36 2H11 UNL     1       2.731   6.791  80.451  1.00  0.00     0.157 HD
ATOM     37 1H11 UNL     1       3.456   5.607  81.590  1.00  0.00     0.157 HD
ENDBRANCH  22  35
BRANCH  23  38
HETATM   38  N13 UNL     1       2.216   4.256  82.888  1.00  0.00    -0.335 N
ATOM     39 2H13 UNL     1       2.035   4.721  83.778  1.00  0.00     0.177 HD
ATOM     40 1H13 UNL     1       3.054   3.681  82.799  1.00  0.00     0.177 HD
ENDBRANCH  23  38
ENDBRANCH  10  16
ENDBRANCH   1   9
TORSDOF 9
ENDMDL