MODEL 2
REMARK VINA RESULT: -7.586693390      1.954      6.603
REMARK  7 active torsions:
REMARK  status: ('A' for Active; 'I' for Inactive)
REMARK    1  A    between atoms: O1_2  and  C2_3
REMARK    2  A    between atoms: C5_9  and  N2_10
REMARK    3  A    between atoms: N2_10  and  C6_12
REMARK    4  A    between atoms: C6_12  and  C7_13
REMARK    5  A    between atoms: C7_13  and  N3_14
REMARK       I    between atoms: N4_16  and  C9_18
REMARK    6  A    between atoms: C9_18  and  C10_20
REMARK    7  A    between atoms: C10_20  and  O4_21
ROOT
HETATM    1  N3  UNL     1      -1.128   4.993  84.655  1.00  0.00    -0.172 N
HETATM    2  C8  UNL     1      -0.276   4.546  83.682  1.00  0.00     0.689 A
HETATM    3  N4  UNL     1       0.217   5.305  82.769  1.00  0.00    -0.157 N
ATOM      4  H4  UNL     1      -0.023   6.296  82.748  1.00  0.00     0.187 HD
HETATM    5  C9  UNL     1       1.096   4.771  81.790  1.00  0.00     0.259 C
HETATM    6  O3  UNL     1       2.158   4.158  82.086  1.00  0.00    -0.270 OA
HETATM    7  N5  UNL     1      -0.043   3.252  83.820  1.00  0.00    -0.173 N
ATOM      8  H5  UNL     1       0.558   2.687  83.221  1.00  0.00     0.186 HD
HETATM    9  C11 UNL     1      -0.728   2.813  84.877  1.00  0.00     0.160 A
HETATM   10  C12 UNL     1      -1.411   3.916  85.402  1.00  0.00     0.164 A
HETATM   11  C13 UNL     1      -2.204   3.757  86.505  1.00  0.00     0.280 A
HETATM   12  O5  UNL     1      -2.818   4.748  86.976  1.00  0.00    -0.265 OA
HETATM   13  N6  UNL     1      -2.340   2.563  87.097  1.00  0.00    -0.273 N
ATOM     14  H6  UNL     1      -2.932   2.452  87.920  1.00  0.00     0.173 HD
HETATM   15  C14 UNL     1      -1.679   1.519  86.582  1.00  0.00     0.330 A
HETATM   16  O6  UNL     1      -1.799   0.409  87.125  1.00  0.00    -0.246 OA
HETATM   17  N7  UNL     1      -0.903   1.648  85.511  1.00  0.00    -0.287 N
HETATM   18  C15 UNL     1      -0.218   0.476  85.006  1.00  0.00     0.163 C
ENDROOT
BRANCH   1  19
HETATM   19  C7  UNL     1      -1.589   6.347  84.801  1.00  0.00     0.168 C
BRANCH  19  20
HETATM   20  C6  UNL     1      -2.499   6.775  83.642  1.00  0.00     0.159 C
BRANCH  20  21
HETATM   21  N2  UNL     1      -2.198   8.140  83.362  1.00  0.00    -0.224 N
ATOM     22  H2  UNL     1      -2.282   8.805  84.131  1.00  0.00     0.177 HD
BRANCH  21  23
HETATM   23  C5  UNL     1      -1.826   8.607  82.204  1.00  0.00     0.682 A
HETATM   24  N1  UNL     1      -1.393   9.857  82.019  1.00  0.00    -0.156 N
HETATM   25  C4  UNL     1      -1.017  10.312  80.816  1.00  0.00     0.263 A
ATOM     26  H1  UNL     1      -1.348  10.486  82.820  1.00  0.00     0.187 HD
HETATM   27  C3  UNL     1      -1.079   9.459  79.737  1.00  0.00     0.131 A
HETATM   28  O2  UNL     1      -0.605  11.513  80.659  1.00  0.00    -0.268 OA
HETATM   29  C2  UNL     1      -1.523   8.159  79.893  1.00  0.00     0.162 A
HETATM   30  N8  UNL     1      -1.878   7.791  81.126  1.00  0.00    -0.170 N
ATOM     31  H8  UNL     1      -2.208   6.836  81.264  1.00  0.00     0.186 HD
BRANCH  29  32
HETATM   32  O1  UNL     1      -1.584   7.299  78.800  1.00  0.00    -0.340 OA
HETATM   33  C1  UNL     1      -0.738   7.465  77.678  1.00  0.00     0.211 C
ENDBRANCH  29  32
ENDBRANCH  21  23
ENDBRANCH  20  21
ENDBRANCH  19  20
ENDBRANCH   1  19
BRANCH   5  34
HETATM   34  C10 UNL     1       0.749   4.942  80.369  1.00  0.00     0.267 C
BRANCH  34  35
HETATM   35  O4  UNL     1      -0.636   4.885  80.180  1.00  0.00    -0.392 OA
ATOM     36  H4  UNL     1      -1.097   5.257  80.923  1.00  0.00     0.210 HD
ENDBRANCH  34  35
ENDBRANCH   5  34
TORSDOF 7
ENDMDL