MODEL 5
REMARK VINA RESULT: -6.987025329      1.580      2.045
REMARK  9 active torsions:
REMARK  status: ('A' for Active; 'I' for Inactive)
REMARK    1  A    between atoms: C3_3  and  N1_4
REMARK    2  A    between atoms: C3_3  and  C7_20
REMARK       I    between atoms: N1_4  and  C4_6
REMARK    3  A    between atoms: C4_6  and  C5_8
REMARK    4  A    between atoms: C5_8  and  N2_9
REMARK    5  A    between atoms: C5_8  and  C6_13
REMARK    6  A    between atoms: C6_13  and  O2_14
REMARK    7  A    between atoms: C6_13  and  N3_16
REMARK    8  A    between atoms: N3_16  and  N4_17
REMARK    9  A    between atoms: C7_20  and  C8_22
ROOT
HETATM    1  C1  UNL     1       4.720   4.570  80.774  1.00  0.00     0.014 C
HETATM    2  C2  UNL     1       3.710   5.180  81.079  1.00  0.00    -0.084 C
HETATM    3  C3  UNL     1       2.457   5.922  81.421  1.00  0.00     0.235 C
ENDROOT
BRANCH   3   4
HETATM    4  N1  UNL     1       1.661   5.820  80.179  1.00  0.00    -0.337 N
HETATM    5  C4  UNL     1       0.781   6.861  79.812  1.00  0.00     0.253 C
HETATM    6  O1  UNL     1       0.660   7.908  80.540  1.00  0.00    -0.271 OA
ATOM      7  H1  UNL     1       1.749   4.996  79.585  1.00  0.00     0.164 HD
BRANCH   5   8
HETATM    8  C5  UNL     1      -0.041   6.814  78.584  1.00  0.00     0.320 C
BRANCH   8   9
HETATM    9  N2  UNL     1       0.716   7.336  77.447  1.00  0.00    -0.063 N
ATOM     10  H23 UNL     1       0.440   8.289  77.211  1.00  0.00     0.275 HD
ATOM     11  H22 UNL     1       1.690   7.518  77.689  1.00  0.00     0.275 HD
ATOM     12  H21 UNL     1       0.634   6.706  76.648  1.00  0.00     0.275 HD
ENDBRANCH   8   9
BRANCH   8  13
HETATM   13  C6  UNL     1      -1.342   7.613  78.724  1.00  0.00     0.270 C
BRANCH  13  14
HETATM   14  O2  UNL     1      -2.270   6.877  79.404  1.00  0.00    -0.375 OA
ATOM     15  H2  UNL     1      -2.019   5.961  79.409  1.00  0.00     0.211 HD
ENDBRANCH  13  14
BRANCH  13  16
HETATM   16  N3  UNL     1      -1.814   7.912  77.400  1.00  0.00    -0.114 NA
BRANCH  16  17
HETATM   17  N4  UNL     1      -2.739   8.932  77.355  1.00  0.00    -0.346 N
ATOM     18  H42 UNL     1      -2.693   9.677  76.659  1.00  0.00     0.172 HD
ATOM     19  H41 UNL     1      -3.459   8.869  78.074  1.00  0.00     0.172 HD
ENDBRANCH  16  17
ENDBRANCH  13  16
ENDBRANCH   8  13
ENDBRANCH   5   8
ENDBRANCH   3   4
BRANCH   3  20
HETATM   20  C7  UNL     1       1.799   5.181  82.499  1.00  0.00     0.192 C
HETATM   21  O3  UNL     1       1.686   3.950  82.328  1.00  0.00    -0.292 OA
BRANCH  20  22
HETATM   22  C8  UNL     1       1.257   5.740  83.762  1.00  0.00     0.240 C
HETATM   23  N5  UNL     1       0.244   6.720  83.475  1.00  0.00    -0.300 N
HETATM   24  S1  UNL     1      -1.264   6.063  83.025  1.00  0.00     0.231 S
ATOM     25  H5  UNL     1       0.413   7.724  83.535  1.00  0.00     0.173 HD
HETATM   26  O4  UNL     1      -1.163   4.737  82.340  1.00  0.00    -0.206 OA
HETATM   27  O5  UNL     1      -2.055   6.995  82.152  1.00  0.00    -0.206 OA
HETATM   28  C9  UNL     1      -2.180   5.806  84.529  1.00  0.00     0.202 C
HETATM   29  C10 UNL     1      -1.558   4.651  85.249  1.00  0.00    -0.029 A
HETATM   30  C11 UNL     1      -2.598   3.972  85.880  1.00  0.00     0.009 A
HETATM   31  C15 UNL     1      -0.269   4.242  85.350  1.00  0.00     0.020 A
HETATM   32  C12 UNL     1      -2.301   2.856  86.627  1.00  0.00     0.001 A
HETATM   33  C13 UNL     1      -1.013   2.391  86.770  1.00  0.00     0.001 A
HETATM   34  C14 UNL     1      -0.027   3.096  86.127  1.00  0.00     0.016 A
HETATM   35  C16 UNL     1       0.957   4.774  84.803  1.00  0.00     0.190 C
HETATM   36  O6  UNL     1       1.989   4.281  85.370  1.00  0.00    -0.290 OA
ENDBRANCH  20  22
ENDBRANCH   3  20
TORSDOF 9
ENDMDL