MODEL 4
REMARK VINA RESULT: -7.640965706      2.307      7.964
REMARK  6 active torsions:
REMARK  status: ('A' for Active; 'I' for Inactive)
REMARK    1  A    between atoms: N2_5  and  C3_6
REMARK    2  A    between atoms: C3_6  and  C4_7
REMARK    3  A    between atoms: C4_7  and  N4_10
REMARK       I    between atoms: N4_10  and  C6_12
REMARK    4  A    between atoms: C6_12  and  C7_14
REMARK    5  A    between atoms: C7_14  and  C8_15
REMARK    6  A    between atoms: C11_21  and  N6_22
ROOT
HETATM    1  C4  UNL     1       0.547   6.245  80.848  1.00  0.00     0.210 C
HETATM    2  C5  UNL     1      -0.719   6.439  80.230  1.00  0.00     0.086 C
HETATM    3  N3  UNL     1      -1.734   6.617  79.724  1.00  0.00    -0.195 NA
ENDROOT
BRANCH   1   4
HETATM    4  C3  UNL     1       1.722   7.057  80.312  1.00  0.00     0.175 C
BRANCH   4   5
HETATM    5  N2  UNL     1       2.558   6.398  79.365  1.00  0.00    -0.279 N
HETATM    6  C2  UNL     1       2.232   6.313  78.052  1.00  0.00     0.331 A
HETATM    7  N1  UNL     1       3.174   5.657  77.392  1.00  0.00    -0.286 N
HETATM    8  O1  UNL     1       1.194   6.774  77.463  1.00  0.00    -0.246 OA
HETATM    9  C1  UNL     1       3.217   5.339  75.961  1.00  0.00     0.163 C
HETATM   10  C13 UNL     1       4.120   5.319  78.286  1.00  0.00     0.159 A
HETATM   11  C12 UNL     1       3.749   5.781  79.532  1.00  0.00     0.162 A
HETATM   12  N8  UNL     1       5.297   4.660  78.111  1.00  0.00    -0.301 N
HETATM   13  N9  UNL     1       4.568   5.594  80.611  1.00  0.00    -0.297 N
HETATM   14  C15 UNL     1       5.741   4.929  80.394  1.00  0.00     0.317 A
HETATM   15  C16 UNL     1       4.279   6.153  81.887  1.00  0.00     0.161 C
HETATM   16  C14 UNL     1       6.112   4.460  79.156  1.00  0.00     0.315 A
HETATM   17  O5  UNL     1       6.482   4.761  81.393  1.00  0.00    -0.262 OA
HETATM   18  O4  UNL     1       7.213   3.861  79.075  1.00  0.00    -0.262 OA
ATOM     19  H8  UNL     1       5.560   4.320  77.186  1.00  0.00     0.171 HD
ENDBRANCH   4   5
ENDBRANCH   1   4
BRANCH   1  20
HETATM   20  N4  UNL     1       0.477   6.225  82.296  1.00  0.00    -0.342 N
HETATM   21  C6  UNL     1       0.864   5.130  83.081  1.00  0.00     0.224 C
HETATM   22  O2  UNL     1       1.314   4.051  82.612  1.00  0.00    -0.273 OA
ATOM     23  H4  UNL     1       0.124   7.056  82.771  1.00  0.00     0.163 HD
BRANCH  21  24
HETATM   24  C7  UNL     1       0.757   5.197  84.569  1.00  0.00     0.160 C
BRANCH  24  25
HETATM   25  C8  UNL     1      -0.134   4.145  85.118  1.00  0.00     0.040 A
HETATM   26  C9  UNL     1      -1.379   4.460  85.655  1.00  0.00     0.101 A
HETATM   27  C10 UNL     1      -2.140   3.423  86.142  1.00  0.00     0.261 A
HETATM   28  O3  UNL     1      -3.267   3.643  86.636  1.00  0.00    -0.268 OA
HETATM   29  N5  UNL     1      -1.674   2.144  86.089  1.00  0.00    -0.156 N
HETATM   30  C11 UNL     1      -0.470   1.872  85.564  1.00  0.00     0.678 A
ATOM     31  H5  UNL     1      -2.249   1.384  86.453  1.00  0.00     0.187 HD
HETATM   32  N7  UNL     1       0.292   2.873  85.083  1.00  0.00    -0.195 N
ATOM     33  H7  UNL     1       1.207   2.662  84.686  1.00  0.00     0.184 HD
BRANCH  30  34
HETATM   34  N6  UNL     1      -0.074   0.656  85.537  1.00  0.00    -0.234 N
ATOM     35  H62 UNL     1      -0.323  -0.004  86.274  1.00  0.00     0.174 HD
ATOM     36  H61 UNL     1       0.503   0.348  84.754  1.00  0.00     0.174 HD
ENDBRANCH  30  34
ENDBRANCH  24  25
ENDBRANCH  21  24
ENDBRANCH   1  20
TORSDOF 6
ENDMDL