MODEL 3
REMARK VINA RESULT: -8.690666251      2.726      3.703
REMARK  6 active torsions:
REMARK  status: ('A' for Active; 'I' for Inactive)
REMARK    1  A    between atoms: N1_2  and  C2_3
REMARK    2  A    between atoms: N1_2  and  S1_13
REMARK    3  A    between atoms: C2_3  and  C3_4
REMARK    4  A    between atoms: C2_3  and  C4_7
REMARK       I    between atoms: C4_7  and  N3_9
REMARK    5  A    between atoms: N3_9  and  N4_10
REMARK    6  A    between atoms: S1_13  and  N5_16
ROOT
HETATM    1  N5  UNL     1       0.440   4.059  81.034  1.00  0.00    -0.271 N
ATOM      2  H5  UNL     1       0.542   3.556  80.153  1.00  0.00     0.180 HD
HETATM    3  C5  UNL     1       1.211   5.044  81.162  1.00  0.00     0.059 A
HETATM    4  C6  UNL     1       2.077   5.297  80.098  1.00  0.00     0.118 A
HETATM    5  N6  UNL     1       2.953   6.301  80.091  1.00  0.00    -0.360 N
ATOM      6  H6  UNL     1       3.555   6.427  79.277  1.00  0.00     0.165 HD
HETATM    7  C7  UNL     1       3.067   7.142  81.112  1.00  0.00     0.086 A
HETATM    8  C8  UNL     1       3.977   8.193  81.122  1.00  0.00     0.145 A
HETATM    9  N7  UNL     1       4.832   8.387  79.999  1.00  0.00    -0.080 NA
HETATM   10  N8  UNL     1       4.043   9.020  82.202  1.00  0.00    -0.327 N
ATOM     11  H8  UNL     1       4.712   9.789  82.202  1.00  0.00     0.168 HD
HETATM   12  C9  UNL     1       3.247   8.843  83.265  1.00  0.00     0.137 A
HETATM   13  C10 UNL     1       2.307   7.801  83.317  1.00  0.00     0.090 A
HETATM   14  N9  UNL     1       1.687   7.901  84.488  1.00  0.00    -0.348 N
ATOM     15  H9  UNL     1       0.947   7.282  84.822  1.00  0.00     0.167 HD
HETATM   16  C11 UNL     1       2.202   8.965  85.173  1.00  0.00     0.184 A
HETATM   17  N10 UNL     1       3.155   9.533  84.411  1.00  0.00    -0.332 N
HETATM   18  C12 UNL     1       3.932  10.686  84.786  1.00  0.00     0.158 C
HETATM   19  C13 UNL     1       2.191   6.931  82.256  1.00  0.00     0.027 A
HETATM   20  C14 UNL     1       1.289   5.886  82.240  1.00  0.00     0.048 A
ENDROOT
BRANCH   1  21
HETATM   21  S1  UNL     1      -0.732   3.426  82.061  1.00  0.00     0.304 S
HETATM   22  O3  UNL     1      -1.555   4.528  82.665  1.00  0.00    -0.188 OA
HETATM   23  O4  UNL     1      -1.663   2.537  81.295  1.00  0.00    -0.188 OA
BRANCH  21  24
HETATM   24  N1  UNL     1       0.024   2.470  83.350  1.00  0.00    -0.174 NA
HETATM   25  C1  UNL     1      -0.038   1.127  82.864  1.00  0.00     0.132 C
BRANCH  24  26
HETATM   26  C2  UNL     1      -0.598   2.710  84.565  1.00  0.00     0.273 C
BRANCH  26  27
HETATM   27  C3  UNL     1      -0.486   1.676  85.594  1.00  0.00     0.260 C
HETATM   28  N2  UNL     1      -1.716   0.996  86.040  1.00  0.00    -0.060 NA
HETATM   29  O1  UNL     1       0.544   1.269  86.174  1.00  0.00    -0.274 OA
ENDBRANCH  26  27
BRANCH  26  30
HETATM   30  C4  UNL     1       0.034   3.945  85.271  1.00  0.00     0.339 C
HETATM   31  O2  UNL     1      -0.883   4.585  85.889  1.00  0.00    -0.253 OA
HETATM   32  N3  UNL     1       1.311   4.235  85.214  1.00  0.00    -0.292 NA
BRANCH  32  33
HETATM   33  N4  UNL     1       2.646   4.542  85.158  1.00  0.00    -0.277 N
ATOM     34  H42 UNL     1       1.639   4.472  85.306  1.00  0.00     0.191 HD
ATOM     35  H41 UNL     1       3.640   4.767  85.115  1.00  0.00     0.191 HD
ENDBRANCH  32  33
ENDBRANCH  26  30
ENDBRANCH  24  26
ENDBRANCH  21  24
ENDBRANCH   1  21
TORSDOF 6
ENDMDL