MODEL 4
REMARK VINA RESULT: -7.545196350      2.112      3.050
REMARK  5 active torsions:
REMARK  status: ('A' for Active; 'I' for Inactive)
REMARK       I    between atoms: N1_2  and  C2_3
REMARK    1  A    between atoms: N1_2  and  C8_15
REMARK    2  A    between atoms: C2_3  and  C3_5
REMARK    3  A    between atoms: C3_5  and  N2_6
REMARK    4  A    between atoms: C9_16  and  C10_17
REMARK    5  A    between atoms: C10_17  and  N4_18
ROOT
HETATM    1  C8  UNL     1      -1.029   6.597  81.885  1.00  0.00     0.130 A
HETATM    2  C9  UNL     1      -0.348   5.987  80.878  1.00  0.00     0.067 A
HETATM    3  N8  UNL     1      -0.600   6.344  79.566  1.00  0.00    -0.308 N
ATOM      4  H8  UNL     1      -0.078   5.876  78.824  1.00  0.00     0.170 HD
HETATM    5  C13 UNL     1      -1.496   7.274  79.227  1.00  0.00     0.327 A
HETATM    6  O5  UNL     1      -1.717   7.592  78.018  1.00  0.00    -0.247 OA
HETATM    7  N9  UNL     1      -2.168   7.874  80.220  1.00  0.00    -0.274 N
ATOM      8  H9  UNL     1      -2.858   8.588  79.983  1.00  0.00     0.173 HD
HETATM    9  C14 UNL     1      -1.970   7.574  81.512  1.00  0.00     0.278 A
HETATM   10  O6  UNL     1      -2.598   8.133  82.449  1.00  0.00    -0.265 OA
ENDROOT
BRANCH   1  11
HETATM   11  N1  UNL     1      -0.829   6.358  83.278  1.00  0.00    -0.315 N
HETATM   12  C1  UNL     1       0.202   7.119  84.001  1.00  0.00     0.159 C
HETATM   13  C2  UNL     1      -1.597   5.440  84.038  1.00  0.00     0.242 C
HETATM   14  O1  UNL     1      -2.475   4.731  83.485  1.00  0.00    -0.271 OA
BRANCH  13  15
HETATM   15  C3  UNL     1      -1.380   5.310  85.477  1.00  0.00     0.236 C
BRANCH  15  16
HETATM   16  N2  UNL     1      -1.488   3.946  85.945  1.00  0.00    -0.301 N
HETATM   17  C4  UNL     1      -2.639   3.464  86.414  1.00  0.00     0.102 A
HETATM   18  C5  UNL     1      -2.795   2.170  86.861  1.00  0.00     0.092 A
HETATM   19  C6  UNL     1      -1.677   1.360  86.803  1.00  0.00     0.250 A
HETATM   20  O2  UNL     1      -1.757   0.150  87.202  1.00  0.00    -0.268 OA
HETATM   21  N3  UNL     1      -0.512   1.847  86.328  1.00  0.00    -0.275 N
HETATM   22  C7  UNL     1      -0.419   3.137  85.900  1.00  0.00     0.329 A
ATOM     23  H3  UNL     1       0.308   1.241  86.288  1.00  0.00     0.173 HD
HETATM   24  O3  UNL     1       0.665   3.573  85.463  1.00  0.00    -0.246 OA
ENDBRANCH  15  16
ENDBRANCH  13  15
ENDBRANCH   1  11
BRANCH   2  25
HETATM   25  C10 UNL     1       0.635   4.931  81.108  1.00  0.00     0.229 C
BRANCH  25  26
HETATM   26  N4  UNL     1       2.021   5.342  80.927  1.00  0.00    -0.224 N
HETATM   27  N5  UNL     1       2.765   5.342  79.868  1.00  0.00    -0.266 N
HETATM   28  C11 UNL     1       4.007   5.792  80.086  1.00  0.00     0.202 A
ATOM     29  H5  UNL     1       2.437   5.028  78.955  1.00  0.00     0.190 HD
HETATM   30  N6  UNL     1       5.082   5.923  79.153  1.00  0.00    -0.075 NA
HETATM   31  C12 UNL     1       4.033   6.107  81.437  1.00  0.00     0.303 A
HETATM   32  O4  UNL     1       5.038   6.569  82.051  1.00  0.00    -0.263 OA
HETATM   33  N7  UNL     1       2.817   5.820  81.904  1.00  0.00    -0.246 N
ATOM     34  H7  UNL     1       2.529   5.946  82.875  1.00  0.00     0.192 HD
ENDBRANCH  25  26
ENDBRANCH   2  25
TORSDOF 5
ENDMDL