MODEL 2
REMARK VINA RESULT: -8.140537624      0.841      1.243
REMARK  6 active torsions:
REMARK  status: ('A' for Active; 'I' for Inactive)
REMARK    1  A    between atoms: C1_2  and  C2_4
REMARK    2  A    between atoms: C2_4  and  N1_5
REMARK    3  A    between atoms: N1_5  and  N2_6
REMARK       I    between atoms: N2_6  and  C3_8
REMARK    4  A    between atoms: C3_8  and  C4_10
REMARK    5  A    between atoms: C4_10  and  N3_11
REMARK       I    between atoms: N6_21  and  C9_23
REMARK    6  A    between atoms: C9_23  and  C10_25
ROOT
HETATM    1  N3  UNL     1      -0.870   3.958  85.934  1.00  0.00    -0.274 N
HETATM    2  C5  UNL     1      -2.068   4.590  86.066  1.00  0.00     0.329 A
HETATM    3  O4  UNL     1      -3.067   4.266  86.787  1.00  0.00    -0.246 OA
HETATM    4  N4  UNL     1      -2.004   5.655  85.254  1.00  0.00    -0.304 N
ATOM      5  H4  UNL     1      -2.765   6.324  85.148  1.00  0.00     0.171 HD
HETATM    6  C6  UNL     1      -0.850   5.753  84.599  1.00  0.00     0.097 A
HETATM    7  C7  UNL     1      -0.315   6.608  83.661  1.00  0.00     0.139 A
HETATM    8  N5  UNL     1       0.910   6.419  83.149  1.00  0.00    -0.199 N
ATOM      9  H5  UNL     1       1.295   7.060  82.455  1.00  0.00     0.183 HD
HETATM   10  C8  UNL     1       1.621   5.354  83.580  1.00  0.00     0.686 A
HETATM   11  N6  UNL     1       2.788   5.038  83.111  1.00  0.00    -0.155 N
ATOM     12  H6  UNL     1       3.262   4.220  83.493  1.00  0.00     0.187 HD
HETATM   13  C9  UNL     1       3.432   5.784  82.089  1.00  0.00     0.275 C
HETATM   14  O5  UNL     1       3.134   5.442  80.890  1.00  0.00    -0.267 OA
HETATM   15  N8  UNL     1       1.124   4.496  84.504  1.00  0.00    -0.174 N
ATOM     16  H8  UNL     1       1.695   3.706  84.806  1.00  0.00     0.186 HD
HETATM   17  C14 UNL     1      -0.110   4.658  85.035  1.00  0.00     0.156 A
ENDROOT
BRANCH  13  18
HETATM   18  C10 UNL     1       4.370   6.867  82.264  1.00  0.00     0.106 A
HETATM   19  C11 UNL     1       4.119   8.081  82.732  1.00  0.00     0.097 A
HETATM   20  C12 UNL     1       5.329   8.889  82.756  1.00  0.00     0.249 A
HETATM   21  O6  UNL     1       5.438  10.089  83.147  1.00  0.00    -0.268 OA
HETATM   22  N7  UNL     1       6.394   8.070  82.255  1.00  0.00    -0.290 N
HETATM   23  C13 UNL     1       5.794   6.834  81.957  1.00  0.00     0.264 A
ATOM     24  H7  UNL     1       7.374   8.329  82.140  1.00  0.00     0.172 HD
HETATM   25  O7  UNL     1       6.433   5.830  81.490  1.00  0.00    -0.267 OA
ENDBRANCH  13  18
BRANCH   1  26
HETATM   26  C4  UNL     1      -0.500   2.744  86.561  1.00  0.00     0.239 C
BRANCH  26  27
HETATM   27  C3  UNL     1      -0.763   1.453  85.871  1.00  0.00     0.251 C
HETATM   28  N2  UNL     1      -0.251   1.166  84.605  1.00  0.00    -0.272 N
ATOM     29  H2  UNL     1       0.288   1.916  84.173  1.00  0.00     0.185 HD
HETATM   30  O3  UNL     1      -1.456   0.616  86.482  1.00  0.00    -0.270 OA
BRANCH  28  31
HETATM   31  N1  UNL     1      -0.369   0.012  83.850  1.00  0.00    -0.128 NA
BRANCH  31  32
HETATM   32  C2  UNL     1      -0.210   0.414  82.427  1.00  0.00     0.248 C
BRANCH  32  33
HETATM   33  C1  UNL     1      -0.283   1.922  82.303  1.00  0.00     0.189 C
HETATM   34  O1  UNL     1       0.806   2.596  82.382  1.00  0.00    -0.647 OA
HETATM   35  O2  UNL     1      -1.436   2.638  82.102  1.00  0.00    -0.647 OA
ENDBRANCH  32  33
ENDBRANCH  31  32
ENDBRANCH  28  31
ENDBRANCH  26  27
ENDBRANCH   1  26
TORSDOF 6
ENDMDL