MODEL 5
REMARK VINA RESULT: -7.247004371      1.873      2.964
REMARK  9 active torsions:
REMARK  status: ('A' for Active; 'I' for Inactive)
REMARK    1  A    between atoms: C2_3  and  C3_4
REMARK    2  A    between atoms: C3_4  and  O1_5
REMARK    3  A    between atoms: C4_7  and  C5_8
REMARK       I    between atoms: C5_8  and  N2_10
REMARK    4  A    between atoms: N2_10  and  N3_12
REMARK    5  A    between atoms: N3_12  and  C6_13
REMARK    6  A    between atoms: C6_13  and  O3_14
REMARK    7  A    between atoms: C7_16  and  N4_17
REMARK    8  A    between atoms: N4_17  and  C8_19
REMARK    9  A    between atoms: C11_22  and  C12_23
ROOT
HETATM    1  N3  UNL     1       1.293   7.758  81.987  1.00  0.00    -0.295 NA
ENDROOT
BRANCH   1   2
HETATM    2  N2  UNL     1       2.401   7.812  81.162  1.00  0.00    -0.196 N
HETATM    3  C5  UNL     1       3.032   6.610  80.821  1.00  0.00     0.287 C
HETATM    4  O2  UNL     1       2.348   5.557  81.145  1.00  0.00    -0.265 OA
ATOM      5  H2  UNL     1       2.750   8.704  80.811  1.00  0.00     0.205 HD
BRANCH   3   6
HETATM    6  C4  UNL     1       4.306   6.310  80.239  1.00  0.00     0.127 A
HETATM    7  C2  UNL     1       4.495   5.532  79.089  1.00  0.00     0.060 A
HETATM    8  N1  UNL     1       5.687   4.896  78.901  1.00  0.00    -0.304 N
HETATM    9  C1  UNL     1       5.978   3.923  77.854  1.00  0.00     0.161 C
HETATM   10  C15 UNL     1       6.711   5.010  79.798  1.00  0.00     0.331 A
HETATM   11  N8  UNL     1       6.563   5.778  80.919  1.00  0.00    -0.270 N
HETATM   12  O6  UNL     1       7.796   4.389  79.621  1.00  0.00    -0.246 OA
HETATM   13  C13 UNL     1       5.415   6.398  81.136  1.00  0.00     0.269 A
HETATM   14  C14 UNL     1       7.646   5.815  81.902  1.00  0.00     0.164 C
HETATM   15  O5  UNL     1       5.217   7.109  82.143  1.00  0.00    -0.267 OA
BRANCH   7  16
HETATM   16  C3  UNL     1       3.488   5.655  78.048  1.00  0.00     0.222 C
BRANCH  16  17
HETATM   17  O1  UNL     1       2.464   4.777  78.022  1.00  0.00    -0.395 OA
ATOM     18  H1  UNL     1       2.539   3.967  78.512  1.00  0.00     0.209 HD
ENDBRANCH  16  17
ENDBRANCH   7  16
ENDBRANCH   3   6
ENDBRANCH   1   2
BRANCH   1  19
HETATM   19  C6  UNL     1       0.258   7.714  82.743  1.00  0.00     0.254 C
HETATM   20  C7  UNL     1      -0.282   7.014  83.850  1.00  0.00     0.163 C
BRANCH  19  21
HETATM   21  O3  UNL     1      -0.750   8.660  82.402  1.00  0.00    -0.333 OA
ATOM     22  H3  UNL     1      -1.511   8.636  82.969  1.00  0.00     0.220 HD
ENDBRANCH  19  21
BRANCH  20  23
HETATM   23  N4  UNL     1       0.436   6.085  84.661  1.00  0.00    -0.346 N
ATOM     24  H4  UNL     1       1.351   6.315  85.048  1.00  0.00     0.167 HD
BRANCH  23  25
HETATM   25  C8  UNL     1      -0.131   4.919  84.891  1.00  0.00     0.119 A
HETATM   26  C9  UNL     1      -1.476   4.782  85.133  1.00  0.00     0.052 A
HETATM   27  C10 UNL     1      -2.016   3.683  85.790  1.00  0.00     0.040 A
HETATM   28  C11 UNL     1      -1.162   2.668  86.196  1.00  0.00     0.113 A
HETATM   29  N6  UNL     1       0.108   2.822  85.921  1.00  0.00    -0.294 N
HETATM   30  N7  UNL     1       0.666   3.877  85.301  1.00  0.00    -0.285 N
ATOM     31  H6  UNL     1       0.735   2.070  86.206  1.00  0.00     0.187 HD
ATOM     32  H7  UNL     1       1.672   3.903  85.136  1.00  0.00     0.188 HD
BRANCH  28  33
HETATM   33  C12 UNL     1      -1.761   1.541  86.960  1.00  0.00     0.282 C
HETATM   34  N5  UNL     1      -3.169   1.259  86.657  1.00  0.00    -0.056 NA
HETATM   35  O4  UNL     1      -1.176   0.877  87.782  1.00  0.00    -0.269 OA
ENDBRANCH  28  33
ENDBRANCH  23  25
ENDBRANCH  20  23
ENDBRANCH   1  19
TORSDOF 9
ENDMDL