MODEL 4
REMARK VINA RESULT: -7.581633194      2.138      4.150
REMARK  7 active torsions:
REMARK  status: ('A' for Active; 'I' for Inactive)
REMARK    1  A    between atoms: C1_2  and  C2_4
REMARK    2  A    between atoms: N4_9  and  C3_10
REMARK    3  A    between atoms: C3_10  and  C4_11
REMARK    4  A    between atoms: C4_11  and  C5_12
REMARK    5  A    between atoms: C11_18  and  C12_19
REMARK    6  A    between atoms: C17_32  and  N7_33
REMARK    7  A    between atoms: N8_37  and  N9_38
ROOT
HETATM    1  C12 UNL     1       0.846   7.019  82.388  1.00  0.00     0.194 C
HETATM    2  C13 UNL     1       2.124   6.714  83.149  1.00  0.00     0.239 C
HETATM    3  O2  UNL     1       2.482   7.476  84.086  1.00  0.00    -0.272 OA
HETATM    4  N5  UNL     1       2.981   5.630  82.911  1.00  0.00    -0.290 N
ATOM      5  H5  UNL     1       3.931   5.647  83.282  1.00  0.00     0.172 HD
HETATM    6  C14 UNL     1       2.541   4.503  82.154  1.00  0.00     0.298 C
HETATM    7  O3  UNL     1       3.247   3.498  81.907  1.00  0.00    -0.264 OA
HETATM    8  C15 UNL     1       1.172   4.620  81.687  1.00  0.00     0.271 C
HETATM    9  O4  UNL     1       0.481   3.591  81.518  1.00  0.00    -0.283 OA
HETATM   10  C16 UNL     1       0.563   5.956  81.398  1.00  0.00     0.291 C
HETATM   11  N6  UNL     1       1.336   6.350  80.130  1.00  0.00     0.001 N
ATOM     12  H61 UNL     1       2.224   5.893  79.923  1.00  0.00     0.284 HD
ATOM     13  H62 UNL     1       1.783   7.266  80.080  1.00  0.00     0.284 HD
HETATM   14  C17 UNL     1       0.215   6.083  79.321  1.00  0.00     0.481 C
HETATM   15  N8  UNL     1      -0.524   5.876  80.564  1.00  0.00    -0.138 NA
ENDROOT
BRANCH   1  16
HETATM   16  C11 UNL     1      -0.187   7.487  83.331  1.00  0.00     0.080 A
HETATM   17  C2  UNL     1      -0.749   8.791  83.279  1.00  0.00     0.139 A
HETATM   18  N2  UNL     1      -1.644   8.935  84.285  1.00  0.00    -0.280 N
HETATM   19  N3  UNL     1      -1.673   7.844  84.929  1.00  0.00    -0.240 N
ATOM     20  H2  UNL     1      -2.195   9.769  84.487  1.00  0.00     0.189 HD
HETATM   21  N4  UNL     1      -0.797   6.932  84.382  1.00  0.00    -0.278 N
ATOM     22  H3  UNL     1      -2.264   7.666  85.741  1.00  0.00     0.208 HD
BRANCH  17  23
HETATM   23  C1  UNL     1      -0.530   9.865  82.336  1.00  0.00     0.284 C
HETATM   24  N1  UNL     1      -0.872   9.669  80.936  1.00  0.00    -0.056 NA
HETATM   25  O1  UNL     1      -0.062  10.987  82.576  1.00  0.00    -0.269 OA
ENDBRANCH  17  23
BRANCH  21  26
HETATM   26  C3  UNL     1      -0.643   5.709  85.095  1.00  0.00     0.155 C
BRANCH  26  27
HETATM   27  C4  UNL     1      -1.911   5.143  85.666  1.00  0.00     0.060 C
BRANCH  27  28
HETATM   28  C5  UNL     1      -1.928   3.760  86.127  1.00  0.00    -0.057 A
HETATM   29  C6  UNL     1      -0.692   3.085  86.135  1.00  0.00     0.007 A
HETATM   30  C7  UNL     1      -0.662   1.788  86.585  1.00  0.00     0.001 A
HETATM   31  C8  UNL     1      -1.773   1.112  87.028  1.00  0.00     0.000 A
HETATM   32  C9  UNL     1      -2.993   1.785  87.017  1.00  0.00     0.001 A
HETATM   33  C10 UNL     1      -3.026   3.089  86.565  1.00  0.00     0.007 A
ENDBRANCH  27  28
ENDBRANCH  26  27
ENDBRANCH  21  26
ENDBRANCH   1  16
BRANCH  15  34
HETATM   34  N9  UNL     1      -1.675   6.623  80.645  1.00  0.00    -0.357 NA
ATOM     35  H92 UNL     1      -2.227   6.612  79.787  1.00  0.00     0.171 HD
ATOM     36  H91 UNL     1      -1.736   7.629  80.803  1.00  0.00     0.171 HD
ENDBRANCH  15  34
BRANCH  14  37
HETATM   37  N7  UNL     1      -0.196   7.287  78.589  1.00  0.00    -0.035 N
ATOM     38  H73 UNL     1      -1.092   7.156  78.120  1.00  0.00     0.278 HD
ATOM     39  H72 UNL     1      -0.463   8.041  79.222  1.00  0.00     0.278 HD
ATOM     40  H71 UNL     1       0.532   7.581  77.937  1.00  0.00     0.278 HD
ENDBRANCH  14  37
TORSDOF 7
ENDMDL