MODEL 1
REMARK VINA RESULT: -8.361962799      0.000      0.000
REMARK  7 active torsions:
REMARK  status: ('A' for Active; 'I' for Inactive)
REMARK    1  A    between atoms: N2_5  and  C3_6
REMARK    2  A    between atoms: C3_6  and  C4_7
REMARK       I    between atoms: C4_7  and  N3_9
REMARK    3  A    between atoms: N3_9  and  C5_10
REMARK    4  A    between atoms: C5_10  and  C6_11
REMARK    5  A    between atoms: C6_11  and  O3_12
REMARK    6  A    between atoms: C10_23  and  C11_24
REMARK       I    between atoms: C11_24  and  N6_26
REMARK    7  A    between atoms: N6_26  and  C12_28
ROOT
HETATM    1  C1  UNL     1       1.595   5.078  83.678  1.00  0.00     0.161 C
HETATM    2  N1  UNL     1       1.741   4.246  82.507  1.00  0.00    -0.299 N
HETATM    3  C2  UNL     1       2.889   4.437  81.761  1.00  0.00     0.336 A
HETATM    4  O1  UNL     1       3.453   5.557  81.918  1.00  0.00    -0.246 OA
HETATM    5  N2  UNL     1       3.450   3.550  80.927  1.00  0.00    -0.232 N
HETATM    6  C7  UNL     1       2.817   2.360  80.806  1.00  0.00     0.285 A
HETATM    7  O4  UNL     1       3.266   1.461  80.033  1.00  0.00    -0.265 OA
HETATM    8  C8  UNL     1       1.689   2.122  81.500  1.00  0.00     0.135 A
HETATM    9  N4  UNL     1       1.128   0.880  81.454  1.00  0.00    -0.302 N
ATOM     10  H4  UNL     1       1.550   0.194  80.828  1.00  0.00     0.171 HD
HETATM   11  C9  UNL     1       0.075   0.498  82.162  1.00  0.00     0.325 A
HETATM   12  O5  UNL     1      -0.449  -0.614  82.162  1.00  0.00    -0.247 OA
HETATM   13  N5  UNL     1      -0.503   1.477  83.017  1.00  0.00    -0.302 N
ATOM     14  H5  UNL     1      -1.318   1.287  83.601  1.00  0.00     0.171 HD
HETATM   15  C10 UNL     1       0.081   2.611  82.993  1.00  0.00     0.135 A
HETATM   16  C13 UNL     1       1.099   3.083  82.381  1.00  0.00     0.103 A
ENDROOT
BRANCH  15  17
HETATM   17  C11 UNL     1      -0.793   3.800  83.980  1.00  0.00     0.289 C
HETATM   18  O6  UNL     1      -1.204   4.231  82.945  1.00  0.00    -0.265 OA
HETATM   19  N6  UNL     1      -0.300   3.262  85.042  1.00  0.00    -0.151 N
ATOM     20  H6  UNL     1       0.626   3.618  85.280  1.00  0.00     0.188 HD
BRANCH  19  21
HETATM   21  C12 UNL     1      -0.723   2.379  85.857  1.00  0.00     0.716 A
HETATM   22  N7  UNL     1      -1.921   2.465  86.445  1.00  0.00    -0.115 N
HETATM   23  N8  UNL     1      -1.997   1.385  87.240  1.00  0.00    -0.213 N
ATOM     24  H7  UNL     1      -2.625   3.192  86.318  1.00  0.00     0.207 HD
HETATM   25  N9  UNL     1      -0.927   0.642  87.170  1.00  0.00    -0.213 N
ATOM     26  H8  UNL     1      -2.800   1.169  87.831  1.00  0.00     0.210 HD
HETATM   27  N10 UNL     1      -0.155   1.274  86.306  1.00  0.00    -0.115 N
ATOM     28  H9  UNL     1      -0.731  -0.227  87.667  1.00  0.00     0.210 HD
ATOM     29  H10 UNL     1       0.769   0.948  86.020  1.00  0.00     0.207 HD
ENDBRANCH  19  21
ENDBRANCH  15  17
BRANCH   5  30
HETATM   30  C3  UNL     1       4.623   3.735  80.187  1.00  0.00     0.194 C
BRANCH  30  31
HETATM   31  C4  UNL     1       4.462   3.941  78.665  1.00  0.00     0.327 C
HETATM   32  O2  UNL     1       5.301   3.300  78.004  1.00  0.00    -0.251 OA
HETATM   33  N3  UNL     1       3.480   4.764  78.314  1.00  0.00    -0.409 NA
BRANCH  33  34
HETATM   34  C5  UNL     1       2.441   5.637  77.923  1.00  0.00     0.248 C
BRANCH  34  35
HETATM   35  C6  UNL     1       1.179   5.465  78.731  1.00  0.00     0.197 C
BRANCH  35  36
HETATM   36  O3  UNL     1       0.787   4.140  78.648  1.00  0.00    -0.398 OA
ATOM     37  H3  UNL     1       0.116   4.068  77.980  1.00  0.00     0.209 HD
ENDBRANCH  35  36
ENDBRANCH  34  35
ENDBRANCH  33  34
ENDBRANCH  30  31
ENDBRANCH   5  30
TORSDOF 7
ENDMDL