MODEL 4
REMARK VINA RESULT: -6.977510005      1.444      1.887
REMARK  9 active torsions:
REMARK  status: ('A' for Active; 'I' for Inactive)
REMARK    1  A    between atoms: C2_2  and  S1_3
REMARK    2  A    between atoms: S1_3  and  C3_4
REMARK    3  A    between atoms: N2_11  and  N3_12
REMARK       I    between atoms: N3_12  and  C6_14
REMARK    4  A    between atoms: C6_14  and  C7_16
REMARK    5  A    between atoms: C7_16  and  O3_17
REMARK    6  A    between atoms: C9_23  and  C10_24
REMARK    7  A    between atoms: C10_24  and  O5_25
REMARK    8  A    between atoms: C10_24  and  N5_27
REMARK    9  A    between atoms: N5_27  and  N6_29
ROOT
HETATM    1  C3  UNL     1       1.287   4.387  80.335  1.00  0.00     0.167 C
HETATM    2  S2  UNL     1      -0.137   3.300  80.829  1.00  0.00    -0.084 SA
HETATM    3  C4  UNL     1       0.468   3.355  82.572  1.00  0.00     0.246 A
HETATM    4  N1  UNL     1       0.012   4.616  83.095  1.00  0.00    -0.297 N
ATOM      5  H1  UNL     1       0.172   5.525  82.660  1.00  0.00     0.168 HD
HETATM    6  C5  UNL     1      -0.689   4.406  84.295  1.00  0.00     0.347 A
HETATM    7  O1  UNL     1      -1.174   5.292  85.054  1.00  0.00    -0.245 OA
HETATM    8  N2  UNL     1      -0.759   2.981  84.503  1.00  0.00    -0.165 N
HETATM    9  C8  UNL     1      -0.102   2.344  83.423  1.00  0.00     0.307 A
HETATM   10  O4  UNL     1      -0.099   1.066  83.346  1.00  0.00    -0.265 OA
HETATM   11  N4  UNL     1       1.870   3.326  82.397  1.00  0.00    -0.345 N
ATOM     12  H4  UNL     1       2.505   2.971  83.113  1.00  0.00     0.163 HD
HETATM   13  C9  UNL     1       2.330   3.831  81.146  1.00  0.00     0.085 C
ENDROOT
BRANCH   1  14
HETATM   14  S1  UNL     1       1.449   4.697  78.634  1.00  0.00    -0.147 SA
BRANCH  14  15
HETATM   15  C2  UNL     1       2.538   6.086  78.299  1.00  0.00     0.071 C
HETATM   16  C1  UNL     1       3.130   6.079  76.912  1.00  0.00     0.016 C
ENDBRANCH  14  15
ENDBRANCH   1  14
BRANCH   8  17
HETATM   17  N3  UNL     1      -1.386   2.416  85.628  1.00  0.00    -0.255 N
HETATM   18  C6  UNL     1      -0.681   1.865  86.722  1.00  0.00     0.260 C
HETATM   19  O2  UNL     1       0.587   1.884  86.662  1.00  0.00    -0.269 OA
ATOM     20  H3  UNL     1      -2.406   2.403  85.655  1.00  0.00     0.191 HD
BRANCH  18  21
HETATM   21  C7  UNL     1      -1.414   1.287  87.887  1.00  0.00     0.268 C
BRANCH  21  22
HETATM   22  O3  UNL     1      -1.806  -0.001  87.615  1.00  0.00    -0.392 OA
ATOM     23  H3  UNL     1      -1.665  -0.556  88.373  1.00  0.00     0.210 HD
ENDBRANCH  21  22
ENDBRANCH  18  21
ENDBRANCH   8  17
BRANCH  13  24
HETATM   24  C10 UNL     1       3.337   2.914  80.611  1.00  0.00     0.184 C
BRANCH  24  25
HETATM   25  O5  UNL     1       2.953   1.682  80.429  1.00  0.00    -0.344 OA
ATOM     26  H5  UNL     1       3.299   1.245  79.659  1.00  0.00     0.219 HD
ENDBRANCH  24  25
BRANCH  24  27
HETATM   27  N5  UNL     1       4.672   3.207  80.274  1.00  0.00    -0.218 N
ATOM     28  H5  UNL     1       5.397   3.156  80.990  1.00  0.00     0.195 HD
BRANCH  27  29
HETATM   29  N6  UNL     1       5.014   3.572  78.955  1.00  0.00    -0.037 N
HETATM   30  O6  UNL     1       4.493   2.965  78.027  1.00  0.00    -0.516 OA
HETATM   31  O7  UNL     1       5.906   4.569  78.691  1.00  0.00    -0.516 OA
ENDBRANCH  27  29
ENDBRANCH  24  27
ENDBRANCH  13  24
TORSDOF 9
ENDMDL