MODEL 3
REMARK VINA RESULT: -8.229548362      1.298      1.660
REMARK  6 active torsions:
REMARK  status: ('A' for Active; 'I' for Inactive)
REMARK    1  A    between atoms: N3_9  and  C4_10
REMARK    2  A    between atoms: C4_10  and  C5_11
REMARK    3  A    between atoms: C5_11  and  N4_12
REMARK       I    between atoms: N4_12  and  C6_14
REMARK    4  A    between atoms: C6_14  and  C7_16
REMARK    5  A    between atoms: C7_16  and  N5_17
REMARK    6  A    between atoms: N5_17  and  C8_19
ROOT
HETATM    1  N4  UNL     1       3.694   4.426  82.324  1.00  0.00    -0.358 N
ATOM      2  H4  UNL     1       4.043   3.785  83.037  1.00  0.00     0.162 HD
HETATM    3  C6  UNL     1       2.737   5.393  82.725  1.00  0.00     0.235 C
HETATM    4  O3  UNL     1       2.306   6.188  81.839  1.00  0.00    -0.272 OA
ENDROOT
BRANCH   3   5
HETATM    5  C7  UNL     1       2.229   5.518  84.094  1.00  0.00     0.224 C
BRANCH   5   6
HETATM    6  N5  UNL     1       1.553   4.295  84.467  1.00  0.00    -0.367 N
ATOM      7  H5  UNL     1       2.108   3.445  84.561  1.00  0.00     0.161 HD
BRANCH   6   8
HETATM    8  C8  UNL     1       0.284   4.225  84.687  1.00  0.00     0.121 A
HETATM    9  N6  UNL     1      -0.531   5.066  84.048  1.00  0.00    -0.294 N
HETATM   10  C9  UNL     1      -1.880   5.034  84.245  1.00  0.00     0.327 A
ATOM     11  H6  UNL     1      -0.137   5.747  83.398  1.00  0.00     0.172 HD
HETATM   12  O4  UNL     1      -2.641   5.821  83.646  1.00  0.00    -0.247 OA
HETATM   13  N7  UNL     1      -2.357   4.118  85.113  1.00  0.00    -0.292 N
HETATM   14  C10 UNL     1      -1.564   3.256  85.774  1.00  0.00     0.141 A
ATOM     15  H7  UNL     1      -3.363   4.077  85.274  1.00  0.00     0.172 HD
HETATM   16  C11 UNL     1      -0.187   3.296  85.567  1.00  0.00     0.070 A
HETATM   17  N9  UNL     1      -1.763   2.274  86.667  1.00  0.00    -0.281 N
HETATM   18  C12 UNL     1       0.404   2.317  86.356  1.00  0.00     0.126 A
HETATM   19  N8  UNL     1      -0.605   1.728  87.003  1.00  0.00    -0.307 N
ATOM     20  H8  UNL     1      -0.498   0.961  87.668  1.00  0.00     0.186 HD
HETATM   21  C13 UNL     1      -3.069   1.890  87.168  1.00  0.00     0.179 C
ENDBRANCH   6   8
ENDBRANCH   5   6
ENDBRANCH   3   5
BRANCH   1  22
HETATM   22  C5  UNL     1       4.203   4.283  81.006  1.00  0.00     0.143 C
BRANCH  22  23
HETATM   23  C4  UNL     1       3.530   3.356  80.066  1.00  0.00     0.158 C
BRANCH  23  24
HETATM   24  N3  UNL     1       2.185   2.967  80.390  1.00  0.00    -0.249 N
HETATM   25  C3  UNL     1       1.180   3.604  79.711  1.00  0.00     0.334 A
HETATM   26  N2  UNL     1      -0.119   3.373  79.921  1.00  0.00    -0.260 N
HETATM   27  O2  UNL     1       1.500   4.456  78.838  1.00  0.00    -0.246 OA
HETATM   28  C2  UNL     1      -0.467   2.461  80.856  1.00  0.00     0.334 A
ATOM     29  H2  UNL     1      -0.831   3.874  79.389  1.00  0.00     0.175 HD
HETATM   30  N1  UNL     1       0.475   1.819  81.538  1.00  0.00    -0.255 N
HETATM   31  O1  UNL     1      -1.700   2.242  81.055  1.00  0.00    -0.246 OA
HETATM   32  C1  UNL     1       0.104   0.848  82.534  1.00  0.00     0.166 C
HETATM   33  C14 UNL     1       1.784   2.083  81.295  1.00  0.00     0.336 A
HETATM   34  O5  UNL     1       2.612   1.453  81.970  1.00  0.00    -0.246 OA
ENDBRANCH  23  24
ENDBRANCH  22  23
ENDBRANCH   1  22
TORSDOF 6
ENDMDL