MODEL 2
REMARK VINA RESULT: -8.302673021      1.600      2.180
REMARK  9 active torsions:
REMARK  status: ('A' for Active; 'I' for Inactive)
REMARK    1  A    between atoms: C8_12  and  N3_13
REMARK    2  A    between atoms: C11_18  and  N4_19
REMARK    3  A    between atoms: N4_19  and  O4_20
REMARK    4  A    between atoms: N4_19  and  C12_22
REMARK    5  A    between atoms: C12_22  and  O5_23
REMARK    6  A    between atoms: C13_25  and  C14_27
REMARK    7  A    between atoms: C14_27  and  C15_29
REMARK    8  A    between atoms: C15_29  and  O7_30
REMARK    9  A    between atoms: C15_29  and  O8_32
ROOT
HETATM    1  C1  UNL     1      -1.130   9.355  82.789  1.00  0.00     0.066 C
HETATM    2  C2  UNL     1      -0.505   7.987  82.713  1.00  0.00     0.038 C
HETATM    3  N1  UNL     1       0.404   7.839  81.651  1.00  0.00    -0.106 NA
HETATM    4  C3  UNL     1      -0.831   7.040  83.531  1.00  0.00     0.082 A
HETATM    5  C4  UNL     1      -1.852   7.314  84.566  1.00  0.00     0.260 A
HETATM    6  O1  UNL     1      -2.398   8.448  84.721  1.00  0.00    -0.267 OA
HETATM    7  N2  UNL     1      -2.213   6.234  85.408  1.00  0.00    -0.322 N
ATOM      8  H2  UNL     1      -2.915   6.401  86.129  1.00  0.00     0.169 HD
HETATM    9  C5  UNL     1      -1.711   5.061  85.314  1.00  0.00     0.047 A
HETATM   10  C6  UNL     1      -2.167   4.101  86.234  1.00  0.00     0.033 A
HETATM   11  C7  UNL     1      -1.684   2.822  86.246  1.00  0.00     0.038 A
HETATM   12  C8  UNL     1      -0.716   2.523  85.301  1.00  0.00     0.103 A
HETATM   13  C9  UNL     1      -0.257   3.431  84.396  1.00  0.00     0.052 A
HETATM   14  C10 UNL     1      -0.751   4.726  84.379  1.00  0.00     0.023 A
HETATM   15  C11 UNL     1      -0.311   5.655  83.511  1.00  0.00     0.095 A
ENDROOT
BRANCH  15  16
HETATM   16  N4  UNL     1       0.541   5.208  82.480  1.00  0.00    -0.198 N
BRANCH  16  17
HETATM   17  O4  UNL     1       1.910   5.376  82.764  1.00  0.00    -0.280 OA
ATOM     18  H4  UNL     1       2.470   5.305  82.000  1.00  0.00     0.245 HD
ENDBRANCH  16  17
BRANCH  16  19
HETATM   19  C12 UNL     1       0.293   4.513  81.299  1.00  0.00     0.196 C
HETATM   20  C13 UNL     1       0.834   3.340  80.652  1.00  0.00     0.150 C
HETATM   21  N5  UNL     1       1.131   3.695  79.250  1.00  0.00    -0.094 NA
BRANCH  19  22
HETATM   22  O5  UNL     1      -0.676   5.021  80.571  1.00  0.00    -0.343 OA
ATOM     23  H5  UNL     1      -1.274   4.375  80.215  1.00  0.00     0.219 HD
ENDBRANCH  19  22
BRANCH  20  24
HETATM   24  C14 UNL     1       1.776   2.456  81.279  1.00  0.00     0.232 C
HETATM   25  O6  UNL     1       2.273   2.714  82.347  1.00  0.00    -0.286 OA
BRANCH  24  26
HETATM   26  C15 UNL     1       2.152   1.189  80.608  1.00  0.00     0.332 C
BRANCH  26  27
HETATM   27  O7  UNL     1       1.044   0.505  80.106  1.00  0.00    -0.365 OA
ATOM     28  H7  UNL     1       0.592   0.999  79.432  1.00  0.00     0.213 HD
ENDBRANCH  26  27
BRANCH  26  29
HETATM   29  O8  UNL     1       2.973   1.453  79.486  1.00  0.00    -0.365 OA
ATOM     30  H8  UNL     1       2.806   0.819  78.799  1.00  0.00     0.213 HD
ENDBRANCH  26  29
ENDBRANCH  24  26
ENDBRANCH  20  24
ENDBRANCH  16  19
ENDBRANCH  15  16
BRANCH  12  31
HETATM   31  N3  UNL     1      -0.191   1.206  85.290  1.00  0.00    -0.116 N
HETATM   32  O2  UNL     1      -0.328   0.458  84.292  1.00  0.00    -0.532 OA
HETATM   33  O3  UNL     1       0.476   0.746  86.390  1.00  0.00    -0.532 OA
ENDBRANCH  12  31
TORSDOF 9
ENDMDL