MODEL 2
REMARK VINA RESULT: -7.760645972      3.144      7.436
REMARK  10 active torsions:
REMARK  status: ('A' for Active; 'I' for Inactive)
REMARK    1  A    between atoms: N1_2  and  N2_4
REMARK    2  A    between atoms: C2_5  and  N3_6
REMARK       I    between atoms: N3_6  and  C3_8
REMARK    3  A    between atoms: N7_15  and  C4_16
REMARK    4  A    between atoms: C4_16  and  O1_17
REMARK    5  A    between atoms: O1_17  and  C5_18
REMARK    6  A    between atoms: C6_20  and  N8_21
REMARK    7  A    between atoms: N8_21  and  C7_22
REMARK    8  A    between atoms: C7_22  and  O3_23
REMARK    9  A    between atoms: C7_22  and  C8_25
REMARK   10  A    between atoms: C8_25  and  N9_26
ROOT
HETATM    1  N2  UNL     1       0.443   4.020  81.321  1.00  0.00    -0.042 N
HETATM    2  C2  UNL     1       0.784   4.075  80.015  1.00  0.00     0.724 A
HETATM    3  N6  UNL     1       0.254   5.223  79.518  1.00  0.00    -0.122 N
ATOM      4  H6  UNL     1       0.356   5.520  78.548  1.00  0.00     0.206 HD
HETATM    5  N7  UNL     1      -0.390   5.890  80.406  1.00  0.00    -0.209 N
HETATM    6  C6  UNL     1      -0.302   5.151  81.589  1.00  0.00     0.318 A
ENDROOT
BRANCH   6   7
HETATM    7  N8  UNL     1      -0.956   5.432  82.562  1.00  0.00    -0.345 NA
BRANCH   7   8
HETATM    8  C7  UNL     1      -1.663   5.737  83.619  1.00  0.00     0.212 C
BRANCH   8   9
HETATM    9  O3  UNL     1      -2.906   6.124  83.495  1.00  0.00    -0.338 OA
ATOM     10  H3  UNL     1      -3.108   7.014  83.230  1.00  0.00     0.220 HD
ENDBRANCH   8   9
BRANCH   8  11
HETATM   11  C8  UNL     1      -1.237   5.696  85.049  1.00  0.00     0.233 C
BRANCH  11  12
HETATM   12  N9  UNL     1      -0.986   4.393  85.593  1.00  0.00    -0.300 N
HETATM   13  C9  UNL     1      -2.051   3.746  86.160  1.00  0.00     0.108 A
HETATM   14  C10 UNL     1      -1.872   2.483  86.651  1.00  0.00     0.022 A
HETATM   15  C11 UNL     1      -3.038   1.751  87.257  1.00  0.00     0.056 C
HETATM   16  C12 UNL     1      -0.632   1.902  86.562  1.00  0.00     0.256 A
HETATM   17  O4  UNL     1      -0.418   0.727  87.003  1.00  0.00    -0.267 OA
HETATM   18  N10 UNL     1       0.388   2.591  85.994  1.00  0.00    -0.275 N
HETATM   19  C13 UNL     1       0.240   3.843  85.500  1.00  0.00     0.329 A
ATOM     20  H10 UNL     1       1.305   2.147  85.936  1.00  0.00     0.173 HD
HETATM   21  O5  UNL     1       1.222   4.445  84.980  1.00  0.00    -0.246 OA
ENDBRANCH  11  12
ENDBRANCH   8  11
ENDBRANCH   7   8
ENDBRANCH   6   7
BRANCH   1  22
HETATM   22  N1  UNL     1       0.801   2.960  82.154  1.00  0.00    -0.316 N
HETATM   23  C1  UNL     1       0.012   1.784  82.418  1.00  0.00     0.169 C
ATOM     24  H1  UNL     1       1.707   3.024  82.619  1.00  0.00     0.180 HD
ENDBRANCH   1  22
BRANCH   5  25
HETATM   25  C4  UNL     1      -1.018   7.181  80.227  1.00  0.00     0.332 C
BRANCH  25  26
HETATM   26  O1  UNL     1      -2.356   7.106  79.869  1.00  0.00    -0.307 OA
BRANCH  26  27
HETATM   27  C5  UNL     1      -3.313   8.034  79.733  1.00  0.00     0.399 C
HETATM   28  O2  UNL     1      -4.268   7.856  78.946  1.00  0.00    -0.276 OA
ENDBRANCH  26  27
ENDBRANCH  25  26
ENDBRANCH   5  25
BRANCH   2  29
HETATM   29  N3  UNL     1       1.490   3.313  79.281  1.00  0.00    -0.161 N
HETATM   30  C3  UNL     1       2.699   2.746  79.410  1.00  0.00     0.200 C
HETATM   31  N4  UNL     1       3.826   3.400  79.194  1.00  0.00    -0.373 N
HETATM   32  N5  UNL     1       2.926   1.363  79.773  1.00  0.00    -0.063 NA
ATOM     33  H42 UNL     1       3.666   4.374  78.938  1.00  0.00     0.158 HD
ATOM     34  H41 UNL     1       4.745   2.969  79.293  1.00  0.00     0.158 HD
ATOM     35  H3  UNL     1       1.036   3.081  78.397  1.00  0.00     0.187 HD
ENDBRANCH   2  29
TORSDOF 10
ENDMDL