MODEL 4
REMARK VINA RESULT: -7.535731115      2.049      6.623
REMARK  8 active torsions:
REMARK  status: ('A' for Active; 'I' for Inactive)
REMARK    1  A    between atoms: N5_14  and  C6_15
REMARK    2  A    between atoms: C6_15  and  C7_16
REMARK    3  A    between atoms: C7_16  and  N6_17
REMARK    4  A    between atoms: C7_16  and  C10_29
REMARK    5  A    between atoms: N6_17  and  N7_18
REMARK       I    between atoms: N7_18  and  C8_20
REMARK    6  A    between atoms: C8_20  and  C9_22
REMARK       I    between atoms: C9_22  and  N8_24
REMARK    7  A    between atoms: N8_24  and  N9_26
REMARK    8  A    between atoms: C10_29  and  C11_31
REMARK       I    between atoms: C11_31  and  N10_33
ROOT
HETATM    1  C7  UNL     1       0.300   2.604  84.542  1.00  0.00     0.199 C
ENDROOT
BRANCH   1   2
HETATM    2  C6  UNL     1       0.126   4.102  84.507  1.00  0.00     0.181 C
BRANCH   2   3
HETATM    3  N5  UNL     1       1.249   4.779  83.893  1.00  0.00    -0.284 N
HETATM    4  N4  UNL     1       2.061   4.043  83.022  1.00  0.00    -0.280 N
HETATM    5  C5  UNL     1       3.146   4.675  82.367  1.00  0.00     0.164 A
ATOM      6  H4  UNL     1       1.871   3.053  82.860  1.00  0.00     0.189 HD
HETATM    7  C4  UNL     1       3.326   6.009  82.649  1.00  0.00     0.095 A
HETATM    8  N3  UNL     1       3.970   4.046  81.515  1.00  0.00    -0.173 N
HETATM    9  C3  UNL     1       4.388   6.664  82.011  1.00  0.00     0.139 A
HETATM   10  N11 UNL     1       2.477   6.714  83.540  1.00  0.00    -0.347 N
HETATM   11  N2  UNL     1       5.172   6.003  81.179  1.00  0.00    -0.200 N
HETATM   12  C2  UNL     1       5.000   4.702  80.903  1.00  0.00     0.679 A
ATOM     13  H2  UNL     1       5.939   6.501  80.728  1.00  0.00     0.183 HD
HETATM   14  N1  UNL     1       5.810   4.139  80.084  1.00  0.00    -0.230 N
HETATM   15  C1  UNL     1       6.888   4.835  79.453  1.00  0.00     0.165 C
ATOM     16  H1  UNL     1       5.679   3.149  79.874  1.00  0.00     0.177 HD
HETATM   17  C14 UNL     1       1.470   6.153  84.155  1.00  0.00     0.201 A
ATOM     18  H11 UNL     1       2.661   7.703  83.708  1.00  0.00     0.167 HD
ATOM     19  H3  UNL     1       3.823   3.056  81.319  1.00  0.00     0.186 HD
ENDBRANCH   2   3
ENDBRANCH   1   2
BRANCH   1  20
HETATM   20  N6  UNL     1      -0.709   1.927  83.743  1.00  0.00    -0.123 NA
BRANCH  20  21
HETATM   21  N7  UNL     1      -0.156   0.894  83.011  1.00  0.00    -0.265 N
HETATM   22  C8  UNL     1       0.524   0.939  81.775  1.00  0.00     0.326 C
HETATM   23  O1  UNL     1       0.756   1.964  81.096  1.00  0.00    -0.261 OA
ATOM     24  H7  UNL     1      -0.254  -0.034  83.422  1.00  0.00     0.185 HD
BRANCH  22  25
HETATM   25  C9  UNL     1       1.019  -0.337  81.205  1.00  0.00     0.328 C
HETATM   26  O2  UNL     1       1.375  -0.416  79.995  1.00  0.00    -0.261 OA
HETATM   27  N8  UNL     1       1.095  -1.483  82.017  1.00  0.00    -0.268 N
ATOM     28  H8  UNL     1       0.815  -1.443  82.997  1.00  0.00     0.190 HD
BRANCH  27  29
HETATM   29  N9  UNL     1       1.561  -2.680  81.458  1.00  0.00    -0.342 N
ATOM     30  H92 UNL     1       1.116  -3.051  80.619  1.00  0.00     0.176 HD
ATOM     31  H91 UNL     1       2.342  -3.161  81.904  1.00  0.00     0.176 HD
ENDBRANCH  27  29
ENDBRANCH  22  25
ENDBRANCH  20  21
ENDBRANCH   1  20
BRANCH   1  32
HETATM   32  C10 UNL     1       0.118   2.173  85.951  1.00  0.00     0.239 C
HETATM   33  O3  UNL     1       1.035   2.392  86.771  1.00  0.00    -0.285 OA
BRANCH  32  34
HETATM   34  C11 UNL     1      -1.071   1.518  86.407  1.00  0.00     0.290 C
HETATM   35  O4  UNL     1      -1.150   0.242  86.446  1.00  0.00    -0.264 OA
HETATM   36  N10 UNL     1      -2.240   2.216  86.848  1.00  0.00    -0.354 N
HETATM   37  C12 UNL     1      -2.314   3.645  86.840  1.00  0.00     0.152 C
HETATM   38  C13 UNL     1      -3.416   1.472  87.326  1.00  0.00     0.152 C
ENDBRANCH  32  34
ENDBRANCH   1  32
TORSDOF 8
ENDMDL