MODEL 2
REMARK VINA RESULT: -7.251357387      1.683      1.878
REMARK  8 active torsions:
REMARK  status: ('A' for Active; 'I' for Inactive)
REMARK       I    between atoms: N1_2  and  C2_3
REMARK    1  A    between atoms: N1_2  and  C12_27
REMARK    2  A    between atoms: C2_3  and  C3_5
REMARK    3  A    between atoms: C3_5  and  C4_6
REMARK    4  A    between atoms: C4_6  and  N2_7
REMARK    5  A    between atoms: N2_7  and  C5_9
REMARK    6  A    between atoms: C6_12  and  N4_13
REMARK    7  A    between atoms: C14_32  and  C15_33
REMARK    8  A    between atoms: C15_33  and  N9_34
ROOT
HETATM    1  N2  UNL     1      -0.513   5.862  81.088  1.00  0.00    -0.373 N
ATOM      2  H2  UNL     1      -1.338   5.284  81.248  1.00  0.00     0.161 HD
ENDROOT
BRANCH   1   3
HETATM    3  C4  UNL     1      -0.569   7.205  81.566  1.00  0.00     0.130 C
BRANCH   3   4
HETATM    4  C3  UNL     1      -0.753   7.284  83.065  1.00  0.00     0.123 C
BRANCH   4   5
HETATM    5  C2  UNL     1      -1.076   5.959  83.645  1.00  0.00     0.227 C
HETATM    6  N1  UNL     1      -0.098   5.255  84.383  1.00  0.00    -0.294 N
HETATM    7  C1  UNL     1       1.221   5.881  84.547  1.00  0.00     0.162 C
HETATM    8  O1  UNL     1      -2.235   5.529  83.440  1.00  0.00    -0.273 OA
BRANCH   6   9
HETATM    9  C12 UNL     1      -0.341   3.979  84.961  1.00  0.00     0.187 C
HETATM   10  N8  UNL     1       0.510   3.412  85.787  1.00  0.00    -0.297 N
HETATM   11  C13 UNL     1       0.020   2.154  86.210  1.00  0.00     0.248 C
ATOM     12  H8  UNL     1       1.397   3.820  86.082  1.00  0.00     0.172 HD
HETATM   13  O3  UNL     1       0.603   1.171  86.711  1.00  0.00    -0.271 OA
HETATM   14  C14 UNL     1      -1.456   2.215  85.923  1.00  0.00     0.202 C
HETATM   15  N10 UNL     1      -1.448   3.113  84.790  1.00  0.00    -0.347 N
ATOM     16  H10 UNL     1      -2.112   3.121  84.016  1.00  0.00     0.163 HD
BRANCH  14  17
HETATM   17  C15 UNL     1      -2.125   2.881  87.082  1.00  0.00     0.264 C
BRANCH  17  18
HETATM   18  N9  UNL     1      -1.931   2.161  88.328  1.00  0.00    -0.077 N
ATOM     19  H93 UNL     1      -1.612   1.208  88.154  1.00  0.00     0.274 HD
ATOM     20  H92 UNL     1      -1.119   2.517  88.834  1.00  0.00     0.274 HD
ATOM     21  H91 UNL     1      -2.763   2.168  88.918  1.00  0.00     0.274 HD
ENDBRANCH  17  18
ENDBRANCH  14  17
ENDBRANCH   6   9
ENDBRANCH   4   5
ENDBRANCH   3   4
ENDBRANCH   1   3
BRANCH   1  22
HETATM   22  C5  UNL     1       0.462   5.310  80.481  1.00  0.00     0.146 A
HETATM   23  N3  UNL     1       1.284   6.008  79.692  1.00  0.00    -0.175 N
HETATM   24  C6  UNL     1       2.327   5.425  79.042  1.00  0.00     0.678 A
ATOM     25  H3  UNL     1       1.125   7.009  79.574  1.00  0.00     0.186 HD
HETATM   26  N5  UNL     1       2.526   4.110  79.204  1.00  0.00    -0.184 N
HETATM   27  C7  UNL     1       1.752   3.338  79.975  1.00  0.00     0.147 A
ATOM     28  H5  UNL     1       3.309   3.676  78.715  1.00  0.00     0.184 HD
HETATM   29  C8  UNL     1       1.910   2.002  80.173  1.00  0.00     0.278 A
HETATM   30  C11 UNL     1       0.683   3.965  80.635  1.00  0.00     0.111 A
HETATM   31  O2  UNL     1       2.865   1.427  79.587  1.00  0.00    -0.265 OA
HETATM   32  N6  UNL     1       1.098   1.264  80.963  1.00  0.00    -0.313 N
HETATM   33  C9  UNL     1       1.280  -0.160  81.165  1.00  0.00     0.160 C
HETATM   34  C10 UNL     1       0.080   1.912  81.580  1.00  0.00     0.186 A
HETATM   35  N7  UNL     1      -0.128   3.241  81.420  1.00  0.00    -0.347 N
ATOM     36  H7  UNL     1      -0.905   3.694  81.899  1.00  0.00     0.167 HD
BRANCH  24  37
HETATM   37  N4  UNL     1       3.107   6.148  78.280  1.00  0.00    -0.234 N
ATOM     38  H42 UNL     1       2.752   6.623  77.449  1.00  0.00     0.174 HD
ATOM     39  H41 UNL     1       4.096   6.246  78.511  1.00  0.00     0.174 HD
ENDBRANCH  24  37
ENDBRANCH   1  22
TORSDOF 8
ENDMDL