MODEL 2
REMARK VINA RESULT: -8.070686691      2.751      5.017
REMARK  6 active torsions:
REMARK  status: ('A' for Active; 'I' for Inactive)
REMARK    1  A    between atoms: N1_2  and  C3_4
REMARK    2  A    between atoms: N3_14  and  C8_16
REMARK    3  A    between atoms: C8_16  and  C9_17
REMARK    4  A    between atoms: C9_17  and  N4_18
REMARK    5  A    between atoms: N8_29  and  N9_31
REMARK       I    between atoms: C14_33  and  N11_35
REMARK    6  A    between atoms: N11_35  and  N12_37
ROOT
HETATM    1  C8  UNL     1      -0.094   3.251  83.369  1.00  0.00     0.115 C
HETATM    2  N8  UNL     1       0.429   2.375  84.146  1.00  0.00    -0.285 N
ATOM      3  H8  UNL     1       1.094   1.699  83.769  1.00  0.00     0.188 HD
ENDROOT
BRANCH   1   4
HETATM    4  N3  UNL     1       0.224   3.312  81.999  1.00  0.00    -0.326 N
HETATM    5  C7  UNL     1       1.347   3.033  81.480  1.00  0.00     0.160 C
HETATM    6  C5  UNL     1       1.618   3.121  80.002  1.00  0.00     0.334 C
HETATM    7  O2  UNL     1       2.563   2.607  81.990  1.00  0.00    -0.301 OA
HETATM    8  C4  UNL     1       2.627   4.147  79.742  1.00  0.00     0.192 C
HETATM    9  N2  UNL     1       2.447   1.898  79.898  1.00  0.00    -0.027 N
HETATM   10  C3  UNL     1       3.921   3.594  80.210  1.00  0.00     0.208 C
HETATM   11  O1  UNL     1       2.446   5.225  79.247  1.00  0.00    -0.293 OA
HETATM   12  C6  UNL     1       3.430   2.326  80.917  1.00  0.00     0.359 C
ATOM     13  H22 UNL     1       1.987   0.996  80.027  1.00  0.00     0.281 HD
ATOM     14  H21 UNL     1       2.797   1.636  78.977  1.00  0.00     0.281 HD
ATOM     15  H3  UNL     1      -0.517   3.608  81.364  1.00  0.00     0.169 HD
BRANCH  10  16
HETATM   16  N1  UNL     1       4.711   4.435  81.004  1.00  0.00    -0.407 N
HETATM   17  C1  UNL     1       6.068   4.630  80.705  1.00  0.00     0.143 C
HETATM   18  C2  UNL     1       4.064   5.408  81.814  1.00  0.00     0.143 C
ENDBRANCH  10  16
ENDBRANCH   1   4
BRANCH   1  19
HETATM   19  C9  UNL     1      -1.062   4.230  83.925  1.00  0.00     0.199 C
BRANCH  19  20
HETATM   20  N4  UNL     1      -0.510   5.554  84.006  1.00  0.00    -0.369 N
HETATM   21  C10 UNL     1      -0.756   6.531  83.232  1.00  0.00     0.105 A
HETATM   22  C11 UNL     1      -1.628   6.411  82.171  1.00  0.00     0.093 A
HETATM   23  N7  UNL     1      -0.168   7.723  83.421  1.00  0.00    -0.339 N
HETATM   24  C12 UNL     1      -1.868   7.505  81.347  1.00  0.00     0.120 A
HETATM   25  N5  UNL     1      -2.772   7.416  80.231  1.00  0.00    -0.083 NA
HETATM   26  N6  UNL     1      -1.246   8.673  81.593  1.00  0.00    -0.341 N
HETATM   27  C13 UNL     1      -0.389   8.781  82.639  1.00  0.00     0.183 A
ATOM     28  H6  UNL     1      -1.420   9.479  80.992  1.00  0.00     0.167 HD
ATOM     29  H7  UNL     1       0.480   7.826  84.202  1.00  0.00     0.168 HD
ATOM     30  H4  UNL     1       0.148   5.727  84.765  1.00  0.00     0.161 HD
ENDBRANCH  19  20
ENDBRANCH   1  19
BRANCH   2  31
HETATM   31  N9  UNL     1       0.100   2.335  85.497  1.00  0.00    -0.271 N
HETATM   32  C14 UNL     1      -0.339   1.278  86.062  1.00  0.00     0.223 C
HETATM   33  N10 UNL     1      -0.495   0.101  85.284  1.00  0.00    -0.061 NA
HETATM   34  N11 UNL     1      -0.661   1.292  87.446  1.00  0.00    -0.258 N
ATOM     35  H11 UNL     1      -0.026   1.713  88.124  1.00  0.00     0.191 HD
ATOM     36  H9  UNL     1       0.213   3.181  86.056  1.00  0.00     0.189 HD
BRANCH  34  37
HETATM   37  N12 UNL     1      -1.863   0.718  87.857  1.00  0.00    -0.247 N
HETATM   38  N13 UNL     1      -2.958   1.172  87.406  1.00  0.00    -0.331 N
ATOM     39 2H13 UNL     1      -2.942   1.951  86.748  1.00  0.00     0.178 HD
ATOM     40 1H13 UNL     1      -3.838   0.752  87.706  1.00  0.00     0.178 HD
ATOM     41  H12 UNL     1      -1.862  -0.061  88.516  1.00  0.00     0.207 HD
ENDBRANCH  34  37
ENDBRANCH   2  31
TORSDOF 6
ENDMDL