MODEL 4
REMARK VINA RESULT: -8.181922602      2.188      3.185
REMARK  8 active torsions:
REMARK  status: ('A' for Active; 'I' for Inactive)
REMARK    1  A    between atoms: O1_2  and  C2_3
REMARK    2  A    between atoms: C2_3  and  C3_5
REMARK    3  A    between atoms: C3_5  and  N1_6
REMARK       I    between atoms: N1_6  and  C4_8
REMARK    4  A    between atoms: C4_8  and  C5_10
REMARK    5  A    between atoms: C5_10  and  C7_13
REMARK    6  A    between atoms: C9_19  and  C10_20
REMARK    7  A    between atoms: C10_20  and  C11_21
REMARK    8  A    between atoms: N6_24  and  C13_25
ROOT
HETATM    1  C5  UNL     1      -0.376   3.442  82.478  1.00  0.00     0.141 C
HETATM    2  C6  UNL     1      -0.226   4.825  82.046  1.00  0.00     0.107 C
HETATM    3  N2  UNL     1      -0.116   5.962  81.750  1.00  0.00    -0.191 NA
ENDROOT
BRANCH   1   4
HETATM    4  C4  UNL     1      -0.694   3.297  83.887  1.00  0.00     0.265 C
HETATM    5  N1  UNL     1       0.224   2.561  84.714  1.00  0.00    -0.347 N
ATOM      6  H1  UNL     1       1.062   2.165  84.287  1.00  0.00     0.163 HD
HETATM    7  O3  UNL     1      -1.687   3.752  84.437  1.00  0.00    -0.267 OA
BRANCH   5   8
HETATM    8  C3  UNL     1       0.003   2.366  86.109  1.00  0.00     0.233 C
BRANCH   8   9
HETATM    9  C2  UNL     1      -0.601   1.065  86.452  1.00  0.00     0.276 C
HETATM   10  O2  UNL     1      -0.648   0.094  85.680  1.00  0.00    -0.263 OA
BRANCH   9  11
HETATM   11  O1  UNL     1      -1.149   0.935  87.724  1.00  0.00    -0.325 OA
HETATM   12  C1  UNL     1      -1.878   1.950  88.364  1.00  0.00     0.213 C
ENDBRANCH   9  11
ENDBRANCH   8   9
ENDBRANCH   5   8
ENDBRANCH   1   4
BRANCH   1  13
HETATM   13  C7  UNL     1      -0.240   2.411  81.683  1.00  0.00     0.086 A
HETATM   14  N3  UNL     1      -1.267   1.870  80.961  1.00  0.00    -0.349 N
HETATM   15  C8  UNL     1      -0.825   0.821  80.234  1.00  0.00     0.181 A
ATOM     16  H3  UNL     1      -2.228   2.210  80.970  1.00  0.00     0.166 HD
HETATM   17  N4  UNL     1       0.458   0.710  80.497  1.00  0.00    -0.350 N
HETATM   18  C9  UNL     1       0.876   1.667  81.387  1.00  0.00     0.062 A
ATOM     19  H4  UNL     1       1.068   0.000  80.090  1.00  0.00     0.166 HD
BRANCH  18  20
HETATM   20  C10 UNL     1       2.113   1.766  81.808  1.00  0.00     0.052 C
BRANCH  20  21
HETATM   21  C11 UNL     1       2.890   2.911  81.232  1.00  0.00     0.076 A
HETATM   22  C12 UNL     1       3.329   2.867  79.936  1.00  0.00     0.139 A
HETATM   23  N5  UNL     1       3.021   1.711  79.175  1.00  0.00    -0.081 NA
HETATM   24  N6  UNL     1       4.032   3.909  79.422  1.00  0.00    -0.273 N
HETATM   25  C15 UNL     1       4.299   4.985  80.186  1.00  0.00     0.331 A
HETATM   26  O4  UNL     1       4.959   5.922  79.649  1.00  0.00    -0.246 OA
HETATM   27  N8  UNL     1       3.874   5.037  81.456  1.00  0.00    -0.274 N
HETATM   28  C16 UNL     1       3.174   4.021  81.994  1.00  0.00     0.263 A
ATOM     29  H8  UNL     1       4.084   5.859  82.023  1.00  0.00     0.173 HD
HETATM   30  O5  UNL     1       2.760   4.042  83.189  1.00  0.00    -0.267 OA
BRANCH  24  31
HETATM   31  C13 UNL     1       4.492   3.861  78.062  1.00  0.00     0.258 C
HETATM   32  C14 UNL     1       3.573   4.585  77.172  1.00  0.00     0.079 C
HETATM   33  N7  UNL     1       2.849   5.165  76.483  1.00  0.00    -0.196 NA
ENDBRANCH  24  31
ENDBRANCH  20  21
ENDBRANCH  18  20
ENDBRANCH   1  13
TORSDOF 8
ENDMDL