MODEL 3
REMARK VINA RESULT: -7.450460916      1.715      1.817
REMARK  7 active torsions:
REMARK  status: ('A' for Active; 'I' for Inactive)
REMARK    1  A    between atoms: N1_2  and  C2_4
REMARK    2  A    between atoms: C2_4  and  O1_5
REMARK    3  A    between atoms: C2_4  and  C3_7
REMARK    4  A    between atoms: C3_7  and  O2_8
REMARK    5  A    between atoms: C3_7  and  N2_10
REMARK    6  A    between atoms: N2_10  and  N3_12
REMARK    7  A    between atoms: C10_28  and  C11_29
ROOT
HETATM    1  N3  UNL     1       0.570   2.387  82.273  1.00  0.00    -0.207 N
HETATM    2  C4  UNL     1      -0.037   1.644  81.221  1.00  0.00     0.345 C
HETATM    3  O3  UNL     1      -0.177   0.409  81.057  1.00  0.00    -0.245 OA
HETATM    4  N4  UNL     1      -0.508   2.642  80.287  1.00  0.00    -0.275 N
ATOM      5  H4  UNL     1      -0.996   2.459  79.411  1.00  0.00     0.173 HD
HETATM    6  C5  UNL     1      -0.169   3.933  80.804  1.00  0.00     0.273 C
HETATM    7  O4  UNL     1      -0.717   5.028  80.556  1.00  0.00    -0.269 OA
HETATM    8  C6  UNL     1       0.992   3.666  81.711  1.00  0.00     0.280 C
HETATM    9  C7  UNL     1       1.109   4.740  82.701  1.00  0.00     0.273 C
HETATM   10  O5  UNL     1       0.075   5.065  83.367  1.00  0.00    -0.269 OA
HETATM   11  N5  UNL     1       2.302   5.473  82.997  1.00  0.00    -0.276 N
ATOM     12  H5  UNL     1       2.396   5.833  83.947  1.00  0.00     0.173 HD
HETATM   13  C8  UNL     1       3.378   5.753  82.093  1.00  0.00     0.325 C
HETATM   14  O6  UNL     1       4.333   6.368  82.661  1.00  0.00    -0.247 OA
HETATM   15  N6  UNL     1       3.531   5.459  80.719  1.00  0.00    -0.320 N
HETATM   16  C9  UNL     1       4.354   6.422  80.003  1.00  0.00     0.155 C
HETATM   17  C10 UNL     1       2.979   4.358  79.980  1.00  0.00     0.231 C
HETATM   18  C13 UNL     1       2.216   3.488  80.920  1.00  0.00     0.206 C
HETATM   19  O8  UNL     1       2.732   2.378  81.059  1.00  0.00    -0.291 OA
ENDROOT
BRANCH   1  20
HETATM   20  N2  UNL     1       0.725   1.961  83.567  1.00  0.00    -0.295 N
ATOM     21  H2  UNL     1       1.635   1.963  84.027  1.00  0.00     0.183 HD
BRANCH  20  22
HETATM   22  C3  UNL     1      -0.449   1.513  84.235  1.00  0.00     0.281 C
BRANCH  22  23
HETATM   23  C2  UNL     1      -0.507   2.003  85.677  1.00  0.00     0.263 C
BRANCH  23  24
HETATM   24  N1  UNL     1      -0.657   3.415  85.802  1.00  0.00    -0.398 N
HETATM   25  C1  UNL     1      -1.995   3.909  85.815  1.00  0.00     0.142 C
ATOM     26  H1  UNL     1       0.148   4.037  85.879  1.00  0.00     0.155 HD
ENDBRANCH  23  24
BRANCH  23  27
HETATM   27  O1  UNL     1       0.640   1.605  86.354  1.00  0.00    -0.373 OA
ATOM     28  H1  UNL     1       0.705   0.658  86.326  1.00  0.00     0.212 HD
ENDBRANCH  23  27
ENDBRANCH  22  23
BRANCH  22  29
HETATM   29  O2  UNL     1      -0.414   0.107  84.288  1.00  0.00    -0.371 OA
ATOM     30  H2  UNL     1      -0.225  -0.194  83.408  1.00  0.00     0.212 HD
ENDBRANCH  22  29
ENDBRANCH  20  22
ENDBRANCH   1  20
BRANCH  17  31
HETATM   31  C11 UNL     1       4.035   3.553  79.299  1.00  0.00     0.153 C
HETATM   32  C12 UNL     1       5.464   3.585  79.696  1.00  0.00     0.093 C
HETATM   33  O7  UNL     1       3.730   2.827  78.371  1.00  0.00    -0.296 OA
ENDBRANCH  17  31
TORSDOF 7
ENDMDL