MODEL 5
REMARK VINA RESULT: -6.487389065      2.956      6.981
REMARK  8 active torsions:
REMARK  status: ('A' for Active; 'I' for Inactive)
REMARK    1  A    between atoms: N1_2  and  C3_4
REMARK    2  A    between atoms: C3_4  and  C4_5
REMARK    3  A    between atoms: C4_5  and  N2_6
REMARK    4  A    between atoms: N2_6  and  C5_8
REMARK    5  A    between atoms: C10_21  and  N6_22
REMARK    6  A    between atoms: N7_25  and  S1_26
REMARK    7  A    between atoms: S1_26  and  C12_29
REMARK    8  A    between atoms: C12_29  and  N8_30
ROOT
HETATM    1  C5  UNL     1       1.159   5.313  83.561  1.00  0.00     0.173 C
HETATM    2  N3  UNL     1       0.570   6.330  82.873  1.00  0.00    -0.323 N
ATOM      3  H3  UNL     1       1.187   7.060  82.516  1.00  0.00     0.169 HD
HETATM    4  C6  UNL     1      -0.756   6.470  82.616  1.00  0.00     0.130 A
HETATM    5  N4  UNL     1      -1.004   7.267  81.568  1.00  0.00    -0.293 N
ATOM      6  H4  UNL     1      -0.227   7.689  81.060  1.00  0.00     0.172 HD
HETATM    7  C7  UNL     1      -2.286   7.521  81.173  1.00  0.00     0.328 A
HETATM    8  O1  UNL     1      -2.485   8.273  80.186  1.00  0.00    -0.247 OA
HETATM    9  N5  UNL     1      -3.340   6.976  81.825  1.00  0.00    -0.275 N
ATOM     10  H5  UNL     1      -4.300   7.164  81.533  1.00  0.00     0.173 HD
HETATM   11  C8  UNL     1      -3.072   6.178  82.874  1.00  0.00     0.267 A
HETATM   12  O2  UNL     1      -4.044   5.661  83.497  1.00  0.00    -0.267 OA
HETATM   13  C9  UNL     1      -1.803   5.897  83.305  1.00  0.00     0.121 A
HETATM   14  C10 UNL     1      -1.769   5.036  84.420  1.00  0.00     0.136 C
HETATM   15  N7  UNL     1      -0.737   4.273  84.675  1.00  0.00    -0.217 N
HETATM   16  C13 UNL     1       0.579   4.372  84.392  1.00  0.00     0.304 C
HETATM   17  O4  UNL     1       1.386   3.571  84.895  1.00  0.00    -0.263 OA
ENDROOT
BRANCH  15  18
HETATM   18  S1  UNL     1      -1.127   2.640  85.686  1.00  0.00     0.056 S
HETATM   19  C11 UNL     1      -1.240   1.745  84.022  1.00  0.00     0.139 C
HETATM   20  O3  UNL     1       0.257   1.614  86.131  1.00  0.00    -0.248 OA
BRANCH  18  21
HETATM   21  C12 UNL     1      -2.866   2.290  86.193  1.00  0.00     0.346 C
BRANCH  21  22
HETATM   22  N8  UNL     1      -3.226   1.050  86.914  1.00  0.00    -0.068 N
ATOM     23  H83 UNL     1      -4.174   0.790  86.638  1.00  0.00     0.275 HD
ATOM     24  H82 UNL     1      -2.675   0.287  86.520  1.00  0.00     0.275 HD
ATOM     25  H81 UNL     1      -3.167   0.988  87.930  1.00  0.00     0.275 HD
ENDBRANCH  21  22
ENDBRANCH  18  21
ENDBRANCH  15  18
BRANCH  14  26
HETATM   26  N6  UNL     1      -2.763   5.085  85.115  1.00  0.00    -0.384 N
ATOM     27  H62 UNL     1      -3.235   5.952  85.372  1.00  0.00     0.157 HD
ATOM     28  H61 UNL     1      -3.107   4.172  85.415  1.00  0.00     0.157 HD
ENDBRANCH  14  26
BRANCH   1  29
HETATM   29  N2  UNL     1       2.421   5.203  83.422  1.00  0.00    -0.370 N
ATOM     30  H2  UNL     1       2.945   4.937  84.256  1.00  0.00     0.161 HD
BRANCH  29  31
HETATM   31  C4  UNL     1       3.189   5.407  82.236  1.00  0.00     0.151 C
BRANCH  31  32
HETATM   32  C3  UNL     1       3.469   4.018  81.645  1.00  0.00     0.290 C
BRANCH  32  33
HETATM   33  N1  UNL     1       2.430   3.586  80.741  1.00  0.00     0.081 N
HETATM   34  C1  UNL     1       2.929   3.459  79.404  1.00  0.00     0.309 C
HETATM   35  C2  UNL     1       1.944   2.302  81.192  1.00  0.00     0.309 C
ENDBRANCH  32  33
ENDBRANCH  31  32
ENDBRANCH  29  31
ENDBRANCH   1  29
TORSDOF 8
ENDMDL