MODEL 1
REMARK VINA RESULT: -7.945942205      0.000      0.000
REMARK  6 active torsions:
REMARK  status: ('A' for Active; 'I' for Inactive)
REMARK    1  A    between atoms: C2_2  and  C3_3
REMARK    2  A    between atoms: C3_3  and  N1_4
REMARK    3  A    between atoms: C8_14  and  C9_15
REMARK    4  A    between atoms: C10_16  and  C11_17
REMARK    5  A    between atoms: C13_25  and  N8_26
REMARK    6  A    between atoms: N9_32  and  O4_33
ROOT
HETATM    1  N1  UNL     1       1.556   6.291  82.712  1.00  0.00    -0.281 N
HETATM    2  N2  UNL     1       2.061   6.929  81.665  1.00  0.00    -0.248 N
ATOM      3  H2  UNL     1       2.669   7.735  81.814  1.00  0.00     0.192 HD
HETATM    4  C4  UNL     1       1.786   6.532  80.415  1.00  0.00     0.340 A
HETATM    5  O1  UNL     1       2.298   7.182  79.453  1.00  0.00    -0.245 OA
HETATM    6  N3  UNL     1       0.986   5.469  80.201  1.00  0.00    -0.290 N
ATOM      7  H3  UNL     1       0.785   5.177  79.245  1.00  0.00     0.172 HD
HETATM    8  C5  UNL     1       0.450   4.789  81.224  1.00  0.00     0.165 A
HETATM    9  C6  UNL     1       0.763   5.237  82.514  1.00  0.00     0.098 A
HETATM   10  C7  UNL     1       0.240   4.559  83.568  1.00  0.00     0.049 A
HETATM   11  C8  UNL     1      -0.580   3.455  83.327  1.00  0.00     0.002 A
HETATM   12  C14 UNL     1      -0.888   3.018  82.070  1.00  0.00     0.049 A
HETATM   13  C15 UNL     1      -1.792   1.882  81.753  1.00  0.00     0.072 C
HETATM   14  N9  UNL     1      -0.342   3.726  81.046  1.00  0.00    -0.209 N
ENDROOT
BRANCH  11  15
HETATM   15  C9  UNL     1      -1.137   2.752  84.488  1.00  0.00     0.023 C
HETATM   16  C10 UNL     1      -2.216   3.147  85.132  1.00  0.00     0.136 C
HETATM   17  N4  UNL     1      -2.514   2.264  86.202  1.00  0.00    -0.247 N
HETATM   18  N5  UNL     1      -3.150   2.046  87.418  1.00  0.00    -0.008 NA
HETATM   19  C12 UNL     1      -1.866   1.004  85.891  1.00  0.00     0.251 C
HETATM   20  N6  UNL     1      -2.710   0.849  87.948  1.00  0.00    -0.015 NA
HETATM   21  N7  UNL     1      -1.571   0.488  87.183  1.00  0.00    -0.099 NA
HETATM   22  C13 UNL     1      -0.640   1.533  85.138  1.00  0.00     0.261 C
BRANCH  16  23
HETATM   23  C11 UNL     1      -3.070   4.316  84.858  1.00  0.00     0.228 C
HETATM   24  O2  UNL     1      -3.725   4.503  83.803  1.00  0.00    -0.643 OA
HETATM   25  O3  UNL     1      -3.184   5.304  85.809  1.00  0.00    -0.643 OA
ENDBRANCH  16  23
BRANCH  22  26
HETATM   26  N8  UNL     1       0.409   1.887  86.080  1.00  0.00    -0.068 N
ATOM     27  H83 UNL     1       1.285   1.402  85.883  1.00  0.00     0.275 HD
ATOM     28  H82 UNL     1       0.740   2.843  85.948  1.00  0.00     0.275 HD
ATOM     29  H81 UNL     1       0.079   1.719  87.030  1.00  0.00     0.275 HD
ENDBRANCH  22  26
ENDBRANCH  11  15
BRANCH  14  30
HETATM   30  O4  UNL     1      -0.625   3.321  79.766  1.00  0.00    -0.281 OA
ATOM     31  H4  UNL     1       0.043   2.856  79.275  1.00  0.00     0.245 HD
ENDBRANCH  14  30
BRANCH   1  32
HETATM   32  C3  UNL     1       1.865   6.779  84.061  1.00  0.00     0.176 C
BRANCH  32  33
HETATM   33  C2  UNL     1       1.199   8.074  84.261  1.00  0.00    -0.015 C
HETATM   34  C1  UNL     1       1.440   8.817  85.307  1.00  0.00     0.008 C
ENDBRANCH  32  33
ENDBRANCH   1  32
TORSDOF 6
ENDMDL