MODEL 2
REMARK VINA RESULT: -7.576392766      1.966      5.493
REMARK  8 active torsions:
REMARK  status: ('A' for Active; 'I' for Inactive)
REMARK    1  A    between atoms: C2_2  and  O1_3
REMARK    2  A    between atoms: C2_2  and  C3_5
REMARK    3  A    between atoms: C3_5  and  O2_6
REMARK    4  A    between atoms: C3_5  and  C4_8
REMARK    5  A    between atoms: C3_5  and  N4_16
REMARK    6  A    between atoms: C4_8  and  N1_9
REMARK    7  A    between atoms: N5_21  and  O3_22
REMARK    8  A    between atoms: C11_24  and  N6_25
ROOT
HETATM    1  N4  UNL     1      -0.415   5.331  81.951  1.00  0.00    -0.229 N
HETATM    2  C7  UNL     1      -1.174   4.738  82.898  1.00  0.00     0.158 A
HETATM    3  C8  UNL     1      -0.973   3.555  83.692  1.00  0.00     0.096 A
HETATM    4  C9  UNL     1      -0.771   3.665  85.043  1.00  0.00     0.054 A
HETATM    5  C10 UNL     1      -0.612   2.555  85.853  1.00  0.00     0.144 A
HETATM    6  N5  UNL     1      -0.662   1.341  85.258  1.00  0.00    -0.064 N
HETATM    7  C11 UNL     1      -0.858   1.227  83.945  1.00  0.00     0.702 A
HETATM    8  N7  UNL     1      -1.012   2.342  83.170  1.00  0.00    -0.186 N
ATOM      9  H7  UNL     1      -1.160   2.235  82.167  1.00  0.00     0.184 HD
HETATM   10  N8  UNL     1      -2.336   5.444  83.088  1.00  0.00    -0.305 N
HETATM   11  C12 UNL     1      -3.423   5.133  84.024  1.00  0.00     0.161 C
HETATM   12  C13 UNL     1      -2.282   6.468  82.254  1.00  0.00     0.207 A
HETATM   13  N9  UNL     1      -1.156   6.405  81.584  1.00  0.00    -0.246 N
HETATM   14  C14 UNL     1      -1.083   7.536  80.657  1.00  0.00     0.255 A
HETATM   15  C15 UNL     1      -2.340   8.285  80.850  1.00  0.00     0.244 A
HETATM   16  O4  UNL     1      -2.722   9.333  80.251  1.00  0.00    -0.271 OA
HETATM   17  N10 UNL     1      -3.073   7.609  81.854  1.00  0.00    -0.296 N
ATOM     18  H10 UNL     1      -3.985   7.877  82.225  1.00  0.00     0.172 HD
ENDROOT
BRANCH   1  19
HETATM   19  C3  UNL     1       0.874   4.944  81.415  1.00  0.00     0.198 C
BRANCH  19  20
HETATM   20  C2  UNL     1       0.915   4.154  80.179  1.00  0.00     0.173 C
HETATM   21  C1  UNL     1       0.522   4.679  78.879  1.00  0.00     0.044 C
BRANCH  20  22
HETATM   22  O1  UNL     1       0.396   2.878  80.450  1.00  0.00    -0.391 OA
ATOM     23  H1  UNL     1       0.918   2.378  81.066  1.00  0.00     0.210 HD
ENDBRANCH  20  22
ENDBRANCH  19  20
BRANCH  19  24
HETATM   24  O2  UNL     1       1.342   3.975  82.396  1.00  0.00    -0.366 OA
ATOM     25  H2  UNL     1       2.184   4.344  82.639  1.00  0.00     0.212 HD
ENDBRANCH  19  24
BRANCH  19  26
HETATM   26  C4  UNL     1       1.933   5.989  81.594  1.00  0.00     0.215 C
BRANCH  26  27
HETATM   27  N1  UNL     1       3.248   5.398  81.398  1.00  0.00    -0.283 N
HETATM   28  C5  UNL     1       3.970   5.219  80.283  1.00  0.00     0.130 A
HETATM   29  C6  UNL     1       5.166   4.607  80.615  1.00  0.00     0.127 A
HETATM   30  N2  UNL     1       5.118   4.437  81.946  1.00  0.00    -0.296 N
HETATM   31  N3  UNL     1       3.983   4.910  82.376  1.00  0.00    -0.241 N
ATOM     32  H2  UNL     1       5.845   4.011  82.521  1.00  0.00     0.187 HD
ATOM     33  H3  UNL     1       3.697   4.903  83.355  1.00  0.00     0.208 HD
ENDBRANCH  26  27
ENDBRANCH  19  26
ENDBRANCH   1  19
BRANCH   7  34
HETATM   34  N6  UNL     1      -0.903   0.065  83.400  1.00  0.00    -0.232 N
ATOM     35  H62 UNL     1      -1.647  -0.584  83.656  1.00  0.00     0.174 HD
ATOM     36  H61 UNL     1      -0.197  -0.205  82.714  1.00  0.00     0.174 HD
ENDBRANCH   7  34
BRANCH   6  37
HETATM   37  O3  UNL     1      -0.498   0.251  86.097  1.00  0.00    -0.270 OA
ATOM     38  H3  UNL     1       0.399  -0.011  86.264  1.00  0.00     0.245 HD
ENDBRANCH   6  37
TORSDOF 8
ENDMDL