MODEL 5
REMARK VINA RESULT: -7.295141487      2.069      4.239
REMARK  7 active torsions:
REMARK  status: ('A' for Active; 'I' for Inactive)
REMARK       I    between atoms: N1_2  and  C2_4
REMARK    1  A    between atoms: C2_4  and  C3_6
REMARK    2  A    between atoms: C3_6  and  O2_7
REMARK    3  A    between atoms: C3_6  and  C4_9
REMARK    4  A    between atoms: C4_9  and  N2_10
REMARK       I    between atoms: N2_10  and  C5_12
REMARK    5  A    between atoms: C5_12  and  C6_14
REMARK    6  A    between atoms: C6_14  and  N3_15
REMARK    7  A    between atoms: N3_15  and  C7_17
ROOT
HETATM    1  C7  UNL     1       1.229   4.480  83.181  1.00  0.00     0.684 A
HETATM    2  N4  UNL     1       0.932   3.575  84.129  1.00  0.00    -0.184 N
ATOM      3  H4  UNL     1       1.670   2.949  84.456  1.00  0.00     0.184 HD
HETATM    4  C8  UNL     1      -0.297   3.458  84.665  1.00  0.00     0.149 A
HETATM    5  C9  UNL     1      -0.562   2.511  85.640  1.00  0.00     0.281 A
HETATM    6  O4  UNL     1       0.382   1.770  86.003  1.00  0.00    -0.265 OA
HETATM    7  N5  UNL     1      -1.800   2.433  86.143  1.00  0.00    -0.269 N
HETATM    8  C10 UNL     1      -2.095   1.435  87.176  1.00  0.00     0.164 C
HETATM    9  C11 UNL     1      -2.745   3.264  85.695  1.00  0.00     0.331 A
HETATM   10  O5  UNL     1      -3.898   3.160  86.192  1.00  0.00    -0.246 OA
HETATM   11  N6  UNL     1      -2.548   4.212  84.743  1.00  0.00    -0.297 N
HETATM   12  C12 UNL     1      -3.614   5.073  84.309  1.00  0.00     0.161 C
HETATM   13  C13 UNL     1      -1.316   4.309  84.224  1.00  0.00     0.140 A
HETATM   14  C14 UNL     1      -1.020   5.233  83.259  1.00  0.00     0.291 A
HETATM   15  O6  UNL     1      -1.918   6.004  82.852  1.00  0.00    -0.265 OA
HETATM   16  N7  UNL     1       0.236   5.287  82.773  1.00  0.00    -0.150 N
HETATM   17  C15 UNL     1       0.523   6.274  81.753  1.00  0.00     0.179 C
ENDROOT
BRANCH   1  18
HETATM   18  N3  UNL     1       2.389   4.589  82.677  1.00  0.00    -0.217 N
ATOM     19  H3  UNL     1       2.846   5.495  82.781  1.00  0.00     0.178 HD
BRANCH  18  20
HETATM   20  C6  UNL     1       3.120   3.589  81.985  1.00  0.00     0.240 C
BRANCH  20  21
HETATM   21  C5  UNL     1       2.212   2.765  81.165  1.00  0.00     0.235 C
HETATM   22  N2  UNL     1       1.900   1.405  81.547  1.00  0.00    -0.357 N
ATOM     23  H2  UNL     1       2.321   1.030  82.397  1.00  0.00     0.162 HD
HETATM   24  O3  UNL     1       1.717   3.270  80.129  1.00  0.00    -0.272 OA
BRANCH  22  25
HETATM   25  C4  UNL     1       1.028   0.564  80.787  1.00  0.00     0.164 C
BRANCH  25  26
HETATM   26  C3  UNL     1      -0.202   0.216  81.594  1.00  0.00     0.227 C
BRANCH  26  27
HETATM   27  C2  UNL     1      -0.418  -1.246  81.713  1.00  0.00     0.247 C
HETATM   28  N1  UNL     1       0.403  -2.260  81.189  1.00  0.00    -0.363 N
HETATM   29  C1  UNL     1       0.093  -3.680  81.369  1.00  0.00     0.149 C
ATOM     30  H1  UNL     1       1.241  -1.999  80.668  1.00  0.00     0.162 HD
HETATM   31  O1  UNL     1      -1.457  -1.646  82.356  1.00  0.00    -0.271 OA
ENDBRANCH  26  27
BRANCH  26  32
HETATM   32  O2  UNL     1       0.119   0.636  82.926  1.00  0.00    -0.384 OA
ATOM     33  H2  UNL     1      -0.555   1.271  83.140  1.00  0.00     0.210 HD
ENDBRANCH  26  32
ENDBRANCH  25  26
ENDBRANCH  22  25
ENDBRANCH  20  21
ENDBRANCH  18  20
ENDBRANCH   1  18
TORSDOF 7
ENDMDL