MODEL 4
REMARK VINA RESULT: -6.927052997      1.755      1.957
REMARK  6 active torsions:
REMARK  status: ('A' for Active; 'I' for Inactive)
REMARK    1  A    between atoms: N1_2  and  C3_4
REMARK    2  A    between atoms: C4_7  and  N3_8
REMARK    3  A    between atoms: N3_8  and  N4_10
REMARK    4  A    between atoms: N7_19  and  C6_20
REMARK    5  A    between atoms: C6_20  and  C7_21
REMARK    6  A    between atoms: N9_27  and  C10_28
ROOT
HETATM    1  C10 UNL     1       5.915   5.941  81.183  1.00  0.00     0.261 C
HETATM    2  C11 UNL     1       6.836   5.378  82.169  1.00  0.00     0.079 C
HETATM    3  N10 UNL     1       7.560   4.940  82.981  1.00  0.00    -0.196 NA
ENDROOT
BRANCH   1   4
HETATM    4  N9  UNL     1       4.562   5.966  81.682  1.00  0.00    -0.251 N
HETATM    5  C9  UNL     1       3.757   4.929  81.450  1.00  0.00     0.283 A
HETATM    6  C8  UNL     1       2.450   4.910  81.908  1.00  0.00     0.147 A
HETATM    7  O1  UNL     1       4.155   3.931  80.806  1.00  0.00    -0.265 OA
HETATM    8  N8  UNL     1       1.449   4.023  81.817  1.00  0.00    -0.337 N
HETATM    9  C14 UNL     1       1.990   5.998  82.619  1.00  0.00     0.145 A
HETATM   10  C7  UNL     1       0.355   4.492  82.442  1.00  0.00     0.103 A
ATOM     11  H8  UNL     1       1.509   3.122  81.342  1.00  0.00     0.167 HD
HETATM   12  N12 UNL     1       0.714   5.702  82.923  1.00  0.00    -0.328 N
ATOM     13  H12 UNL     1       0.094   6.315  83.451  1.00  0.00     0.169 HD
HETATM   14  N11 UNL     1       2.812   7.034  82.846  1.00  0.00    -0.287 N
HETATM   15  C12 UNL     1       4.097   7.016  82.377  1.00  0.00     0.333 A
HETATM   16  C13 UNL     1       2.346   8.188  83.598  1.00  0.00     0.163 C
HETATM   17  O2  UNL     1       4.895   7.973  82.573  1.00  0.00    -0.246 OA
BRANCH  10  18
HETATM   18  C6  UNL     1      -0.920   3.768  82.514  1.00  0.00     0.243 C
BRANCH  18  19
HETATM   19  N7  UNL     1      -1.064   2.760  83.499  1.00  0.00    -0.006 N
HETATM   20  C3  UNL     1      -0.882   1.470  83.211  1.00  0.00     0.711 A
HETATM   21  N2  UNL     1      -1.053   0.533  84.201  1.00  0.00    -0.020 N
HETATM   22  C4  UNL     1      -1.398   0.919  85.434  1.00  0.00     0.725 A
ATOM     23  H2  UNL     1      -0.918  -0.457  83.995  1.00  0.00     0.203 HD
HETATM   24  N5  UNL     1      -1.574   2.226  85.690  1.00  0.00    -0.020 N
HETATM   25  C5  UNL     1      -1.418   3.168  84.759  1.00  0.00     0.707 A
ATOM     26  H5  UNL     1      -1.838   2.509  86.634  1.00  0.00     0.203 HD
HETATM   27  N6  UNL     1      -1.608   4.426  85.031  1.00  0.00    -0.233 N
ATOM     28  H62 UNL     1      -1.871   4.730  85.969  1.00  0.00     0.174 HD
ATOM     29  H61 UNL     1      -1.489   5.146  84.320  1.00  0.00     0.174 HD
BRANCH  20  30
HETATM   30  N1  UNL     1      -0.542   0.914  81.952  1.00  0.00    -0.225 N
HETATM   31  C1  UNL     1      -1.574   0.445  81.057  1.00  0.00     0.168 C
HETATM   32  C2  UNL     1       0.837   0.739  81.500  1.00  0.00     0.168 C
ENDBRANCH  20  30
BRANCH  22  33
HETATM   33  N3  UNL     1      -1.555   0.026  86.343  1.00  0.00    -0.138 N
ATOM     34  H3  UNL     1      -0.993  -0.823  86.280  1.00  0.00     0.205 HD
BRANCH  33  35
HETATM   35  N4  UNL     1      -2.442   0.146  87.405  1.00  0.00    -0.331 N
ATOM     36  H42 UNL     1      -3.107   0.918  87.367  1.00  0.00     0.177 HD
ATOM     37  H41 UNL     1      -2.463  -0.487  88.205  1.00  0.00     0.177 HD
ENDBRANCH  33  35
ENDBRANCH  22  33
ENDBRANCH  18  19
ENDBRANCH  10  18
ENDBRANCH   1   4
TORSDOF 6
ENDMDL