MODEL 2
REMARK VINA RESULT: -7.983589543      2.621      6.802
REMARK  7 active torsions:
REMARK  status: ('A' for Active; 'I' for Inactive)
REMARK    1  A    between atoms: N3_4  and  N4_6
REMARK    2  A    between atoms: C2_8  and  C3_9
REMARK    3  A    between atoms: N5_11  and  C5_12
REMARK    4  A    between atoms: C5_12  and  C6_13
REMARK    5  A    between atoms: C6_13  and  O1_14
REMARK    6  A    between atoms: C8_17  and  C9_18
REMARK    7  A    between atoms: N10_33  and  O5_34
ROOT
HETATM    1  C9  UNL     1      -0.266   3.187  83.677  1.00  0.00     0.166 A
HETATM    2  N6  UNL     1      -0.409   2.034  84.331  1.00  0.00    -0.172 N
ATOM      3  H6  UNL     1       0.228   1.264  84.126  1.00  0.00     0.186 HD
HETATM    4  C10 UNL     1      -1.371   1.857  85.254  1.00  0.00     0.702 A
HETATM    5  N7  UNL     1      -1.483   0.666  85.898  1.00  0.00    -0.140 N
ATOM      6  H7  UNL     1      -0.840  -0.096  85.684  1.00  0.00     0.189 HD
HETATM    7  C11 UNL     1      -2.430   0.503  86.803  1.00  0.00     0.342 A
HETATM    8  O2  UNL     1      -2.537  -0.605  87.405  1.00  0.00    -0.246 OA
HETATM    9  N8  UNL     1      -3.318   1.466  87.142  1.00  0.00    -0.259 N
ATOM     10  H8  UNL     1      -4.039   1.310  87.847  1.00  0.00     0.175 HD
HETATM   11  C12 UNL     1      -3.197   2.638  86.499  1.00  0.00     0.353 A
HETATM   12  O3  UNL     1      -3.989   3.591  86.758  1.00  0.00    -0.245 OA
HETATM   13  N9  UNL     1      -2.238   2.840  85.565  1.00  0.00    -0.040 N
HETATM   14  C13 UNL     1      -2.122   4.015  84.927  1.00  0.00     0.377 A
HETATM   15  O4  UNL     1      -2.925   4.941  85.207  1.00  0.00    -0.243 OA
HETATM   16  N10 UNL     1      -1.146   4.177  83.995  1.00  0.00    -0.153 N
ENDROOT
BRANCH   1  17
HETATM   17  C8  UNL     1       0.756   3.393  82.633  1.00  0.00     0.040 A
HETATM   18  C3  UNL     1       1.264   2.529  81.711  1.00  0.00     0.012 A
HETATM   19  C4  UNL     1       2.181   3.280  80.932  1.00  0.00     0.104 A
HETATM   20  N5  UNL     1       2.228   4.533  81.356  1.00  0.00    -0.363 N
HETATM   21  C7  UNL     1       1.372   4.609  82.382  1.00  0.00     0.106 A
BRANCH  18  22
HETATM   22  C2  UNL     1       0.988   1.145  81.440  1.00  0.00     0.121 C
HETATM   23  N4  UNL     1      -0.135   0.623  81.184  1.00  0.00    -0.309 N
ATOM     24  H4  UNL     1      -0.948   1.239  81.162  1.00  0.00     0.186 HD
BRANCH  23  25
HETATM   25  N3  UNL     1      -0.346  -0.731  80.928  1.00  0.00    -0.276 N
HETATM   26  C1  UNL     1      -0.831  -1.475  81.868  1.00  0.00     0.215 C
HETATM   27  N1  UNL     1      -1.146  -0.948  83.135  1.00  0.00    -0.065 NA
HETATM   28  N2  UNL     1      -1.066  -2.867  81.656  1.00  0.00    -0.065 NA
ATOM     29  H3  UNL     1      -0.121  -1.127  80.016  1.00  0.00     0.189 HD
ENDBRANCH  23  25
ENDBRANCH  18  22
BRANCH  20  30
HETATM   30  C5  UNL     1       3.063   5.580  80.785  1.00  0.00     0.153 C
BRANCH  30  31
HETATM   31  C6  UNL     1       3.940   6.219  81.834  1.00  0.00     0.184 C
BRANCH  31  32
HETATM   32  O1  UNL     1       4.841   5.211  82.251  1.00  0.00    -0.399 OA
ATOM     33  H1  UNL     1       4.405   4.749  82.957  1.00  0.00     0.209 HD
ENDBRANCH  31  32
ENDBRANCH  30  31
ENDBRANCH  20  30
ENDBRANCH   1  17
BRANCH  16  34
HETATM   34  O5  UNL     1      -1.098   5.373  83.362  1.00  0.00    -0.277 OA
ATOM     35  H5  UNL     1      -0.375   5.588  82.785  1.00  0.00     0.245 HD
ENDBRANCH  16  34
TORSDOF 7
ENDMDL