MODEL 3
REMARK VINA RESULT: -8.038348375      2.128      3.462
REMARK  7 active torsions:
REMARK  status: ('A' for Active; 'I' for Inactive)
REMARK    1  A    between atoms: C1_2  and  C2_4
REMARK    2  A    between atoms: C2_4  and  N2_5
REMARK    3  A    between atoms: C2_4  and  C11_20
REMARK    4  A    between atoms: N2_5  and  C3_7
REMARK    5  A    between atoms: C10_17  and  O2_18
REMARK       I    between atoms: C11_20  and  N5_22
REMARK    6  A    between atoms: N5_22  and  C12_24
REMARK    7  A    between atoms: N9_31  and  C13_32
ROOT
HETATM    1  C11 UNL     1       1.069   1.331  81.393  1.00  0.00     0.267 C
HETATM    2  O3  UNL     1       1.315   0.570  80.461  1.00  0.00    -0.270 OA
HETATM    3  N5  UNL     1       1.836   2.324  81.883  1.00  0.00    -0.154 N
ATOM      4  H5  UNL     1       2.641   1.882  82.328  1.00  0.00     0.187 HD
ENDROOT
BRANCH   1   5
HETATM    5  C2  UNL     1      -0.337   1.083  82.093  1.00  0.00     0.265 C
BRANCH   5   6
HETATM    6  C1  UNL     1      -1.319   1.731  81.240  1.00  0.00     0.263 C
HETATM    7  N1  UNL     1      -0.935   2.817  80.386  1.00  0.00    -0.060 NA
HETATM    8  O1  UNL     1      -2.540   1.369  81.171  1.00  0.00    -0.274 OA
ENDBRANCH   5   6
BRANCH   5   9
HETATM    9  N2  UNL     1      -0.101   1.742  83.359  1.00  0.00    -0.365 N
ATOM     10  H2  UNL     1       0.850   1.711  83.727  1.00  0.00     0.161 HD
BRANCH   9  11
HETATM   11  C3  UNL     1      -1.067   2.425  84.134  1.00  0.00     0.093 A
HETATM   12  C4  UNL     1      -1.758   1.935  85.197  1.00  0.00     0.023 A
HETATM   13  C5  UNL     1      -1.747   0.704  85.819  1.00  0.00     0.016 A
HETATM   14  C9  UNL     1      -2.525   2.972  85.693  1.00  0.00     0.071 A
HETATM   15  C6  UNL     1      -2.507   0.476  86.981  1.00  0.00     0.003 A
HETATM   16  C7  UNL     1      -3.260   1.485  87.469  1.00  0.00     0.029 A
HETATM   17  C8  UNL     1      -3.273   2.736  86.836  1.00  0.00     0.074 A
HETATM   18  N3  UNL     1      -4.014   3.851  87.402  1.00  0.00    -0.100 NA
HETATM   19  N4  UNL     1      -2.383   4.041  85.011  1.00  0.00    -0.333 N
HETATM   20  C10 UNL     1      -1.460   3.813  83.994  1.00  0.00     0.168 A
ATOM     21  H4  UNL     1      -2.869   4.922  85.183  1.00  0.00     0.168 HD
BRANCH  20  22
HETATM   22  O2  UNL     1      -1.003   4.619  83.076  1.00  0.00    -0.344 OA
ATOM     23  H2  UNL     1      -1.548   5.176  82.532  1.00  0.00     0.219 HD
ENDBRANCH  20  22
ENDBRANCH   9  11
ENDBRANCH   5   9
ENDBRANCH   1   5
BRANCH   3  24
HETATM   24  C12 UNL     1       1.980   3.555  82.022  1.00  0.00     0.738 A
HETATM   25  N6  UNL     1       2.082   4.248  83.180  1.00  0.00    -0.114 N
HETATM   26  N7  UNL     1       2.318   5.517  82.944  1.00  0.00    -0.212 N
ATOM     27  H6  UNL     1       1.987   3.839  84.110  1.00  0.00     0.207 HD
HETATM   28  N8  UNL     1       2.394   5.689  81.675  1.00  0.00    -0.191 N
ATOM     29  H7  UNL     1       2.424   6.245  83.652  1.00  0.00     0.210 HD
HETATM   30  N9  UNL     1       2.180   4.486  81.077  1.00  0.00     0.109 N
ATOM     31  H8  UNL     1       2.582   6.570  81.199  1.00  0.00     0.211 HD
BRANCH  30  32
HETATM   32  C13 UNL     1       2.115   4.425  79.636  1.00  0.00     0.735 A
HETATM   33  N10 UNL     1       3.088   4.091  78.807  1.00  0.00    -0.183 N
HETATM   34  C14 UNL     1       2.661   4.262  77.519  1.00  0.00     0.215 A
ATOM     35  H10 UNL     1       4.011   3.757  79.084  1.00  0.00     0.185 HD
HETATM   36  N11 UNL     1       1.396   4.708  77.553  1.00  0.00    -0.281 N
HETATM   37  N12 UNL     1       1.082   4.804  78.856  1.00  0.00    -0.129 N
ATOM     38  H11 UNL     1       0.797   4.927  76.757  1.00  0.00     0.188 HD
ATOM     39  H12 UNL     1       0.180   5.123  79.210  1.00  0.00     0.205 HD
ENDBRANCH  30  32
ENDBRANCH   3  24
TORSDOF 7
ENDMDL