MODEL 3
REMARK VINA RESULT: -7.577049000      2.326      3.962
REMARK  8 active torsions:
REMARK  status: ('A' for Active; 'I' for Inactive)
REMARK    1  A    between atoms: N2_5  and  C3_6
REMARK    2  A    between atoms: C3_6  and  C4_7
REMARK    3  A    between atoms: C7_16  and  N5_17
REMARK       I    between atoms: N5_17  and  C8_19
REMARK    4  A    between atoms: N7_21  and  C9_23
REMARK    5  A    between atoms: C9_23  and  C10_24
REMARK    6  A    between atoms: N8_25  and  O4_26
REMARK    7  A    between atoms: N9_28  and  C11_29
REMARK    8  A    between atoms: C11_29  and  O5_30
ROOT
HETATM    1  N5  UNL     1      -0.636   2.900  81.375  1.00  0.00    -0.314 N
ATOM      2  H5  UNL     1      -0.701   1.898  81.201  1.00  0.00     0.170 HD
HETATM    3  C8  UNL     1       0.017   3.680  80.403  1.00  0.00     0.190 C
HETATM    4  N6  UNL     1      -0.728   4.204  79.330  1.00  0.00    -0.063 NA
HETATM    5  N7  UNL     1       1.268   3.909  80.495  1.00  0.00    -0.357 N
ATOM      6  H7  UNL     1       1.752   3.502  81.296  1.00  0.00     0.162 HD
ENDROOT
BRANCH   1   7
HETATM    7  C7  UNL     1      -1.151   3.338  82.452  1.00  0.00     0.152 A
HETATM    8  N4  UNL     1      -1.523   4.615  82.638  1.00  0.00    -0.281 N
HETATM    9  N3  UNL     1      -2.059   5.030  83.779  1.00  0.00    -0.263 N
ATOM     10  H4  UNL     1      -1.391   5.285  81.880  1.00  0.00     0.188 HD
HETATM   11  C6  UNL     1      -2.272   4.220  84.832  1.00  0.00     0.289 A
ATOM     12  H3  UNL     1      -2.322   6.012  83.862  1.00  0.00     0.190 HD
HETATM   13  C5  UNL     1      -1.912   2.895  84.705  1.00  0.00     0.140 A
HETATM   14  O3  UNL     1      -2.792   4.665  85.912  1.00  0.00    -0.264 OA
HETATM   15  N2  UNL     1      -1.995   1.868  85.551  1.00  0.00    -0.286 N
HETATM   16  C12 UNL     1      -1.349   2.468  83.503  1.00  0.00     0.117 A
HETATM   17  C2  UNL     1      -1.493   0.805  84.896  1.00  0.00     0.330 A
HETATM   18  N1  UNL     1      -1.102   1.160  83.660  1.00  0.00    -0.298 N
HETATM   19  O1  UNL     1      -1.387  -0.369  85.341  1.00  0.00    -0.246 OA
HETATM   20  C1  UNL     1      -0.509   0.327  82.627  1.00  0.00     0.161 C
BRANCH  15  21
HETATM   21  C3  UNL     1      -2.509   1.846  86.906  1.00  0.00     0.203 C
BRANCH  21  22
HETATM   22  C4  UNL     1      -3.915   1.384  86.901  1.00  0.00     0.251 C
HETATM   23  O2  UNL     1      -4.144   0.226  87.195  1.00  0.00    -0.305 OA
ENDBRANCH  21  22
ENDBRANCH  15  21
ENDBRANCH   1   7
BRANCH   5  24
HETATM   24  C9  UNL     1       2.059   4.679  79.588  1.00  0.00     0.204 C
BRANCH  24  25
HETATM   25  C10 UNL     1       3.151   5.398  80.307  1.00  0.00     0.160 C
HETATM   26  N8  UNL     1       3.878   5.019  81.293  1.00  0.00    -0.131 N
HETATM   27  N9  UNL     1       4.794   6.003  81.673  1.00  0.00    -0.166 N
HETATM   28  N10 UNL     1       4.342   7.201  81.111  1.00  0.00     0.001 NA
HETATM   29  N11 UNL     1       3.600   6.717  80.003  1.00  0.00    -0.267 N
ATOM     30  H11 UNL     1       3.419   7.226  79.137  1.00  0.00     0.185 HD
BRANCH  26  31
HETATM   31  O4  UNL     1       3.779   3.784  81.916  1.00  0.00    -0.265 OA
ATOM     32  H4  UNL     1       3.215   3.598  82.657  1.00  0.00     0.247 HD
ENDBRANCH  26  31
BRANCH  27  33
HETATM   33  C11 UNL     1       5.998   5.826  82.498  1.00  0.00     0.334 C
BRANCH  33  34
HETATM   34  O5  UNL     1       6.442   4.491  82.387  1.00  0.00    -0.379 OA
ATOM     35  H5  UNL     1       6.347   4.061  83.228  1.00  0.00     0.211 HD
ENDBRANCH  33  34
ENDBRANCH  27  33
ENDBRANCH  24  25
ENDBRANCH   5  24
TORSDOF 8
ENDMDL