MODEL 5
REMARK VINA RESULT: -7.555544354      3.660      6.574
REMARK  9 active torsions:
REMARK  status: ('A' for Active; 'I' for Inactive)
REMARK    1  A    between atoms: N4_11  and  C4_12
REMARK    2  A    between atoms: C4_12  and  O2_13
REMARK    3  A    between atoms: O2_13  and  C5_14
REMARK    4  A    between atoms: C5_14  and  N5_15
REMARK    5  A    between atoms: N7_18  and  C6_19
REMARK    6  A    between atoms: C9_24  and  N9_25
REMARK    7  A    between atoms: C10_30  and  N11_31
REMARK    8  A    between atoms: N11_31  and  C11_33
REMARK    9  A    between atoms: C11_33  and  O3_37
ROOT
HETATM    1  C1  UNL     1       0.514   2.834  85.708  1.00  0.00     0.021 C
HETATM    2  C2  UNL     1      -0.505   2.283  86.065  1.00  0.00    -0.038 C
HETATM    3  C3  UNL     1      -1.694   1.615  86.484  1.00  0.00     0.197 A
HETATM    4  N1  UNL     1      -1.640   0.402  86.910  1.00  0.00    -0.255 N
ATOM      5  H1  UNL     1      -0.742  -0.080  86.945  1.00  0.00     0.191 HD
HETATM    6  N2  UNL     1      -2.808  -0.272  87.328  1.00  0.00    -0.179 N
ATOM      7  H2  UNL     1      -2.772  -1.233  87.666  1.00  0.00     0.218 HD
HETATM    8  O1  UNL     1      -3.991   0.417  87.261  1.00  0.00    -0.125 OA
HETATM    9  N3  UNL     1      -3.995   1.699  86.803  1.00  0.00    -0.174 N
ATOM     10  H3  UNL     1      -4.881   2.202  86.758  1.00  0.00     0.218 HD
HETATM   11  N4  UNL     1      -2.938   2.291  86.431  1.00  0.00    -0.222 N
ENDROOT
BRANCH  11  12
HETATM   12  C4  UNL     1      -2.934   3.673  85.936  1.00  0.00     0.329 C
BRANCH  12  13
HETATM   13  O2  UNL     1      -3.275   3.729  84.611  1.00  0.00    -0.323 OA
BRANCH  13  14
HETATM   14  C5  UNL     1      -2.906   4.845  83.905  1.00  0.00     0.258 C
BRANCH  14  15
HETATM   15  N5  UNL     1      -1.505   4.903  83.541  1.00  0.00    -0.194 N
HETATM   16  N6  UNL     1      -0.715   5.875  84.022  1.00  0.00    -0.228 N
HETATM   17  N7  UNL     1       0.569   5.977  83.750  1.00  0.00    -0.261 N
ATOM     18  H6  UNL     1      -1.133   6.576  84.634  1.00  0.00     0.209 HD
HETATM   19  C8  UNL     1       1.113   5.051  82.942  1.00  0.00     0.158 A
HETATM   20  N8  UNL     1       2.413   5.057  82.598  1.00  0.00    -0.174 N
HETATM   21  C12 UNL     1       0.339   4.018  82.414  1.00  0.00     0.124 A
HETATM   22  C9  UNL     1       2.944   4.117  81.783  1.00  0.00     0.679 A
ATOM     23  H8  UNL     1       3.017   5.793  82.962  1.00  0.00     0.186 HD
HETATM   24  N10 UNL     1       2.198   3.115  81.270  1.00  0.00    -0.176 N
HETATM   25  C10 UNL     1       0.884   3.065  81.587  1.00  0.00     0.143 A
ATOM     26  H10 UNL     1       2.615   2.414  80.658  1.00  0.00     0.186 HD
HETATM   27  C13 UNL     1      -1.011   3.954  82.731  1.00  0.00     0.286 A
HETATM   28  O4  UNL     1      -1.681   3.035  82.251  1.00  0.00    -0.265 OA
BRANCH  17  29
HETATM   29  C6  UNL     1       1.397   7.050  84.296  1.00  0.00     0.148 C
HETATM   30  C7  UNL     1       0.677   7.839  85.356  1.00  0.00     0.028 C
ENDBRANCH  17  29
BRANCH  22  31
HETATM   31  N9  UNL     1       4.195   4.135  81.460  1.00  0.00    -0.234 N
ATOM     32  H92 UNL     1       4.418   4.409  80.503  1.00  0.00     0.174 HD
ATOM     33  H91 UNL     1       4.921   3.885  82.131  1.00  0.00     0.174 HD
ENDBRANCH  22  31
BRANCH  25  34
HETATM   34  N11 UNL     1       0.103   2.144  81.140  1.00  0.00    -0.307 N
ATOM     35  H11 UNL     1      -0.707   2.377  80.565  1.00  0.00     0.171 HD
BRANCH  34  36
HETATM   36  C11 UNL     1       0.397   0.803  81.469  1.00  0.00     0.216 C
HETATM   37  N12 UNL     1      -0.438   0.089  82.127  1.00  0.00    -0.365 N
ATOM     38 2H12 UNL     1      -1.326   0.500  82.414  1.00  0.00     0.159 HD
ATOM     39 1H12 UNL     1      -0.226  -0.879  82.364  1.00  0.00     0.159 HD
BRANCH  36  40
HETATM   40  O3  UNL     1       1.596   0.248  81.081  1.00  0.00    -0.333 OA
ATOM     41  H3  UNL     1       2.106  -0.260  81.701  1.00  0.00     0.220 HD
ENDBRANCH  36  40
ENDBRANCH  34  36
ENDBRANCH  25  34
ENDBRANCH  14  15
ENDBRANCH  13  14
ENDBRANCH  12  13
ENDBRANCH  11  12
TORSDOF 9
ENDMDL