MODEL 5
REMARK VINA RESULT: -6.633860194      2.255      6.238
REMARK  10 active torsions:
REMARK  status: ('A' for Active; 'I' for Inactive)
REMARK    1  A    between atoms: N1_2  and  C2_4
REMARK    2  A    between atoms: C3_7  and  N3_8
REMARK    3  A    between atoms: C9_18  and  N6_19
REMARK    4  A    between atoms: N6_19  and  C10_20
REMARK    5  A    between atoms: C10_20  and  C11_21
REMARK    6  A    between atoms: C11_21  and  N7_22
REMARK    7  A    between atoms: N7_22  and  C12_24
REMARK    8  A    between atoms: C15_31  and  C16_32
REMARK    9  A    between atoms: C16_32  and  N10_33
REMARK   10  A    between atoms: C16_32  and  N11_37
ROOT
HETATM    1  N6  UNL     1      -0.242   1.385  82.093  1.00  0.00    -0.413 NA
ENDROOT
BRANCH   1   2
HETATM    2  C9  UNL     1       0.242   2.465  81.968  1.00  0.00     0.282 A
HETATM    3  N5  UNL     1      -0.533   3.501  81.504  1.00  0.00    -0.148 N
HETATM    4  C3  UNL     1      -0.102   4.737  81.328  1.00  0.00     0.698 A
ATOM      5  H5  UNL     1      -1.508   3.301  81.280  1.00  0.00     0.188 HD
HETATM    6  N2  UNL     1       1.183   4.990  81.626  1.00  0.00    -0.022 N
HETATM    7  C2  UNL     1       2.023   4.046  82.086  1.00  0.00     0.695 A
ATOM      8  H2  UNL     1       1.536   5.937  81.499  1.00  0.00     0.203 HD
HETATM    9  N12 UNL     1       1.537   2.820  82.244  1.00  0.00    -0.148 N
ATOM     10  H12 UNL     1       2.167   2.097  82.592  1.00  0.00     0.188 HD
BRANCH   4  11
HETATM   11  N3  UNL     1      -0.979   5.746  80.840  1.00  0.00    -0.207 N
HETATM   12  C4  UNL     1      -1.934   6.347  81.781  1.00  0.00     0.161 C
HETATM   13  C5  UNL     1      -2.506   7.617  81.238  1.00  0.00     0.145 C
HETATM   14  N4  UNL     1      -3.209   7.245  80.001  1.00  0.00    -0.354 N
HETATM   15  C6  UNL     1      -4.565   7.595  79.719  1.00  0.00     0.152 C
HETATM   16  C7  UNL     1      -2.425   6.495  79.080  1.00  0.00     0.237 C
HETATM   17  O1  UNL     1      -2.901   6.090  77.990  1.00  0.00    -0.272 OA
HETATM   18  C8  UNL     1      -1.002   6.220  79.494  1.00  0.00     0.244 C
ENDBRANCH   4  11
BRANCH   7  19
HETATM   19  N1  UNL     1       3.238   4.377  82.346  1.00  0.00    -0.230 N
HETATM   20  C1  UNL     1       3.714   5.698  82.004  1.00  0.00     0.165 C
ATOM     21  H1  UNL     1       3.866   3.707  82.793  1.00  0.00     0.177 HD
ENDBRANCH   7  19
ENDBRANCH   1   2
BRANCH   1  22
HETATM   22  C10 UNL     1      -0.784   0.177  82.233  1.00  0.00     0.241 C
BRANCH  22  23
HETATM   23  C11 UNL     1      -0.990  -0.227  83.699  1.00  0.00     0.154 C
BRANCH  23  24
HETATM   24  N7  UNL     1      -0.956   0.974  84.507  1.00  0.00    -0.373 N
ATOM     25  H7  UNL     1      -0.296   1.711  84.256  1.00  0.00     0.161 HD
BRANCH  24  26
HETATM   26  C12 UNL     1      -1.719   1.157  85.528  1.00  0.00     0.113 A
HETATM   27  N8  UNL     1      -1.905   0.209  86.480  1.00  0.00    -0.338 N
HETATM   28  C13 UNL     1      -2.720   0.482  87.515  1.00  0.00     0.181 A
ATOM     29  H8  UNL     1      -1.436  -0.694  86.413  1.00  0.00     0.168 HD
HETATM   30  N9  UNL     1      -3.354   1.665  87.635  1.00  0.00    -0.361 N
HETATM   31  C14 UNL     1      -3.176   2.613  86.698  1.00  0.00     0.103 A
ATOM     32  H9  UNL     1      -3.966   1.841  88.432  1.00  0.00     0.166 HD
HETATM   33  C15 UNL     1      -2.351   2.383  85.617  1.00  0.00     0.058 A
BRANCH  33  34
HETATM   34  C16 UNL     1      -2.155   3.430  84.582  1.00  0.00     0.416 C
BRANCH  34  35
HETATM   35  N10 UNL     1      -1.008   4.220  84.974  1.00  0.00    -0.046 N
ATOM     36 3H10 UNL     1      -1.107   5.208  84.741  1.00  0.00     0.277 HD
ATOM     37 2H10 UNL     1      -0.928   4.329  85.985  1.00  0.00     0.277 HD
ATOM     38 1H10 UNL     1      -0.184   3.794  84.553  1.00  0.00     0.277 HD
ENDBRANCH  34  35
BRANCH  34  39
HETATM   39  N11 UNL     1      -3.367   4.233  84.484  1.00  0.00    -0.046 N
ATOM     40 3H11 UNL     1      -4.001   3.894  83.762  1.00  0.00     0.277 HD
ATOM     41 2H11 UNL     1      -3.983   4.105  85.286  1.00  0.00     0.277 HD
ATOM     42 1H11 UNL     1      -3.107   5.209  84.346  1.00  0.00     0.277 HD
ENDBRANCH  34  39
ENDBRANCH  33  34
ENDBRANCH  24  26
ENDBRANCH  23  24
ENDBRANCH  22  23
ENDBRANCH   1  22
TORSDOF 10
ENDMDL