MODEL 5
REMARK VINA RESULT: -5.226507801      2.435      6.121
REMARK  5 active torsions:
REMARK  status: ('A' for Active; 'I' for Inactive)
REMARK    1  A    between atoms: C5_5  and  O1_6
REMARK    2  A    between atoms: C5_5  and  C6_8
REMARK    3  A    between atoms: C6_8  and  N1_9
REMARK    4  A    between atoms: C12_17  and  C13_18
REMARK    5  A    between atoms: C13_18  and  O2_19
ROOT
HETATM    1  C1  UNL     1     134.473  -7.833 -51.346  1.00  0.00     0.010 C
HETATM    2  C2  UNL     1     134.360  -6.510 -52.079  1.00  0.00    -0.012 C
HETATM    3  C3  UNL     1     135.099  -6.664 -53.364  1.00  0.00     0.008 C
HETATM    4  C4  UNL     1     135.746  -5.445 -53.904  1.00  0.00     0.044 C
HETATM    5  C5  UNL     1     134.953  -4.223 -53.419  1.00  0.00     0.090 C
HETATM    6  C11 UNL     1     135.236  -4.147 -51.957  1.00  0.00     0.050 C
HETATM    7  C12 UNL     1     134.778  -5.397 -51.212  1.00  0.00     0.016 C
ENDROOT
BRANCH   5   8
HETATM    8  O1  UNL     1     133.598  -4.506 -53.731  1.00  0.00    -0.384 OA
ATOM      9  H1  UNL     1     133.318  -3.801 -54.301  1.00  0.00     0.211 HD
ENDBRANCH   5   8
BRANCH   5  10
HETATM   10  C6  UNL     1     135.289  -3.004 -54.182  1.00  0.00     0.100 C
BRANCH  10  11
HETATM   11  N1  UNL     1     136.080  -3.050 -55.317  1.00  0.00    -0.368 N
HETATM   12  C7  UNL     1     137.288  -2.359 -55.451  1.00  0.00     0.082 C
HETATM   13  C8  UNL     1     137.103  -0.867 -55.726  1.00  0.00     0.158 C
HETATM   14  N2  UNL     1     136.134  -0.719 -56.761  1.00  0.00    -0.415 N
HETATM   15  C9  UNL     1     135.792  -1.919 -57.472  1.00  0.00     0.134 C
ATOM     16  H2  UNL     1     135.711   0.182 -56.983  1.00  0.00     0.153 HD
HETATM   17  C10 UNL     1     135.324  -3.028 -56.539  1.00  0.00     0.146 C
ENDBRANCH  10  11
ENDBRANCH   5  10
BRANCH   7  18
HETATM   18  C13 UNL     1     135.807  -5.715 -50.161  1.00  0.00     0.169 C
BRANCH  18  19
HETATM   19  O2  UNL     1     136.995  -5.023 -50.285  1.00  0.00    -0.400 OA
ATOM     20  H2  UNL     1     136.987  -4.330 -50.935  1.00  0.00     0.209 HD
ENDBRANCH  18  19
ENDBRANCH   7  18
TORSDOF 5
ENDMDL