MODEL 3
REMARK VINA RESULT: -5.265470007      3.125      4.949
REMARK  4 active torsions:
REMARK  status: ('A' for Active; 'I' for Inactive)
REMARK    1  A    between atoms: C2_2  and  S1_3
REMARK    2  A    between atoms: S1_3  and  C3_4
REMARK    3  A    between atoms: C3_4  and  C4_5
REMARK    4  A    between atoms: C10_11  and  O1_12
ROOT
HETATM    1  C4  UNL     1     136.710  -0.191 -55.232  1.00  0.00     0.032 C
HETATM    2  C5  UNL     1     136.268  -1.098 -54.081  1.00  0.00     0.195 C
HETATM    3  C6  UNL     1     137.246  -2.230 -53.890  1.00  0.00     0.069 C
HETATM    4  C7  UNL     1     137.302  -3.013 -55.181  1.00  0.00     0.227 C
HETATM    5  C8  UNL     1     137.968  -2.129 -56.200  1.00  0.00     0.043 C
HETATM    6  C9  UNL     1     137.067  -0.948 -56.438  1.00  0.00     0.025 C
HETATM    7  C10 UNL     1     135.803  -1.495 -57.094  1.00  0.00     0.151 C
HETATM    8  C11 UNL     1     135.575  -2.944 -56.854  1.00  0.00     0.307 C
HETATM    9  N1  UNL     1     135.959  -3.381 -55.534  1.00  0.00     0.121 N
HETATM   10  C12 UNL     1     134.980  -3.022 -54.529  1.00  0.00     0.503 C
HETATM   11  N2  UNL     1     134.920  -1.598 -54.285  1.00  0.00    -0.044 N
ATOM     12  H21 UNL     1     134.427  -1.097 -55.023  1.00  0.00     0.279 HD
ATOM     13  H22 UNL     1     134.297  -1.362 -53.512  1.00  0.00     0.279 HD
ENDROOT
BRANCH   1  14
HETATM   14  C3  UNL     1     137.760   0.705 -54.675  1.00  0.00     0.081 C
BRANCH  14  15
HETATM   15  S1  UNL     1     137.348   1.621 -53.250  1.00  0.00    -0.169 SA
BRANCH  15  16
HETATM   16  C2  UNL     1     138.310   1.536 -51.785  1.00  0.00     0.069 C
HETATM   17  C1  UNL     1     139.611   0.758 -52.163  1.00  0.00     0.016 C
ENDBRANCH  15  16
ENDBRANCH  14  15
ENDBRANCH   1  14
BRANCH   7  18
HETATM   18  O1  UNL     1     135.894  -1.283 -58.490  1.00  0.00    -0.393 OA
ATOM     19  H1  UNL     1     135.211  -0.675 -58.747  1.00  0.00     0.210 HD
ENDBRANCH   7  18
TORSDOF 4
ENDMDL