MODEL 1
REMARK VINA RESULT: -5.795016166      0.000      0.000
REMARK  4 active torsions:
REMARK  status: ('A' for Active; 'I' for Inactive)
REMARK    1  A    between atoms: N1_1  and  N2_4
REMARK    2  A    between atoms: C6_14  and  C7_15
REMARK    3  A    between atoms: C7_15  and  N4_16
REMARK    4  A    between atoms: N4_16  and  C8_18
ROOT
HETATM    1  N2  UNL     1     136.113  -3.311 -56.501  1.00  0.00    -0.311 N
ATOM      2  H2  UNL     1     136.534  -4.240 -56.527  1.00  0.00     0.185 HD
HETATM    3  C1  UNL     1     136.174  -2.719 -55.390  1.00  0.00     0.054 C
HETATM    4  C2  UNL     1     135.560  -1.389 -55.388  1.00  0.00     0.171 C
HETATM    5  N3  UNL     1     136.441  -0.377 -55.852  1.00  0.00    -0.416 N
ATOM      6  H3  UNL     1     136.098   0.472 -56.300  1.00  0.00     0.153 HD
HETATM    7  C3  UNL     1     137.833  -0.617 -55.654  1.00  0.00     0.116 C
HETATM    8  C4  UNL     1     138.221  -1.203 -54.346  1.00  0.00     0.045 C
HETATM    9  C5  UNL     1     138.957  -2.514 -54.471  1.00  0.00     0.170 C
HETATM   10  O1  UNL     1     138.197  -3.608 -54.733  1.00  0.00    -0.375 OA
HETATM   11  C6  UNL     1     136.861  -3.532 -54.344  1.00  0.00     0.208 C
ENDROOT
BRANCH  11  12
HETATM   12  C7  UNL     1     136.320  -4.938 -54.369  1.00  0.00     0.093 C
BRANCH  12  13
HETATM   13  N4  UNL     1     135.181  -5.237 -53.629  1.00  0.00    -0.395 N
ATOM     14  H4  UNL     1     134.278  -4.980 -54.027  1.00  0.00     0.159 HD
BRANCH  13  15
HETATM   15  C8  UNL     1     135.185  -5.861 -52.388  1.00  0.00     0.080 C
HETATM   16  C9  UNL     1     135.185  -7.352 -52.429  1.00  0.00     0.025 C
HETATM   17  C10 UNL     1     134.351  -7.946 -51.295  1.00  0.00     0.002 C
HETATM   18  C11 UNL     1     134.618  -7.230 -50.013  1.00  0.00     0.000 C
HETATM   19  C12 UNL     1     134.096  -5.811 -50.141  1.00  0.00     0.002 C
HETATM   20  C13 UNL     1     133.958  -5.411 -51.597  1.00  0.00     0.025 C
ENDBRANCH  13  15
ENDBRANCH  12  13
ENDBRANCH  11  12
BRANCH   1  21
HETATM   21  N1  UNL     1     135.561  -2.882 -57.675  1.00  0.00    -0.345 N
ATOM     22  H12 UNL     1     135.646  -1.879 -57.836  1.00  0.00     0.176 HD
ATOM     23  H11 UNL     1     135.086  -3.424 -58.396  1.00  0.00     0.176 HD
ENDBRANCH   1  21
TORSDOF 4
ENDMDL