MODEL 2
REMARK VINA RESULT: -5.673637845      2.701      4.241
REMARK  3 active torsions:
REMARK  status: ('A' for Active; 'I' for Inactive)
REMARK    1  A    between atoms: C2_2  and  C3_3
REMARK    2  A    between atoms: C3_3  and  C4_4
REMARK    3  A    between atoms: N1_9  and  C8_10
ROOT
HETATM    1  C8  UNL     1     137.276  -2.512 -56.563  1.00  0.00     0.249 C
HETATM    2  C9  UNL     1     135.935  -3.023 -56.713  1.00  0.00     0.079 C
HETATM    3  N2  UNL     1     134.858  -3.417 -56.830  1.00  0.00    -0.196 NA
ENDROOT
BRANCH   1   4
HETATM    4  N1  UNL     1     137.556  -2.073 -55.192  1.00  0.00    -0.338 N
HETATM    5  C7  UNL     1     137.473  -0.712 -54.930  1.00  0.00     0.220 C
HETATM    6  C6  UNL     1     137.210  -0.014 -53.637  1.00  0.00     0.105 C
HETATM    7  O1  UNL     1     137.644   0.087 -55.918  1.00  0.00    -0.273 OA
HETATM    8  C5  UNL     1     138.411   0.803 -53.180  1.00  0.00     0.042 C
HETATM    9  C4  UNL     1     138.854   0.618 -51.787  1.00  0.00     0.186 C
HETATM   10  N4  UNL     1     140.096  -0.175 -51.618  1.00  0.00    -0.069 N
HETATM   11  C13 UNL     1     139.916  -1.314 -52.453  1.00  0.00     0.251 C
ATOM     12  H42 UNL     1     140.952   0.348 -51.807  1.00  0.00     0.277 HD
ATOM     13  H41 UNL     1     140.314  -0.402 -50.647  1.00  0.00     0.277 HD
HETATM   14  C12 UNL     1     140.660  -2.577 -52.184  1.00  0.00     0.141 C
HETATM   15  N3  UNL     1     139.868  -3.658 -52.803  1.00  0.00    -0.418 N
HETATM   16  C11 UNL     1     139.354  -3.389 -54.095  1.00  0.00     0.133 C
ATOM     17  H3  UNL     1     139.701  -4.546 -52.329  1.00  0.00     0.153 HD
HETATM   18  C10 UNL     1     137.895  -3.145 -54.243  1.00  0.00     0.146 C
BRANCH   9  19
HETATM   19  C3  UNL     1     138.936   1.858 -50.938  1.00  0.00     0.032 C
BRANCH  19  20
HETATM   20  C2  UNL     1     140.014   1.670 -49.892  1.00  0.00    -0.002 C
HETATM   21  C1  UNL     1     140.876   2.901 -49.782  1.00  0.00     0.005 C
ENDBRANCH  19  20
ENDBRANCH   9  19
ENDBRANCH   1   4
TORSDOF 3
ENDMDL