MODEL 5
REMARK VINA RESULT: -5.235903169      5.116      6.537
REMARK  5 active torsions:
REMARK  status: ('A' for Active; 'I' for Inactive)
REMARK    1  A    between atoms: C2_2  and  C3_3
REMARK    2  A    between atoms: N1_4  and  N2_6
REMARK    3  A    between atoms: N2_6  and  C4_8
REMARK    4  A    between atoms: C4_8  and  N3_10
REMARK    5  A    between atoms: N3_10  and  C5_12
ROOT
HETATM    1  N3  UNL     1     136.283  -0.057 -55.104  1.00  0.00    -0.361 N
ATOM      2  H3  UNL     1     136.133   0.392 -56.008  1.00  0.00     0.162 HD
ENDROOT
BRANCH   1   3
HETATM    3  C4  UNL     1     137.149   0.576 -54.176  1.00  0.00     0.186 C
HETATM    4  S1  UNL     1     136.615   1.791 -53.200  1.00  0.00    -0.040 SA
BRANCH   3   5
HETATM    5  N2  UNL     1     138.488   0.150 -54.098  1.00  0.00    -0.277 N
ATOM      6  H2  UNL     1     139.173   0.491 -54.773  1.00  0.00     0.189 HD
BRANCH   5   7
HETATM    7  N1  UNL     1     138.874  -0.734 -53.102  1.00  0.00    -0.314 N
HETATM    8  C3  UNL     1     139.298  -1.901 -53.462  1.00  0.00     0.080 C
ATOM      9  H1  UNL     1     138.824  -0.472 -52.117  1.00  0.00     0.185 HD
BRANCH   8  10
HETATM   10  C2  UNL     1     139.724  -2.887 -52.435  1.00  0.00     0.041 C
HETATM   11  C1  UNL     1     141.100  -2.535 -51.966  1.00  0.00     0.010 C
ENDBRANCH   8  10
ENDBRANCH   5   7
ENDBRANCH   3   5
ENDBRANCH   1   3
BRANCH   1  12
HETATM   12  C5  UNL     1     135.606  -1.297 -54.841  1.00  0.00     0.091 C
HETATM   13  C6  UNL     1     135.523  -1.706 -53.418  1.00  0.00     0.028 C
HETATM   14  C7  UNL     1     135.297  -3.215 -53.520  1.00  0.00     0.036 C
HETATM   15  C8  UNL     1     135.519  -3.609 -54.939  1.00  0.00     0.154 C
HETATM   16  O1  UNL     1     134.382  -3.509 -55.737  1.00  0.00    -0.281 OA
HETATM   17  C10 UNL     1     136.322  -2.443 -55.476  1.00  0.00     0.056 C
HETATM   18  N4  UNL     1     134.802  -3.272 -56.997  1.00  0.00    -0.100 NA
HETATM   19  C9  UNL     1     135.984  -2.474 -56.936  1.00  0.00     0.152 C
ENDBRANCH   1  12
TORSDOF 5
ENDMDL