MODEL 4
REMARK VINA RESULT: -5.529525674      0.723      1.113
REMARK  5 active torsions:
REMARK  status: ('A' for Active; 'I' for Inactive)
REMARK    1  A    between atoms: O1_1  and  C1_3
REMARK    2  A    between atoms: C1_3  and  C2_4
REMARK    3  A    between atoms: C3_5  and  N1_6
REMARK    4  A    between atoms: C12_15  and  C13_16
REMARK    5  A    between atoms: C13_16  and  O2_17
ROOT
HETATM    1  C2  UNL     1     135.214  -2.376 -54.564  1.00  0.00     0.083 C
HETATM    2  C3  UNL     1     136.274  -2.221 -53.523  1.00  0.00     0.262 C
HETATM    3  C8  UNL     1     137.543  -2.504 -54.236  1.00  0.00     0.220 C
HETATM    4  C9  UNL     1     138.321  -1.379 -54.799  1.00  0.00     0.035 C
HETATM    5  C10 UNL     1     137.771  -0.806 -56.065  1.00  0.00     0.005 C
HETATM    6  C11 UNL     1     136.426  -1.286 -56.463  1.00  0.00     0.042 C
HETATM    7  C12 UNL     1     135.982  -2.592 -55.846  1.00  0.00     0.154 C
HETATM    8  N2  UNL     1     137.146  -3.341 -55.390  1.00  0.00    -0.057 N
ATOM      9  H21 UNL     1     136.993  -4.331 -55.192  1.00  0.00     0.278 HD
ATOM     10  H22 UNL     1     137.870  -3.512 -56.088  1.00  0.00     0.278 HD
ENDROOT
BRANCH   2  11
HETATM   11  N1  UNL     1     136.206  -1.202 -52.580  1.00  0.00     0.095 N
HETATM   12  C4  UNL     1     135.550   0.004 -53.120  1.00  0.00     0.273 C
HETATM   13  C5  UNL     1     135.684   0.969 -51.938  1.00  0.00     0.032 C
HETATM   14  C6  UNL     1     137.172   0.755 -51.680  1.00  0.00     0.032 C
HETATM   15  C7  UNL     1     137.311  -0.774 -51.840  1.00  0.00     0.273 C
ENDBRANCH   2  11
BRANCH   1  16
HETATM   16  C1  UNL     1     134.327  -3.565 -54.296  1.00  0.00     0.173 C
BRANCH  16  17
HETATM   17  O1  UNL     1     132.967  -3.264 -54.324  1.00  0.00    -0.400 OA
ATOM     18  H1  UNL     1     132.424  -3.917 -53.897  1.00  0.00     0.209 HD
ENDBRANCH  16  17
ENDBRANCH   1  16
BRANCH   7  19
HETATM   19  C13 UNL     1     135.263  -3.363 -56.906  1.00  0.00     0.203 C
BRANCH  19  20
HETATM   20  O2  UNL     1     135.493  -2.651 -58.117  1.00  0.00    -0.398 OA
ATOM     21  H2  UNL     1     135.775  -3.304 -58.747  1.00  0.00     0.209 HD
ENDBRANCH  19  20
ENDBRANCH   7  19
TORSDOF 5
ENDMDL