MODEL 1
REMARK VINA RESULT: -5.836922282      0.000      0.000
REMARK  3 active torsions:
REMARK  status: ('A' for Active; 'I' for Inactive)
REMARK    1  A    between atoms: C3_6  and  C4_7
REMARK    2  A    between atoms: C4_7  and  N2_8
REMARK    3  A    between atoms: N2_8  and  C6_10
ROOT
HETATM    1  C1  UNL     1     137.040  -4.302 -54.695  1.00  0.00     0.050 C
HETATM    2  C2  UNL     1     136.048  -3.189 -54.931  1.00  0.00     0.273 C
HETATM    3  N1  UNL     1     136.522  -1.932 -54.344  1.00  0.00    -0.055 N
ATOM      4  H11 UNL     1     137.378  -2.069 -53.808  1.00  0.00     0.278 HD
ATOM      5  H12 UNL     1     135.913  -1.617 -53.589  1.00  0.00     0.278 HD
HETATM    6  C3  UNL     1     136.682  -0.927 -55.337  1.00  0.00     0.232 C
HETATM    7  C11 UNL     1     137.617  -1.500 -56.430  1.00  0.00     0.157 C
HETATM    8  N4  UNL     1     136.753  -2.414 -57.167  1.00  0.00    -0.357 N
ATOM      9  H4  UNL     1     136.846  -2.567 -58.171  1.00  0.00     0.162 HD
HETATM   10  C12 UNL     1     135.776  -3.073 -56.385  1.00  0.00     0.248 C
HETATM   11  O1  UNL     1     134.733  -3.542 -56.864  1.00  0.00    -0.271 OA
ENDROOT
BRANCH   6  12
HETATM   12  C4  UNL     1     137.284   0.341 -54.896  1.00  0.00     0.309 C
BRANCH  12  13
HETATM   13  N2  UNL     1     137.358   0.675 -53.519  1.00  0.00     0.108 N
HETATM   14  C5  UNL     1     136.544   1.906 -53.290  1.00  0.00     0.312 C
BRANCH  13  15
HETATM   15  C6  UNL     1     138.705   0.972 -53.008  1.00  0.00     0.317 C
HETATM   16  C7  UNL     1     139.370  -0.323 -52.577  1.00  0.00     0.057 C
HETATM   17  C8  UNL     1     140.415  -0.046 -51.533  1.00  0.00     0.006 C
HETATM   18  C9  UNL     1     139.705   0.479 -50.320  1.00  0.00     0.019 C
HETATM   19  C10 UNL     1     138.797   1.634 -50.655  1.00  0.00     0.116 C
HETATM   20  N3  UNL     1     138.709   1.986 -52.020  1.00  0.00    -0.393 N
ATOM     21  H3  UNL     1     138.649   2.967 -52.293  1.00  0.00     0.155 HD
ENDBRANCH  13  15
ENDBRANCH  12  13
ENDBRANCH   6  12
TORSDOF 3
ENDMDL