MODEL 5
REMARK VINA RESULT: -5.266486168      3.148      3.992
REMARK  4 active torsions:
REMARK  status: ('A' for Active; 'I' for Inactive)
REMARK    1  A    between atoms: N1_2  and  C2_5
REMARK    2  A    between atoms: C2_5  and  C3_6
REMARK    3  A    between atoms: C3_6  and  N2_7
REMARK    4  A    between atoms: C11_18  and  O1_19
ROOT
HETATM    1  N2  UNL     1     135.479  -2.228 -55.415  1.00  0.00     0.097 N
HETATM    2  C4  UNL     1     135.812  -3.586 -55.698  1.00  0.00     0.274 C
HETATM    3  C5  UNL     1     136.440  -4.287 -54.487  1.00  0.00     0.042 C
HETATM    4  C6  UNL     1     135.363  -4.539 -53.479  1.00  0.00    -0.008 C
HETATM    5  C7  UNL     1     134.604  -5.804 -53.766  1.00  0.00     0.039 C
HETATM    6  C8  UNL     1     135.511  -6.962 -53.369  1.00  0.00     0.233 C
HETATM    7  N3  UNL     1     135.387  -7.096 -51.924  1.00  0.00    -0.075 N
ATOM      8  H31 UNL     1     136.144  -7.651 -51.525  1.00  0.00     0.277 HD
ATOM      9  H32 UNL     1     134.607  -7.697 -51.661  1.00  0.00     0.277 HD
HETATM   10  C9  UNL     1     135.294  -5.800 -51.318  1.00  0.00     0.233 C
HETATM   11  C10 UNL     1     136.035  -4.723 -52.110  1.00  0.00     0.039 C
HETATM   12  C11 UNL     1     134.472  -3.324 -53.458  1.00  0.00     0.159 C
HETATM   13  C12 UNL     1     135.151  -2.087 -54.004  1.00  0.00     0.248 C
HETATM   14  C13 UNL     1     134.141  -0.951 -53.866  1.00  0.00     0.045 C
ENDROOT
BRANCH  12  15
HETATM   15  O1  UNL     1     133.294  -3.511 -54.150  1.00  0.00    -0.393 OA
ATOM     16  H1  UNL     1     132.970  -2.713 -54.550  1.00  0.00     0.210 HD
ENDBRANCH  12  15
BRANCH   1  17
HETATM   17  C3  UNL     1     136.523  -1.319 -55.782  1.00  0.00     0.300 C
BRANCH  17  18
HETATM   18  C2  UNL     1     136.661  -1.196 -57.280  1.00  0.00     0.262 C
BRANCH  18  19
HETATM   19  N1  UNL     1     135.434  -0.726 -57.867  1.00  0.00    -0.077 N
HETATM   20  C1  UNL     1     135.601   0.080 -59.035  1.00  0.00     0.267 C
ATOM     21  H12 UNL     1     134.876  -0.231 -57.171  1.00  0.00     0.276 HD
ATOM     22  H11 UNL     1     134.813  -1.511 -58.065  1.00  0.00     0.276 HD
ENDBRANCH  18  19
ENDBRANCH  17  18
ENDBRANCH   1  17
TORSDOF 4
ENDMDL