MODEL 5
REMARK VINA RESULT: -5.613801731      1.031      1.201
REMARK  5 active torsions:
REMARK  status: ('A' for Active; 'I' for Inactive)
REMARK    1  A    between atoms: C2_2  and  C3_3
REMARK    2  A    between atoms: C5_8  and  C6_9
REMARK    3  A    between atoms: C6_9  and  C7_10
REMARK    4  A    between atoms: C7_10  and  O1_11
REMARK    5  A    between atoms: C11_16  and  N2_17
ROOT
HETATM    1  N2  UNL     1     136.868  -0.948 -56.467  1.00  0.00    -0.363 N
ATOM      2  H2  UNL     1     137.354  -0.066 -56.623  1.00  0.00     0.161 HD
HETATM    3  C12 UNL     1     136.039  -1.383 -57.356  1.00  0.00     0.179 C
HETATM    4  C13 UNL     1     135.361  -2.614 -57.135  1.00  0.00     0.104 C
HETATM    5  N3  UNL     1     134.800  -3.603 -56.943  1.00  0.00    -0.191 NA
ENDROOT
BRANCH   1   6
HETATM    6  C11 UNL     1     137.116  -1.693 -55.252  1.00  0.00     0.285 C
HETATM    7  C10 UNL     1     138.546  -1.458 -54.754  1.00  0.00     0.061 C
HETATM    8  C9  UNL     1     138.628  -1.849 -53.279  1.00  0.00     0.022 C
HETATM    9  C3  UNL     1     138.405  -0.672 -52.373  1.00  0.00     0.190 C
HETATM   10  C8  UNL     1     137.541  -2.883 -53.065  1.00  0.00     0.047 C
HETATM   11  N1  UNL     1     137.450  -0.920 -51.330  1.00  0.00    -0.068 N
HETATM   12  C4  UNL     1     136.154  -1.340 -51.800  1.00  0.00     0.271 C
ATOM     13  H12 UNL     1     137.821  -1.594 -50.660  1.00  0.00     0.277 HD
ATOM     14  H11 UNL     1     137.363  -0.104 -50.725  1.00  0.00     0.277 HD
HETATM   15  C5  UNL     1     136.222  -2.146 -53.078  1.00  0.00     0.154 C
HETATM   16  N4  UNL     1     136.237  -1.220 -54.222  1.00  0.00    -0.044 N
ATOM     17  H42 UNL     1     135.297  -1.047 -54.578  1.00  0.00     0.280 HD
ATOM     18  H41 UNL     1     136.471  -0.270 -53.934  1.00  0.00     0.280 HD
BRANCH   9  19
HETATM   19  C2  UNL     1     139.675  -0.175 -51.729  1.00  0.00     0.029 C
HETATM   20  C1  UNL     1     140.061   1.203 -52.136  1.00  0.00     0.007 C
ENDBRANCH   9  19
BRANCH  15  21
HETATM   21  C6  UNL     1     135.055  -3.054 -53.279  1.00  0.00     0.067 C
BRANCH  21  22
HETATM   22  C7  UNL     1     133.771  -2.374 -53.604  1.00  0.00     0.166 C
BRANCH  22  23
HETATM   23  O1  UNL     1     133.013  -3.284 -54.378  1.00  0.00    -0.401 OA
ATOM     24  H1  UNL     1     132.142  -3.306 -53.999  1.00  0.00     0.209 HD
ENDBRANCH  22  23
ENDBRANCH  21  22
ENDBRANCH  15  21
ENDBRANCH   1   6
TORSDOF 5
ENDMDL