MODEL 5
REMARK VINA RESULT: -8.884671408      1.564      4.253
REMARK  5 active torsions:
REMARK  status: ('A' for Active; 'I' for Inactive)
REMARK    1  A    between atoms: C2_2  and  C3_3
REMARK    2  A    between atoms: C3_3  and  C4_4
REMARK    3  A    between atoms: C6_8  and  N2_9
REMARK    4  A    between atoms: C7_14  and  N4_15
REMARK    5  A    between atoms: C13_24  and  C14_25
ROOT
HETATM    1  C4  UNL     1      12.801  10.630  14.608  1.00  0.00     0.041 A
HETATM    2  N1  UNL     1      13.505   9.522  15.034  1.00  0.00    -0.339 N
ATOM      3  H1  UNL     1      13.520   9.147  15.983  1.00  0.00     0.167 HD
HETATM    4  C5  UNL     1      14.156   9.034  13.996  1.00  0.00     0.173 A
HETATM    5  C6  UNL     1      15.001   7.927  13.896  1.00  0.00     0.161 A
HETATM    6  N3  UNL     1      15.518   7.669  12.707  1.00  0.00    -0.172 N
ATOM      7  H3  UNL     1      16.138   6.863  12.620  1.00  0.00     0.186 HD
HETATM    8  C7  UNL     1      15.282   8.395  11.616  1.00  0.00     0.697 A
HETATM    9  N5  UNL     1      14.446   9.476  11.750  1.00  0.00    -0.123 N
ATOM     10  H5  UNL     1      14.248  10.049  10.930  1.00  0.00     0.206 HD
HETATM   11  N6  UNL     1      13.889   9.801  12.904  1.00  0.00    -0.219 N
HETATM   12  C13 UNL     1      13.034  10.813  13.274  1.00  0.00     0.094 A
ENDROOT
BRANCH  12  13
HETATM   13  C14 UNL     1      12.456  11.835  12.370  1.00  0.00     0.028 A
HETATM   14  C15 UNL     1      13.056  12.561  11.377  1.00  0.00     0.122 A
HETATM   15  N7  UNL     1      12.106  13.357  10.775  1.00  0.00    -0.311 N
HETATM   16  N8  UNL     1      10.955  13.177  11.325  1.00  0.00    -0.311 N
ATOM     17  H7  UNL     1      12.289  13.997  10.003  1.00  0.00     0.186 HD
HETATM   18  C16 UNL     1      11.132  12.248  12.311  1.00  0.00     0.122 A
ATOM     19  H8  UNL     1      10.081  13.639  11.072  1.00  0.00     0.186 HD
ENDBRANCH  12  13
BRANCH   1  20
HETATM   20  C3  UNL     1      11.995  11.439  15.552  1.00  0.00     0.059 C
BRANCH  20  21
HETATM   21  C2  UNL     1      12.455  11.324  16.990  1.00  0.00     0.002 C
HETATM   22  C1  UNL     1      11.273  11.199  17.934  1.00  0.00     0.005 C
ENDBRANCH  20  21
ENDBRANCH   1  20
BRANCH   5  23
HETATM   23  N2  UNL     1      15.238   7.216  14.948  1.00  0.00    -0.382 N
ATOM     24  H22 UNL     1      14.862   7.432  15.872  1.00  0.00     0.157 HD
ATOM     25  H21 UNL     1      15.831   6.390  14.869  1.00  0.00     0.157 HD
ENDBRANCH   5  23
BRANCH   8  26
HETATM   26  N4  UNL     1      15.841   8.095  10.348  1.00  0.00    -0.216 N
HETATM   27  C8  UNL     1      15.807   8.976   9.201  1.00  0.00     0.141 C
HETATM   28  C9  UNL     1      16.137   8.207   7.931  1.00  0.00     0.020 C
HETATM   29  C10 UNL     1      15.466   6.874   7.885  1.00  0.00     0.003 C
HETATM   30  C11 UNL     1      15.624   6.073   9.133  1.00  0.00     0.020 C
HETATM   31  C12 UNL     1      16.486   6.815  10.156  1.00  0.00     0.141 C
ENDBRANCH   8  26
TORSDOF 5
ENDMDL