MODEL 1
REMARK VINA RESULT: -8.654761705      0.000      0.000
REMARK  8 active torsions:
REMARK  status: ('A' for Active; 'I' for Inactive)
REMARK    1  A    between atoms: N1_1  and  C1_4
REMARK    2  A    between atoms: C1_4  and  C2_5
REMARK    3  A    between atoms: C2_5  and  C3_6
REMARK    4  A    between atoms: N2_9  and  C6_10
REMARK    5  A    between atoms: C6_10  and  C7_11
REMARK    6  A    between atoms: C7_11  and  N3_12
REMARK    7  A    between atoms: C8_13  and  O1_14
REMARK    8  A    between atoms: C11_18  and  O2_19
ROOT
HETATM    1  N3  UNL     1      13.608  10.545  13.469  1.00  0.00    -0.306 N
HETATM    2  C8  UNL     1      13.185  11.790  13.806  1.00  0.00     0.152 A
HETATM    3  C9  UNL     1      12.764  11.764  15.104  1.00  0.00     0.012 A
HETATM    4  C10 UNL     1      12.936  10.469  15.573  1.00  0.00     0.012 A
HETATM    5  C11 UNL     1      13.462   9.744  14.527  1.00  0.00     0.152 A
HETATM    6  C12 UNL     1      12.467  10.481  16.991  1.00  0.00     0.047 C
HETATM    7  C13 UNL     1      13.406  11.336  17.743  1.00  0.00    -0.021 C
HETATM    8  C14 UNL     1      13.245  12.586  17.287  1.00  0.00    -0.021 C
HETATM    9  C15 UNL     1      12.198  12.546  16.234  1.00  0.00     0.047 C
HETATM   10  C16 UNL     1      11.286  11.463  16.848  1.00  0.00     0.026 C
ENDROOT
BRANCH   1  11
HETATM   11  C7  UNL     1      14.123  10.198  12.168  1.00  0.00     0.163 C
BRANCH  11  12
HETATM   12  C6  UNL     1      15.538  10.634  11.989  1.00  0.00     0.292 C
BRANCH  12  13
HETATM   13  N2  UNL     1      16.339   9.733  11.193  1.00  0.00     0.092 N
HETATM   14  C5  UNL     1      15.546   9.178  10.159  1.00  0.00     0.275 C
HETATM   15  C4  UNL     1      16.201   8.917   8.860  1.00  0.00     0.063 C
HETATM   16  C3  UNL     1      17.611   8.520   8.842  1.00  0.00     0.135 C
HETATM   17  O3  UNL     1      18.242   8.407  10.061  1.00  0.00    -0.383 OA
HETATM   18  C18 UNL     1      17.557   7.706  11.022  1.00  0.00     0.198 C
HETATM   19  C17 UNL     1      17.058   8.778  12.008  1.00  0.00     0.298 C
BRANCH  16  20
HETATM   20  C2  UNL     1      17.809   7.240   8.118  1.00  0.00     0.136 C
BRANCH  20  21
HETATM   21  C1  UNL     1      16.827   6.550   7.593  1.00  0.00    -0.075 C
BRANCH  21  22
HETATM   22  N1  UNL     1      16.037   5.876   6.831  1.00  0.00    -0.370 N
ATOM     23  H12 UNL     1      15.579   6.725   6.497  1.00  0.00     0.165 HD
ATOM     24  H11 UNL     1      15.530   5.156   6.316  1.00  0.00     0.165 HD
ENDBRANCH  21  22
ENDBRANCH  20  21
ENDBRANCH  16  20
ENDBRANCH  12  13
ENDBRANCH  11  12
ENDBRANCH   1  11
BRANCH   2  25
HETATM   25  O1  UNL     1      13.166  12.934  12.991  1.00  0.00    -0.345 OA
ATOM     26  H1  UNL     1      12.699  13.746  13.148  1.00  0.00     0.219 HD
ENDBRANCH   2  25
BRANCH   5  27
HETATM   27  O2  UNL     1      13.786   8.389  14.576  1.00  0.00    -0.345 OA
ATOM     28  H2  UNL     1      14.583   8.020  14.939  1.00  0.00     0.219 HD
ENDBRANCH   5  27
TORSDOF 8
ENDMDL