MODEL 3
REMARK VINA RESULT: -8.550852891      1.720      6.696
REMARK  7 active torsions:
REMARK  status: ('A' for Active; 'I' for Inactive)
REMARK    1  A    between atoms: C3_3  and  C4_4
REMARK    2  A    between atoms: C7_8  and  C8_9
REMARK    3  A    between atoms: C8_9  and  O2_10
REMARK    4  A    between atoms: C9_12  and  C10_13
REMARK    5  A    between atoms: C10_13  and  C11_14
REMARK    6  A    between atoms: C12_15  and  O3_16
REMARK    7  A    between atoms: C14_19  and  O4_20
ROOT
HETATM    1  C4  UNL     1      15.694   8.498  10.568  1.00  0.00     0.090 A
HETATM    2  O1  UNL     1      15.416   7.211  10.783  1.00  0.00    -0.292 OA
HETATM    3  C5  UNL     1      15.089   7.016  12.048  1.00  0.00     0.159 A
HETATM    4  C6  UNL     1      15.134   8.204  12.710  1.00  0.00     0.033 A
HETATM    5  C7  UNL     1      15.536   9.166  11.763  1.00  0.00     0.034 A
HETATM    6  C9  UNL     1      14.587   8.278  14.065  1.00  0.00    -0.059 C
HETATM    7  C17 UNL     1      14.605   7.027  14.825  1.00  0.00     0.079 C
HETATM    8  C18 UNL     1      14.542   5.829  13.976  1.00  0.00     0.067 C
HETATM    9  N1  UNL     1      14.763   5.791  12.723  1.00  0.00    -0.349 N
ATOM     10  H1  UNL     1      14.710   4.911  12.211  1.00  0.00     0.167 HD
ENDROOT
BRANCH   6  11
HETATM   11  C10 UNL     1      13.355   9.107  14.217  1.00  0.00     0.045 C
BRANCH  11  12
HETATM   12  C11 UNL     1      13.369  10.299  15.091  1.00  0.00     0.050 C
HETATM   13  C12 UNL     1      12.456  10.060  16.326  1.00  0.00     0.127 C
HETATM   14  C13 UNL     1      12.173  11.347  17.048  1.00  0.00     0.066 C
HETATM   15  C14 UNL     1      11.380  12.329  16.171  1.00  0.00     0.152 C
HETATM   16  C15 UNL     1      11.442  11.687  14.825  1.00  0.00     0.180 A
HETATM   17  O5  UNL     1      12.063  12.072  13.734  1.00  0.00    -0.372 OA
HETATM   18  C16 UNL     1      12.969  11.604  14.590  1.00  0.00     0.160 A
BRANCH  13  19
HETATM   19  O3  UNL     1      13.126   9.254  17.250  1.00  0.00    -0.395 OA
ATOM     20  H3  UNL     1      12.766   9.401  18.117  1.00  0.00     0.210 HD
ENDBRANCH  13  19
BRANCH  15  21
HETATM   21  O4  UNL     1      12.071  13.538  16.200  1.00  0.00    -0.393 OA
ATOM     22  H4  UNL     1      12.298  13.743  15.301  1.00  0.00     0.210 HD
ENDBRANCH  15  21
ENDBRANCH  11  12
ENDBRANCH   6  11
BRANCH   5  23
HETATM   23  C8  UNL     1      15.809  10.576  11.960  1.00  0.00     0.146 C
BRANCH  23  24
HETATM   24  O2  UNL     1      15.020  11.497  11.339  1.00  0.00    -0.372 OA
ATOM     25  H2  UNL     1      15.408  12.084  10.700  1.00  0.00     0.216 HD
ENDBRANCH  23  24
ENDBRANCH   5  23
BRANCH   1  26
HETATM   26  C3  UNL     1      16.079   8.933   9.242  1.00  0.00     0.034 C
HETATM   27  C2  UNL     1      17.097   8.615   8.522  1.00  0.00    -0.028 C
HETATM   28  C1  UNL     1      17.302   9.200   7.144  1.00  0.00     0.036 C
ENDBRANCH   1  26
TORSDOF 7
ENDMDL