MODEL 3
REMARK VINA RESULT: -8.375165294      2.010      2.875
REMARK  6 active torsions:
REMARK  status: ('A' for Active; 'I' for Inactive)
REMARK    1  A    between atoms: C3_4  and  N1_5
REMARK    2  A    between atoms: C4_6  and  N2_7
REMARK    3  A    between atoms: C6_13  and  S1_14
REMARK    4  A    between atoms: S1_14  and  C7_15
REMARK    5  A    between atoms: C7_15  and  C8_16
REMARK    6  A    between atoms: C16_25  and  O3_26
ROOT
HETATM    1  N1  UNL     1      15.936   7.655   9.402  1.00  0.00    -0.119 N
HETATM    2  C4  UNL     1      16.206   8.631   8.516  1.00  0.00     0.683 A
HETATM    3  N3  UNL     1      16.053   9.937   8.830  1.00  0.00    -0.200 N
ATOM      4  H3  UNL     1      16.269  10.645   8.129  1.00  0.00     0.183 HD
HETATM    5  C5  UNL     1      15.625  10.325  10.035  1.00  0.00     0.130 A
HETATM    6  C6  UNL     1      15.333   9.378  10.985  1.00  0.00     0.085 A
HETATM    7  C14 UNL     1      15.510   8.036  10.607  1.00  0.00     0.282 A
HETATM    8  O2  UNL     1      15.247   7.129  11.461  1.00  0.00    -0.266 OA
ENDROOT
BRANCH   1   9
HETATM    9  C3  UNL     1      16.119   6.280   9.014  1.00  0.00     0.252 C
HETATM   10  O1  UNL     1      17.431   6.074   8.642  1.00  0.00    -0.358 OA
HETATM   11  C2  UNL     1      17.375   4.785   8.111  1.00  0.00     0.148 C
HETATM   12  C1  UNL     1      17.293   3.801   9.266  1.00  0.00     0.042 C
HETATM   13  C16 UNL     1      16.153   4.748   7.238  1.00  0.00     0.150 C
HETATM   14  C15 UNL     1      15.297   5.866   7.826  1.00  0.00     0.089 C
BRANCH  13  15
HETATM   15  O3  UNL     1      16.541   5.087   5.941  1.00  0.00    -0.393 OA
ATOM     16  H3  UNL     1      15.866   4.783   5.345  1.00  0.00     0.210 HD
ENDBRANCH  13  15
ENDBRANCH   1   9
BRANCH   2  17
HETATM   17  N2  UNL     1      16.622   8.289   7.340  1.00  0.00    -0.234 N
ATOM     18  H22 UNL     1      17.579   7.962   7.210  1.00  0.00     0.174 HD
ATOM     19  H21 UNL     1      15.969   8.358   6.560  1.00  0.00     0.174 HD
ENDBRANCH   2  17
BRANCH   6  20
HETATM   20  S1  UNL     1      14.793   9.730  12.610  1.00  0.00    -0.123 SA
BRANCH  20  21
HETATM   21  C7  UNL     1      13.611  11.000  12.864  1.00  0.00     0.084 C
BRANCH  21  22
HETATM   22  C8  UNL     1      12.807  11.006  14.120  1.00  0.00    -0.005 C
HETATM   23  C9  UNL     1      12.554  12.349  14.652  1.00  0.00     0.005 C
HETATM   24  C10 UNL     1      11.672  12.327  15.904  1.00  0.00     0.000 C
HETATM   25  C11 UNL     1      12.557  11.615  16.940  1.00  0.00     0.000 C
HETATM   26  C12 UNL     1      12.650  10.195  16.490  1.00  0.00     0.000 C
HETATM   27  C13 UNL     1      13.292  10.004  15.138  1.00  0.00     0.005 C
ENDBRANCH  21  22
ENDBRANCH  20  21
ENDBRANCH   6  20
TORSDOF 6
ENDMDL