MODEL 1
REMARK VINA RESULT: -8.905169626      0.000      0.000
REMARK  6 active torsions:
REMARK  status: ('A' for Active; 'I' for Inactive)
REMARK    1  A    between atoms: N1_1  and  C1_4
REMARK    2  A    between atoms: N4_11  and  C4_12
REMARK    3  A    between atoms: C4_12  and  C5_13
REMARK    4  A    between atoms: C5_13  and  C6_14
REMARK    5  A    between atoms: C13_21  and  N5_22
REMARK    6  A    between atoms: C16_25  and  O1_26
ROOT
HETATM    1  C1  UNL     1      13.078  12.632  11.564  1.00  0.00     0.678 A
HETATM    2  N2  UNL     1      12.629  12.328  12.784  1.00  0.00    -0.188 N
ATOM      3  H2  UNL     1      11.950  12.951  13.221  1.00  0.00     0.184 HD
HETATM    4  C2  UNL     1      13.035  11.229  13.467  1.00  0.00     0.098 A
HETATM    5  C3  UNL     1      12.735  10.703  14.684  1.00  0.00     0.140 A
HETATM    6  N3  UNL     1      13.443   9.595  14.821  1.00  0.00    -0.307 N
ATOM      7  H3  UNL     1      13.418   8.990  15.642  1.00  0.00     0.186 HD
HETATM    8  N4  UNL     1      14.208   9.367  13.724  1.00  0.00    -0.287 N
HETATM    9  C12 UNL     1      13.959  10.370  12.885  1.00  0.00     0.124 A
HETATM   10  C13 UNL     1      14.411  10.677  11.650  1.00  0.00     0.150 A
HETATM   11  N6  UNL     1      13.957  11.812  11.010  1.00  0.00    -0.175 N
ATOM     12  H6  UNL     1      14.311  12.026  10.078  1.00  0.00     0.186 HD
ENDROOT
BRANCH   8  13
HETATM   13  C4  UNL     1      15.098   8.262  13.714  1.00  0.00     0.150 C
BRANCH  13  14
HETATM   14  C5  UNL     1      14.419   6.952  14.068  1.00  0.00     0.026 C
BRANCH  14  15
HETATM   15  C6  UNL     1      14.320   5.974  12.965  1.00  0.00    -0.013 C
HETATM   16  C7  UNL     1      14.312   4.583  13.622  1.00  0.00     0.005 C
HETATM   17  C8  UNL     1      14.477   3.524  12.557  1.00  0.00     0.000 C
HETATM   18  C9  UNL     1      15.937   3.528  12.123  1.00  0.00     0.000 C
HETATM   19  C10 UNL     1      16.487   4.916  12.287  1.00  0.00     0.000 C
HETATM   20  C11 UNL     1      15.425   5.969  11.980  1.00  0.00     0.005 C
ENDBRANCH  14  15
ENDBRANCH  13  14
ENDBRANCH   8  13
BRANCH  10  21
HETATM   21  N5  UNL     1      15.300   9.846  10.950  1.00  0.00    -0.362 N
HETATM   22  C14 UNL     1      14.877   8.950   9.861  1.00  0.00     0.127 C
HETATM   23  C15 UNL     1      16.123   8.470   9.200  1.00  0.00     0.053 C
HETATM   24  C16 UNL     1      17.190   9.467   9.617  1.00  0.00     0.137 C
HETATM   25  C17 UNL     1      16.721   9.751  11.051  1.00  0.00     0.156 C
BRANCH  24  26
HETATM   26  O1  UNL     1      18.449   8.915   9.588  1.00  0.00    -0.394 OA
ATOM     27  H1  UNL     1      18.827   8.846  10.457  1.00  0.00     0.210 HD
ENDBRANCH  24  26
ENDBRANCH  10  21
BRANCH   1  28
HETATM   28  N1  UNL     1      12.661  13.710  10.933  1.00  0.00    -0.234 N
ATOM     29  H12 UNL     1      12.471  14.576  11.437  1.00  0.00     0.174 HD
ATOM     30  H11 UNL     1      12.517  13.709   9.923  1.00  0.00     0.174 HD
ENDBRANCH   1  28
TORSDOF 6
ENDMDL