MODEL 4
REMARK VINA RESULT: -7.701564128      2.175      3.789
REMARK  7 active torsions:
REMARK  status: ('A' for Active; 'I' for Inactive)
REMARK    1  A    between atoms: N1_2  and  C2_4
REMARK    2  A    between atoms: C4_9  and  N4_10
REMARK    3  A    between atoms: C5_13  and  N5_14
REMARK    4  A    between atoms: N5_14  and  N6_16
REMARK    5  A    between atoms: N6_16  and  C6_17
REMARK    6  A    between atoms: C6_17  and  C7_18
REMARK    7  A    between atoms: C6_17  and  C10_21
ROOT
HETATM    1  C2  UNL     1      15.995   7.002  14.376  1.00  0.00     0.680 A
HETATM    2  N2  UNL     1      17.186   7.213  13.809  1.00  0.00    -0.176 N
ATOM      3  H2  UNL     1      17.989   6.657  14.103  1.00  0.00     0.185 HD
HETATM    4  C3  UNL     1      17.339   8.148  12.858  1.00  0.00     0.168 A
HETATM    5  N3  UNL     1      18.595   8.387  12.244  1.00  0.00    -0.079 NA
HETATM    6  C4  UNL     1      16.239   8.892  12.473  1.00  0.00     0.190 A
HETATM    7  C5  UNL     1      15.020   8.656  13.073  1.00  0.00     0.182 A
HETATM    8  N7  UNL     1      14.936   7.718  14.006  1.00  0.00    -0.172 N
ATOM      9  H7  UNL     1      14.036   7.540  14.453  1.00  0.00     0.186 HD
ENDROOT
BRANCH   7  10
HETATM   10  N5  UNL     1      13.972   9.365  12.706  1.00  0.00    -0.216 N
ATOM     11  H5  UNL     1      13.526   9.109  11.825  1.00  0.00     0.203 HD
BRANCH  10  12
HETATM   12  N6  UNL     1      13.466  10.337  13.344  1.00  0.00    -0.332 NA
BRANCH  12  13
HETATM   13  C6  UNL     1      13.010  11.266  13.965  1.00  0.00     0.094 C
BRANCH  13  14
HETATM   14  C7  UNL     1      12.214  12.288  13.230  1.00  0.00     0.040 C
HETATM   15  C8  UNL     1      12.826  12.819  11.990  1.00  0.00     0.017 C
HETATM   16  C9  UNL     1      10.820  11.819  12.940  1.00  0.00     0.017 C
ENDBRANCH  13  14
BRANCH  13  17
HETATM   17  C10 UNL     1      13.261  11.356  15.445  1.00  0.00     0.048 C
HETATM   18  C11 UNL     1      12.845  10.123  16.176  1.00  0.00     0.011 C
HETATM   19  C12 UNL     1      12.386  10.434  17.593  1.00  0.00     0.001 C
HETATM   20  C13 UNL     1      11.217  11.357  17.649  1.00  0.00     0.000 C
HETATM   21  C14 UNL     1      11.128  12.097  16.331  1.00  0.00     0.001 C
HETATM   22  C15 UNL     1      12.534  12.568  16.020  1.00  0.00     0.011 C
ENDBRANCH  13  17
ENDBRANCH  12  13
ENDBRANCH  10  12
ENDBRANCH   7  10
BRANCH   6  23
HETATM   23  N4  UNL     1      16.343   9.897  11.469  1.00  0.00    -0.108 N
HETATM   24  O1  UNL     1      16.594  11.059  11.796  1.00  0.00    -0.532 OA
HETATM   25  O2  UNL     1      16.163   9.556  10.159  1.00  0.00    -0.532 OA
ENDBRANCH   6  23
BRANCH   1  26
HETATM   26  N1  UNL     1      15.886   6.073  15.307  1.00  0.00    -0.230 N
HETATM   27  C1  UNL     1      15.112   6.380  16.484  1.00  0.00     0.165 C
ATOM     28  H1  UNL     1      16.335   5.164  15.197  1.00  0.00     0.177 HD
ENDBRANCH   1  26
TORSDOF 7
ENDMDL