MODEL 5
REMARK VINA RESULT: -8.048897043      3.347      5.745
REMARK  7 active torsions:
REMARK  status: ('A' for Active; 'I' for Inactive)
REMARK    1  A    between atoms: O1_1  and  C1_3
REMARK    2  A    between atoms: C1_3  and  C2_4
REMARK    3  A    between atoms: C4_7  and  O3_8
REMARK    4  A    between atoms: C7_12  and  C8_13
REMARK    5  A    between atoms: C11_16  and  O4_17
REMARK    6  A    between atoms: C13_21  and  C14_22
REMARK    7  A    between atoms: N1_23  and  C15_25
ROOT
HETATM    1  C2  UNL     1      16.016   7.852  11.206  1.00  0.00    -0.029 C
HETATM    2  C3  UNL     1      17.108   8.587  11.291  1.00  0.00     0.143 C
HETATM    3  O2  UNL     1      17.136   9.804  11.974  1.00  0.00    -0.332 OA
HETATM    4  C4  UNL     1      15.951  10.506  12.146  1.00  0.00     0.271 C
HETATM    5  C5  UNL     1      14.689   9.751  12.130  1.00  0.00     0.079 C
HETATM    6  C6  UNL     1      14.001   9.882  13.443  1.00  0.00    -0.067 C
HETATM    7  C7  UNL     1      13.310  10.906  13.890  1.00  0.00     0.040 C
HETATM    8  C12 UNL     1      14.217   8.635  14.200  1.00  0.00     0.045 C
HETATM    9  C13 UNL     1      14.452   7.628  13.126  1.00  0.00     0.037 C
HETATM   10  C18 UNL     1      14.771   8.294  11.837  1.00  0.00     0.040 C
ENDROOT
BRANCH   7  11
HETATM   11  C8  UNL     1      12.657  10.996  15.172  1.00  0.00     0.078 A
HETATM   12  C9  UNL     1      11.671  11.886  15.527  1.00  0.00     0.042 A
HETATM   13  C10 UNL     1      11.377  11.569  16.859  1.00  0.00     0.067 A
HETATM   14  C11 UNL     1      12.191  10.524  17.224  1.00  0.00     0.183 A
HETATM   15  O5  UNL     1      12.923  10.223  16.203  1.00  0.00    -0.288 OA
BRANCH  14  16
HETATM   16  O4  UNL     1      12.264   9.862  18.459  1.00  0.00    -0.341 OA
ATOM     17  H4  UNL     1      12.151   8.936  18.641  1.00  0.00     0.220 HD
ENDBRANCH  14  16
ENDBRANCH   7  11
BRANCH   4  18
HETATM   18  O3  UNL     1      15.955  11.541  11.182  1.00  0.00    -0.370 OA
ATOM     19  H3  UNL     1      15.064  11.867  11.133  1.00  0.00     0.212 HD
ENDBRANCH   4  18
BRANCH   9  20
HETATM   20  C14 UNL     1      15.511   6.712  13.611  1.00  0.00     0.061 C
HETATM   21  N1  UNL     1      16.200   6.961  14.638  1.00  0.00    -0.397 N
ATOM     22  H1  UNL     1      15.997   7.830  15.132  1.00  0.00     0.159 HD
BRANCH  21  23
HETATM   23  C15 UNL     1      17.227   6.146  15.169  1.00  0.00     0.080 A
HETATM   24  C16 UNL     1      17.162   5.866  16.633  1.00  0.00     0.027 A
HETATM   25  C17 UNL     1      18.302   6.690  16.029  1.00  0.00     0.027 A
ENDBRANCH  21  23
ENDBRANCH   9  20
BRANCH   1  26
HETATM   26  C1  UNL     1      16.045   6.570  10.469  1.00  0.00     0.200 C
BRANCH  26  27
HETATM   27  O1  UNL     1      15.466   6.750   9.192  1.00  0.00    -0.397 OA
ATOM     28  H1  UNL     1      14.705   7.314   9.268  1.00  0.00     0.209 HD
ENDBRANCH  26  27
ENDBRANCH   1  26
TORSDOF 7
ENDMDL