MODEL 2
REMARK VINA RESULT: -8.603823187      1.897      2.816
REMARK  7 active torsions:
REMARK  status: ('A' for Active; 'I' for Inactive)
REMARK    1  A    between atoms: O1_1  and  C1_3
REMARK    2  A    between atoms: C2_4  and  C3_5
REMARK    3  A    between atoms: C3_5  and  C4_6
REMARK    4  A    between atoms: C6_13  and  N4_14
REMARK    5  A    between atoms: N4_14  and  C7_16
REMARK    6  A    between atoms: C7_16  and  C8_17
REMARK    7  A    between atoms: N7_27  and  C13_28
ROOT
HETATM    1  C4  UNL     1      13.594  11.123  12.377  1.00  0.00     0.031 A
HETATM    2  C5  UNL     1      12.707  11.276  11.337  1.00  0.00     0.124 A
HETATM    3  N1  UNL     1      11.529  11.761  11.834  1.00  0.00    -0.288 N
ATOM      4  H1  UNL     1      10.694  11.970  11.287  1.00  0.00     0.188 HD
HETATM    5  N2  UNL     1      11.651  11.915  13.136  1.00  0.00    -0.164 N
HETATM    6  N3  UNL     1      11.005  12.302  14.213  1.00  0.00    -0.109 N
ATOM      7  H3  UNL     1      10.043  12.639  14.231  1.00  0.00     0.208 HD
HETATM    8  C6  UNL     1      11.811  12.185  15.296  1.00  0.00     0.696 A
HETATM    9  N5  UNL     1      12.980  11.707  14.828  1.00  0.00    -0.171 N
ATOM     10  H5  UNL     1      13.802  11.507  15.400  1.00  0.00     0.186 HD
HETATM   11  C11 UNL     1      12.906  11.533  13.499  1.00  0.00     0.172 A
ENDROOT
BRANCH   1  12
HETATM   12  C3  UNL     1      14.825  10.676  12.246  1.00  0.00     0.051 C
BRANCH  12  13
HETATM   13  C2  UNL     1      15.062   9.239  12.007  1.00  0.00     0.087 A
HETATM   14  C1  UNL     1      14.949   8.263  12.960  1.00  0.00     0.172 A
HETATM   15  N7  UNL     1      15.239   7.061  12.385  1.00  0.00    -0.298 N
HETATM   16  C12 UNL     1      15.520   7.336  11.102  1.00  0.00     0.181 A
HETATM   17  N6  UNL     1      15.414   8.657  10.868  1.00  0.00    -0.329 N
HETATM   18  S1  UNL     1      15.930   6.194  10.007  1.00  0.00    -0.040 SA
ATOM     19  H6  UNL     1      15.574   9.125   9.976  1.00  0.00     0.168 HD
BRANCH  14  20
HETATM   20  O1  UNL     1      14.598   8.455  14.294  1.00  0.00    -0.344 OA
ATOM     21  H1  UNL     1      13.765   8.230  14.691  1.00  0.00     0.219 HD
ENDBRANCH  14  20
BRANCH  15  22
HETATM   22  C13 UNL     1      15.220   5.813  13.089  1.00  0.00     0.094 A
HETATM   23  C14 UNL     1      14.591   4.596  12.549  1.00  0.00     0.028 A
HETATM   24  C15 UNL     1      13.868   5.396  13.614  1.00  0.00     0.028 A
ENDBRANCH  15  22
ENDBRANCH  12  13
ENDBRANCH   1  12
BRANCH   8  25
HETATM   25  N4  UNL     1      11.533  12.466  16.521  1.00  0.00    -0.224 N
ATOM     26  H4  UNL     1      11.670  13.420  16.855  1.00  0.00     0.177 HD
BRANCH  25  27
HETATM   27  C7  UNL     1      11.036  11.473  17.428  1.00  0.00     0.142 C
BRANCH  27  28
HETATM   28  C8  UNL     1      12.129  10.959  18.356  1.00  0.00     0.004 A
HETATM   29  C9  UNL     1      12.709   9.626  17.987  1.00  0.00     0.007 A
HETATM   30  C10 UNL     1      11.805   9.760  19.207  1.00  0.00     0.007 A
ENDBRANCH  27  28
ENDBRANCH  25  27
ENDBRANCH   8  25
TORSDOF 7
ENDMDL