MODEL 1
REMARK VINA RESULT: -8.208468958      0.000      0.000
REMARK  6 active torsions:
REMARK  status: ('A' for Active; 'I' for Inactive)
REMARK    1  A    between atoms: N1_2  and  C2_3
REMARK    2  A    between atoms: N1_2  and  C5_10
REMARK    3  A    between atoms: C2_3  and  C3_4
REMARK    4  A    between atoms: C3_4  and  C4_5
REMARK    5  A    between atoms: C4_5  and  N2_6
REMARK    6  A    between atoms: C16_27  and  N5_28
ROOT
HETATM    1  C5  UNL     1      16.085   7.760  11.899  1.00  0.00     0.683 A
HETATM    2  N3  UNL     1      15.463   8.870  11.480  1.00  0.00    -0.184 N
ATOM      3  H3  UNL     1      15.659   9.218  10.541  1.00  0.00     0.185 HD
HETATM    4  C6  UNL     1      14.578   9.554  12.262  1.00  0.00     0.107 A
HETATM    5  S1  UNL     1      13.663  10.972  12.032  1.00  0.00    -0.073 SA
HETATM    6  C7  UNL     1      12.882  11.051  13.528  1.00  0.00     0.022 A
HETATM    7  C8  UNL     1      13.368   9.927  14.204  1.00  0.00    -0.024 A
HETATM    8  C9  UNL     1      14.245   9.160  13.542  1.00  0.00     0.074 A
HETATM    9  C10 UNL     1      14.908   7.993  13.966  1.00  0.00     0.273 A
HETATM   10  O1  UNL     1      14.744   7.473  15.100  1.00  0.00    -0.267 OA
HETATM   11  N4  UNL     1      15.770   7.370  13.144  1.00  0.00    -0.155 N
ATOM     12  H4  UNL     1      16.225   6.527  13.497  1.00  0.00     0.187 HD
HETATM   13  C11 UNL     1      12.924   9.542  15.599  1.00  0.00     0.041 C
HETATM   14  C12 UNL     1      13.282  10.642  16.581  1.00  0.00     0.005 C
HETATM   15  C13 UNL     1      12.079  11.347  17.135  1.00  0.00     0.000 C
HETATM   16  C14 UNL     1      11.128  11.862  16.101  1.00  0.00     0.002 C
HETATM   17  C15 UNL     1      11.903  12.701  15.136  1.00  0.00     0.038 C
HETATM   18  C16 UNL     1      11.966  12.200  13.739  1.00  0.00     0.223 C
ENDROOT
BRANCH   1  19
HETATM   19  N1  UNL     1      16.999   7.028  11.098  1.00  0.00    -0.222 N
HETATM   20  C1  UNL     1      17.195   5.613  11.368  1.00  0.00     0.168 C
BRANCH  19  21
HETATM   21  C2  UNL     1      17.745   7.637  10.050  1.00  0.00     0.142 C
BRANCH  21  22
HETATM   22  C3  UNL     1      17.315   7.354   8.660  1.00  0.00     0.048 C
BRANCH  22  23
HETATM   23  C4  UNL     1      16.559   8.409   7.942  1.00  0.00     0.231 C
BRANCH  23  24
HETATM   24  N2  UNL     1      17.231   9.008   6.818  1.00  0.00    -0.079 N
ATOM     25  H23 UNL     1      17.870   8.334   6.397  1.00  0.00     0.274 HD
ATOM     26  H22 UNL     1      16.572   9.141   6.051  1.00  0.00     0.274 HD
ATOM     27  H21 UNL     1      17.723   9.881   7.009  1.00  0.00     0.274 HD
ENDBRANCH  23  24
ENDBRANCH  22  23
ENDBRANCH  21  22
ENDBRANCH  19  21
ENDBRANCH   1  19
BRANCH  18  28
HETATM   28  N5  UNL     1      10.717  11.915  13.108  1.00  0.00    -0.070 N
ATOM     29  H53 UNL     1      10.749  12.053  12.099  1.00  0.00     0.275 HD
ATOM     30  H52 UNL     1      10.499  10.919  13.108  1.00  0.00     0.275 HD
ATOM     31  H51 UNL     1       9.988  12.473  13.555  1.00  0.00     0.275 HD
ENDBRANCH  18  28
TORSDOF 6
ENDMDL