MODEL 1
REMARK VINA RESULT: -8.447142131      0.000      0.000
REMARK  6 active torsions:
REMARK  status: ('A' for Active; 'I' for Inactive)
REMARK    1  A    between atoms: C3_5  and  C4_6
REMARK    2  A    between atoms: C4_6  and  N2_7
REMARK    3  A    between atoms: N2_7  and  C5_9
REMARK    4  A    between atoms: C8_13  and  C9_14
REMARK    5  A    between atoms: C15_20  and  O2_21
REMARK    6  A    between atoms: C16_23  and  O3_24
ROOT
HETATM    1  C5  UNL     1      16.230  10.678  10.843  1.00  0.00     0.179 C
HETATM    2  C6  UNL     1      16.338   9.506  11.739  1.00  0.00     0.155 C
HETATM    3  O1  UNL     1      16.903   9.600  12.843  1.00  0.00    -0.295 OA
HETATM    4  C7  UNL     1      15.772   8.196  11.329  1.00  0.00     0.117 C
HETATM    5  C8  UNL     1      16.388   7.836   9.983  1.00  0.00    -0.040 C
HETATM    6  C15 UNL     1      16.963   8.959   9.221  1.00  0.00     0.179 C
HETATM    7  C16 UNL     1      16.208  10.275   9.427  1.00  0.00     0.180 C
ENDROOT
BRANCH   1   8
HETATM    8  N2  UNL     1      15.192  11.517  11.287  1.00  0.00    -0.403 N
ATOM      9  H2  UNL     1      15.388  12.374  11.805  1.00  0.00     0.154 HD
BRANCH   8  10
HETATM   10  C4  UNL     1      13.830  11.114  10.978  1.00  0.00     0.172 C
BRANCH  10  11
HETATM   11  C3  UNL     1      13.083  11.250  12.327  1.00  0.00     0.034 A
HETATM   12  N1  UNL     1      13.358  10.508  13.333  1.00  0.00    -0.356 N
HETATM   13  C2  UNL     1      12.767  10.768  14.503  1.00  0.00     0.047 A
ATOM     14  H1  UNL     1      14.015   9.733  13.244  1.00  0.00     0.166 HD
HETATM   15  C1  UNL     1      12.951  10.043  15.825  1.00  0.00     0.076 C
HETATM   16  S1  UNL     1      11.790  12.115  14.131  1.00  0.00    -0.087 SA
HETATM   17  C17 UNL     1      12.186  12.283  12.490  1.00  0.00     0.078 A
ENDBRANCH  10  11
ENDBRANCH   8  10
ENDBRANCH   1   8
BRANCH   7  18
HETATM   18  O3  UNL     1      16.984  11.210   8.685  1.00  0.00    -0.390 OA
ATOM     19  H3  UNL     1      17.284  11.887   9.281  1.00  0.00     0.210 HD
ENDBRANCH   7  18
BRANCH   6  20
HETATM   20  O2  UNL     1      18.274   9.216   9.669  1.00  0.00    -0.389 OA
ATOM     21  H2  UNL     1      18.734   8.396   9.802  1.00  0.00     0.210 HD
ENDBRANCH   6  20
BRANCH   5  22
HETATM   22  C9  UNL     1      15.612   6.816   9.212  1.00  0.00    -0.074 C
HETATM   23  C10 UNL     1      15.714   5.421   9.732  1.00  0.00     0.034 C
HETATM   24  C11 UNL     1      15.029   4.493   8.733  1.00  0.00     0.004 C
HETATM   25  C12 UNL     1      15.726   4.513   7.409  1.00  0.00     0.001 C
HETATM   26  C13 UNL     1      16.505   5.774   7.169  1.00  0.00     0.004 C
HETATM   27  C14 UNL     1      15.676   6.916   7.731  1.00  0.00     0.034 C
ENDBRANCH   5  22
TORSDOF 6
ENDMDL