MODEL 5
REMARK VINA RESULT: -6.576387445      1.825      3.459
REMARK  7 active torsions:
REMARK  status: ('A' for Active; 'I' for Inactive)
REMARK    1  A    between atoms: N2_3  and  C2_5
REMARK    2  A    between atoms: C3_8  and  N4_9
REMARK    3  A    between atoms: C5_16  and  C6_17
REMARK    4  A    between atoms: N7_18  and  C7_20
REMARK    5  A    between atoms: C7_20  and  O1_21
REMARK    6  A    between atoms: C7_20  and  C8_23
REMARK    7  A    between atoms: C8_23  and  N8_24
ROOT
HETATM    1  N1  UNL     1      15.867  27.702  48.963  1.00  0.00    -0.172 NA
HETATM    2  C1  UNL     1      15.261  26.911  49.584  1.00  0.00     0.183 C
HETATM    3  N2  UNL     1      14.539  25.988  50.334  1.00  0.00    -0.278 N
ATOM      4  H2  UNL     1      14.815  25.794  51.296  1.00  0.00     0.179 HD
ENDROOT
BRANCH   3   5
HETATM    5  C2  UNL     1      13.525  25.376  49.827  1.00  0.00     0.144 A
HETATM    6  N3  UNL     1      13.695  24.247  49.126  1.00  0.00    -0.175 N
HETATM    7  C3  UNL     1      12.675  23.567  48.575  1.00  0.00     0.678 A
ATOM      8  H3  UNL     1      14.643  23.888  49.004  1.00  0.00     0.186 HD
HETATM    9  N5  UNL     1      11.413  24.011  48.716  1.00  0.00    -0.178 N
HETATM   10  C4  UNL     1      11.226  25.147  49.421  1.00  0.00     0.147 A
ATOM     11  H5  UNL     1      10.627  23.508  48.304  1.00  0.00     0.185 HD
HETATM   12  N6  UNL     1       9.890  25.645  49.587  1.00  0.00    -0.081 NA
HETATM   13  C5  UNL     1      12.242  25.872  49.999  1.00  0.00     0.066 A
BRANCH   7  14
HETATM   14  N4  UNL     1      12.895  22.488  47.909  1.00  0.00    -0.234 N
ATOM     15  H42 UNL     1      12.111  21.885  47.661  1.00  0.00     0.174 HD
ATOM     16  H41 UNL     1      13.844  22.238  47.630  1.00  0.00     0.174 HD
ENDBRANCH   7  14
BRANCH  13  17
HETATM   17  C6  UNL     1      11.968  27.080  50.740  1.00  0.00     0.104 C
HETATM   18  N7  UNL     1      11.211  27.124  51.776  1.00  0.00    -0.370 N
ATOM     19  H7  UNL     1      10.773  26.263  52.102  1.00  0.00     0.161 HD
BRANCH  18  20
HETATM   20  C7  UNL     1      10.959  28.339  52.488  1.00  0.00     0.262 C
BRANCH  20  21
HETATM   21  O1  UNL     1      12.180  28.919  52.899  1.00  0.00    -0.374 OA
ATOM     22  H1  UNL     1      12.174  29.054  53.838  1.00  0.00     0.212 HD
ENDBRANCH  20  21
BRANCH  20  23
HETATM   23  C8  UNL     1      10.162  28.122  53.769  1.00  0.00     0.337 C
HETATM   24  C9  UNL     1      10.682  28.868  54.885  1.00  0.00     0.097 C
HETATM   25  N9  UNL     1      11.103  29.471  55.762  1.00  0.00    -0.195 NA
BRANCH  23  26
HETATM   26  N8  UNL     1      10.272  26.704  54.078  1.00  0.00    -0.058 N
ATOM     27  H83 UNL     1       9.400  26.293  54.410  1.00  0.00     0.276 HD
ATOM     28  H82 UNL     1      10.381  26.115  53.252  1.00  0.00     0.276 HD
ATOM     29  H81 UNL     1      11.040  26.618  54.743  1.00  0.00     0.276 HD
ENDBRANCH  23  26
ENDBRANCH  20  23
ENDBRANCH  18  20
ENDBRANCH  13  17
ENDBRANCH   3   5
TORSDOF 7
ENDMDL