MODEL 4
REMARK VINA RESULT: -6.927705381      3.157      4.664
REMARK  6 active torsions:
REMARK  status: ('A' for Active; 'I' for Inactive)
REMARK    1  A    between atoms: O1_2  and  N1_3
REMARK       I    between atoms: N1_3  and  C2_5
REMARK       I    between atoms: C2_5  and  N2_7
REMARK    2  A    between atoms: N2_7  and  C3_9
REMARK    3  A    between atoms: C3_9  and  O3_10
REMARK    4  A    between atoms: C3_9  and  C4_12
REMARK    5  A    between atoms: C6_15  and  N4_16
REMARK    6  A    between atoms: N7_25  and  N8_26
ROOT
HETATM    1  C4  UNL     1      12.383  25.578  49.568  1.00  0.00     0.152 A
HETATM    2  C5  UNL     1      13.729  25.944  49.415  1.00  0.00     0.124 A
HETATM    3  N3  UNL     1      14.212  27.179  49.917  1.00  0.00    -0.096 NA
HETATM    4  C6  UNL     1      14.636  25.131  48.775  1.00  0.00     0.141 A
HETATM    5  N5  UNL     1      14.219  23.964  48.288  1.00  0.00    -0.174 N
ATOM      6  H5  UNL     1      14.880  23.351  47.811  1.00  0.00     0.186 HD
HETATM    7  C7  UNL     1      12.925  23.581  48.420  1.00  0.00     0.699 A
HETATM    8  N6  UNL     1      12.523  22.461  47.955  1.00  0.00    -0.233 N
ATOM      9  H61 UNL     1      11.550  22.173  48.054  1.00  0.00     0.174 HD
ATOM     10  H62 UNL     1      13.180  21.843  47.477  1.00  0.00     0.174 HD
HETATM   11  N7  UNL     1      12.042  24.413  49.064  1.00  0.00    -0.087 N
ENDROOT
BRANCH   1  12
HETATM   12  C3  UNL     1      11.494  26.493  50.258  1.00  0.00     0.176 C
BRANCH  12  13
HETATM   13  N2  UNL     1      11.742  27.557  51.090  1.00  0.00    -0.286 N
HETATM   14  C2  UNL     1      11.288  27.686  52.418  1.00  0.00     0.345 C
HETATM   15  N1  UNL     1      10.527  26.818  53.187  1.00  0.00    -0.217 N
HETATM   16  O2  UNL     1      11.639  28.790  53.005  1.00  0.00    -0.245 OA
ATOM     17  H1  UNL     1      10.210  25.925  52.808  1.00  0.00     0.199 HD
ATOM     18  H2  UNL     1      12.304  28.321  50.714  1.00  0.00     0.172 HD
BRANCH  15  19
HETATM   19  O1  UNL     1      10.210  27.192  54.482  1.00  0.00    -0.281 OA
HETATM   20  C1  UNL     1       8.847  27.429  54.562  1.00  0.00     0.237 C
ENDBRANCH  15  19
ENDBRANCH  12  13
BRANCH  12  21
HETATM   21  O3  UNL     1      10.228  26.265  50.046  1.00  0.00    -0.344 OA
ATOM     22  H3  UNL     1       9.732  26.067  50.832  1.00  0.00     0.219 HD
ENDBRANCH  12  21
ENDBRANCH   1  12
BRANCH  11  23
HETATM   23  N8  UNL     1      10.723  23.938  49.123  1.00  0.00    -0.324 N
ATOM     24  H82 UNL     1      10.465  23.500  50.007  1.00  0.00     0.178 HD
ATOM     25  H81 UNL     1      10.087  24.015  48.329  1.00  0.00     0.178 HD
ENDBRANCH  11  23
BRANCH   4  26
HETATM   26  N4  UNL     1      15.878  25.512  48.654  1.00  0.00    -0.383 N
ATOM     27  H42 UNL     1      16.404  25.342  47.797  1.00  0.00     0.157 HD
ATOM     28  H41 UNL     1      16.340  25.992  49.426  1.00  0.00     0.157 HD
ENDBRANCH   4  26
TORSDOF 6
ENDMDL