MODEL 1
REMARK VINA RESULT: -6.980936714      0.000      0.000
REMARK  4 active torsions:
REMARK  status: ('A' for Active; 'I' for Inactive)
REMARK       I    between atoms: C1_2  and  N2_4
REMARK    1  A    between atoms: N2_4  and  N3_6
REMARK    2  A    between atoms: N4_8  and  C2_10
REMARK    3  A    between atoms: C4_15  and  N7_16
REMARK       I    between atoms: N7_16  and  C5_18
REMARK       I    between atoms: C5_18  and  N8_19
REMARK       I    between atoms: C5_18  and  N9_23
REMARK    4  A    between atoms: N10_27  and  N11_28
ROOT
HETATM    1  C2  UNL     1      13.327  24.649  48.467  1.00  0.00     0.162 A
HETATM    2  C3  UNL     1      13.003  23.424  49.004  1.00  0.00     0.165 A
HETATM    3  N5  UNL     1      13.937  22.359  48.999  1.00  0.00    -0.079 NA
HETATM    4  N6  UNL     1      11.758  23.270  49.540  1.00  0.00    -0.175 N
ATOM      5  H6  UNL     1      11.500  22.369  49.942  1.00  0.00     0.185 HD
HETATM    6  C4  UNL     1      10.867  24.267  49.552  1.00  0.00     0.706 A
HETATM    7  N10 UNL     1      11.210  25.448  49.022  1.00  0.00    -0.052 N
HETATM    8  C6  UNL     1      12.429  25.674  48.471  1.00  0.00     0.313 A
HETATM    9  O2  UNL     1      12.716  26.815  47.978  1.00  0.00    -0.263 OA
ENDROOT
BRANCH   6  10
HETATM   10  N7  UNL     1       9.704  24.113  50.056  1.00  0.00    -0.172 N
HETATM   11  C5  UNL     1       8.848  22.986  49.975  1.00  0.00     0.494 C
HETATM   12  N8  UNL     1       8.407  22.659  48.633  1.00  0.00    -0.032 N
HETATM   13  N9  UNL     1       9.353  21.786  50.581  1.00  0.00    -0.032 N
ATOM     14  H83 UNL     1       7.969  23.471  48.197  1.00  0.00     0.278 HD
ATOM     15  H82 UNL     1       9.210  22.541  48.015  1.00  0.00     0.278 HD
ATOM     16  H81 UNL     1       7.791  21.849  48.576  1.00  0.00     0.278 HD
ATOM     17  H93 UNL     1      10.269  21.558  50.195  1.00  0.00     0.278 HD
ATOM     18  H92 UNL     1       9.607  21.964  51.552  1.00  0.00     0.278 HD
ATOM     19  H91 UNL     1       8.737  20.975  50.523  1.00  0.00     0.278 HD
ATOM     20  H7  UNL     1       9.344  24.907  50.586  1.00  0.00     0.181 HD
ENDBRANCH   6  10
BRANCH   7  21
HETATM   21  N11 UNL     1      10.281  26.465  49.042  1.00  0.00    -0.321 N
ATOM     22 2H11 UNL     1       9.404  26.329  49.546  1.00  0.00     0.178 HD
ATOM     23 1H11 UNL     1      10.501  27.329  48.547  1.00  0.00     0.178 HD
ENDBRANCH   7  21
BRANCH   1  24
HETATM   24  N4  UNL     1      14.634  24.821  47.901  1.00  0.00    -0.278 N
HETATM   25  N3  UNL     1      15.543  25.484  48.484  1.00  0.00    -0.238 N
ATOM     26  H3  UNL     1      16.454  25.571  48.033  1.00  0.00     0.208 HD
ATOM     27  H4  UNL     1      14.838  24.394  46.997  1.00  0.00     0.189 HD
BRANCH  25  28
HETATM   28  N2  UNL     1      15.344  26.102  49.729  1.00  0.00    -0.239 N
HETATM   29  C1  UNL     1      15.478  27.511  49.873  1.00  0.00     0.348 C
HETATM   30  N1  UNL     1      15.275  28.129  51.135  1.00  0.00    -0.038 NA
HETATM   31  O1  UNL     1      15.778  28.205  48.865  1.00  0.00    -0.249 OA
ATOM     32  H2  UNL     1      15.101  25.534  50.540  1.00  0.00     0.193 HD
ENDBRANCH  25  28
ENDBRANCH   1  24
TORSDOF 4
ENDMDL