MODEL 2
REMARK VINA RESULT: -7.018411461      3.506      4.775
REMARK  2 active torsions:
REMARK  status: ('A' for Active; 'I' for Inactive)
REMARK       I    between atoms: C1_2  and  N2_4
REMARK    1  A    between atoms: N2_4  and  S1_6
REMARK    2  A    between atoms: S1_6  and  C2_8
REMARK       I    between atoms: N5_16  and  C6_17
REMARK       I    between atoms: C6_17  and  N6_18
REMARK       I    between atoms: C6_17  and  N7_22
ROOT
HETATM    1  C2  UNL     1      11.164  24.469  49.754  1.00  0.00     0.139 A
HETATM    2  C3  UNL     1      10.334  25.309  50.454  1.00  0.00     0.131 A
HETATM    3  N3  UNL     1      10.744  26.517  50.924  1.00  0.00    -0.346 N
ATOM      4  H3  UNL     1      10.097  27.113  51.441  1.00  0.00     0.167 HD
HETATM    5  C4  UNL     1      12.006  26.923  50.704  1.00  0.00     0.164 A
HETATM    6  C5  UNL     1      12.827  26.058  49.995  1.00  0.00     0.171 A
HETATM    7  N4  UNL     1      12.431  24.864  49.528  1.00  0.00    -0.328 N
ATOM      8  H4  UNL     1      13.077  24.267  49.011  1.00  0.00     0.168 HD
HETATM    9  N5  UNL     1      14.111  26.696  49.885  1.00  0.00    -0.202 N
HETATM   10  C6  UNL     1      15.387  26.054  49.655  1.00  0.00     0.501 C
HETATM   11  N6  UNL     1      15.435  25.307  48.432  1.00  0.00    -0.031 N
ATOM     12  H61 UNL     1      16.335  24.855  48.269  1.00  0.00     0.279 HD
ATOM     13  H62 UNL     1      15.177  25.894  47.638  1.00  0.00     0.279 HD
ATOM     14  H63 UNL     1      14.676  24.627  48.394  1.00  0.00     0.279 HD
HETATM   15  N7  UNL     1      15.819  25.277  50.794  1.00  0.00    -0.031 N
ATOM     16  H71 UNL     1      16.719  24.825  50.631  1.00  0.00     0.279 HD
ATOM     17  H72 UNL     1      15.108  24.598  51.068  1.00  0.00     0.279 HD
ATOM     18  H73 UNL     1      15.838  25.843  51.641  1.00  0.00     0.279 HD
HETATM   19  N8  UNL     1      13.831  28.074  50.058  1.00  0.00    -0.013 NA
HETATM   20  N9  UNL     1      12.799  28.047  51.001  1.00  0.00    -0.266 N
ATOM     21  H9  UNL     1      12.651  28.714  51.759  1.00  0.00     0.186 HD
ENDROOT
BRANCH   1  22
HETATM   22  S1  UNL     1      10.539  22.923  49.187  1.00  0.00     0.172 S
HETATM   23  O2  UNL     1      11.202  22.510  47.702  1.00  0.00    -0.228 OA
BRANCH  22  24
HETATM   24  N2  UNL     1       8.813  23.028  48.976  1.00  0.00    -0.255 N
HETATM   25  C1  UNL     1       7.950  22.294  49.833  1.00  0.00     0.340 C
HETATM   26  N1  UNL     1       6.547  22.377  49.662  1.00  0.00    -0.039 NA
HETATM   27  O1  UNL     1       8.438  21.572  50.737  1.00  0.00    -0.250 OA
ATOM     28  H2  UNL     1       8.423  23.615  48.240  1.00  0.00     0.181 HD
ENDBRANCH  22  24
ENDBRANCH   1  22
TORSDOF 2
ENDMDL