MODEL 5
REMARK VINA RESULT: -7.233493943      3.175      5.369
REMARK  5 active torsions:
REMARK  status: ('A' for Active; 'I' for Inactive)
REMARK    1  A    between atoms: N1_1  and  C1_4
REMARK    2  A    between atoms: N4_13  and  C5_14
REMARK    3  A    between atoms: C5_14  and  N5_15
REMARK    4  A    between atoms: N5_15  and  C6_17
REMARK    5  A    between atoms: N7_20  and  N8_21
ROOT
HETATM    1  C1  UNL     1      12.857  27.227  50.297  1.00  0.00     0.680 A
HETATM    2  N2  UNL     1      14.200  27.373  50.247  1.00  0.00    -0.154 N
ATOM      3  H2  UNL     1      14.644  28.184  50.677  1.00  0.00     0.187 HD
HETATM    4  C2  UNL     1      14.945  26.438  49.627  1.00  0.00     0.290 A
HETATM    5  O1  UNL     1      16.196  26.565  49.575  1.00  0.00    -0.265 OA
HETATM    6  C3  UNL     1      14.290  25.370  49.068  1.00  0.00     0.147 A
HETATM    7  N3  UNL     1      14.770  24.316  48.404  1.00  0.00    -0.345 N
ATOM      8  H3  UNL     1      15.752  24.133  48.199  1.00  0.00     0.167 HD
HETATM    9  C4  UNL     1      13.731  23.537  48.054  1.00  0.00     0.187 A
HETATM   10  N4  UNL     1      12.571  24.082  48.489  1.00  0.00    -0.310 N
HETATM   11  C7  UNL     1      12.915  25.222  49.120  1.00  0.00     0.158 A
HETATM   12  N11 UNL     1      12.216  26.178  49.749  1.00  0.00    -0.174 N
ATOM     13  H11 UNL     1      11.200  26.110  49.812  1.00  0.00     0.186 HD
ENDROOT
BRANCH  10  14
HETATM   14  C5  UNL     1      11.236  23.554  48.315  1.00  0.00     0.257 C
BRANCH  14  15
HETATM   15  N5  UNL     1      10.811  22.943  49.551  1.00  0.00    -0.343 N
ATOM     16  H5  UNL     1      11.497  22.764  50.285  1.00  0.00     0.164 HD
BRANCH  15  17
HETATM   17  C6  UNL     1       9.451  22.590  49.761  1.00  0.00     0.211 C
HETATM   18  N6  UNL     1       8.438  22.956  49.050  1.00  0.00    -0.235 N
HETATM   19  N7  UNL     1       7.269  22.398  49.580  1.00  0.00    -0.119 N
ATOM     20  H6  UNL     1       8.482  23.558  48.228  1.00  0.00     0.193 HD
HETATM   21  N9  UNL     1       7.696  21.329  50.376  1.00  0.00     0.020 NA
HETATM   22  N10 UNL     1       8.954  21.760  50.805  1.00  0.00    -0.251 N
ATOM     23  H10 UNL     1       9.419  21.528  51.683  1.00  0.00     0.187 HD
BRANCH  19  24
HETATM   24  N8  UNL     1       5.944  22.795  49.383  1.00  0.00    -0.310 N
ATOM     25  H82 UNL     1       5.514  23.018  48.486  1.00  0.00     0.180 HD
ATOM     26  H81 UNL     1       5.207  22.923  50.076  1.00  0.00     0.180 HD
ENDBRANCH  19  24
ENDBRANCH  15  17
ENDBRANCH  14  15
ENDBRANCH  10  14
BRANCH   1  27
HETATM   27  N1  UNL     1      12.122  28.118  50.892  1.00  0.00    -0.234 N
ATOM     28  H12 UNL     1      12.402  29.092  50.785  1.00  0.00     0.174 HD
ATOM     29  H11 UNL     1      11.306  27.833  51.435  1.00  0.00     0.174 HD
ENDBRANCH   1  27
TORSDOF 5
ENDMDL