MODEL 1
REMARK VINA RESULT: -6.861946013      0.000      0.000
REMARK  6 active torsions:
REMARK  status: ('A' for Active; 'I' for Inactive)
REMARK    1  A    between atoms: N1_1  and  C1_4
REMARK    2  A    between atoms: N5_12  and  C4_14
REMARK    3  A    between atoms: C4_14  and  C5_19
REMARK    4  A    between atoms: N6_15  and  O1_17
REMARK    5  A    between atoms: C5_19  and  N7_20
REMARK    6  A    between atoms: C5_19  and  C6_24
ROOT
HETATM    1  C1  UNL     1      10.687  28.759  53.783  1.00  0.00     0.692 A
HETATM    2  N2  UNL     1      10.140  27.565  54.133  1.00  0.00    -0.131 N
ATOM      3  H2  UNL     1       9.598  27.496  54.994  1.00  0.00     0.205 HD
HETATM    4  N3  UNL     1      10.300  26.498  53.380  1.00  0.00    -0.270 N
ATOM      5  H3  UNL     1       9.876  25.618  53.673  1.00  0.00     0.189 HD
HETATM    6  C2  UNL     1      11.007  26.536  52.234  1.00  0.00     0.176 A
HETATM    7  N4  UNL     1      11.141  25.321  51.453  1.00  0.00    -0.077 NA
HETATM    8  C3  UNL     1      11.575  27.715  51.842  1.00  0.00     0.165 A
HETATM    9  N5  UNL     1      12.249  27.861  50.801  1.00  0.00    -0.325 N
ATOM     10  H5  UNL     1      12.564  28.828  50.724  1.00  0.00     0.169 HD
HETATM   11  N9  UNL     1      11.383  28.806  52.659  1.00  0.00    -0.172 N
ATOM     12  H9  UNL     1      11.798  29.697  52.385  1.00  0.00     0.186 HD
ENDROOT
BRANCH   9  13
HETATM   13  C4  UNL     1      12.697  27.140  49.734  1.00  0.00     0.144 C
HETATM   14  N6  UNL     1      11.833  26.848  48.795  1.00  0.00    -0.238 N
ATOM     15  H6  UNL     1      10.867  27.163  48.887  1.00  0.00     0.197 HD
BRANCH  14  16
HETATM   16  O1  UNL     1      12.203  26.131  47.697  1.00  0.00    -0.189 OA
HETATM   17  S1  UNL     1      11.698  24.473  47.570  1.00  0.00     0.125 SA
ENDBRANCH  14  16
BRANCH  13  18
HETATM   18  C5  UNL     1      14.071  26.665  49.483  1.00  0.00     0.340 C
BRANCH  18  19
HETATM   19  N7  UNL     1      14.244  25.378  50.125  1.00  0.00    -0.060 N
ATOM     20  H73 UNL     1      13.853  25.357  51.066  1.00  0.00     0.275 HD
ATOM     21  H72 UNL     1      13.657  24.654  49.711  1.00  0.00     0.275 HD
ATOM     22  H71 UNL     1      15.234  25.134  50.109  1.00  0.00     0.275 HD
ENDBRANCH  18  19
BRANCH  18  23
HETATM   23  C6  UNL     1      15.117  27.626  49.864  1.00  0.00     0.269 C
HETATM   24  N8  UNL     1      15.166  28.366  51.042  1.00  0.00    -0.060 NA
HETATM   25  O2  UNL     1      16.059  27.790  49.036  1.00  0.00    -0.274 OA
ENDBRANCH  18  23
ENDBRANCH  13  18
ENDBRANCH   9  13
BRANCH   1  26
HETATM   26  N1  UNL     1      10.518  29.798  54.540  1.00  0.00    -0.233 N
ATOM     27  H12 UNL     1      10.182  29.726  55.500  1.00  0.00     0.174 HD
ATOM     28  H11 UNL     1      10.723  30.730  54.181  1.00  0.00     0.174 HD
ENDBRANCH   1  26
TORSDOF 6
ENDMDL