MODEL 3
REMARK VINA RESULT: -6.483588260      3.476      4.537
REMARK  4 active torsions:
REMARK  status: ('A' for Active; 'I' for Inactive)
REMARK    1  A    between atoms: C1_4  and  C2_6
REMARK    2  A    between atoms: N4_10  and  N5_12
REMARK    3  A    between atoms: C4_14  and  C5_15
REMARK       I    between atoms: C5_15  and  N6_17
REMARK    4  A    between atoms: N6_17  and  N7_19
ROOT
HETATM    1  C2  UNL     1      11.572  24.492  49.111  1.00  0.00     0.149 A
HETATM    2  N3  UNL     1      12.179  25.697  49.322  1.00  0.00    -0.323 N
ATOM      3  H3  UNL     1      11.592  26.502  49.539  1.00  0.00     0.169 HD
HETATM    4  C3  UNL     1      13.504  25.877  49.259  1.00  0.00     0.149 A
HETATM    5  N4  UNL     1      14.042  27.040  49.466  1.00  0.00    -0.284 N
ATOM      6  H4  UNL     1      13.450  27.842  49.682  1.00  0.00     0.188 HD
HETATM    7  C6  UNL     1      14.308  24.814  48.971  1.00  0.00     0.132 A
HETATM    8  N8  UNL     1      15.724  24.940  48.892  1.00  0.00    -0.095 NA
HETATM    9  C7  UNL     1      13.740  23.581  48.752  1.00  0.00     0.146 A
HETATM   10  N9  UNL     1      14.567  22.465  48.451  1.00  0.00    -0.080 NA
HETATM   11  N10 UNL     1      12.400  23.480  48.833  1.00  0.00    -0.326 N
ATOM     12  H10 UNL     1      11.985  22.563  48.669  1.00  0.00     0.168 HD
ENDROOT
BRANCH   5  13
HETATM   13  N5  UNL     1      15.407  27.200  49.397  1.00  0.00    -0.305 N
HETATM   14  C4  UNL     1      16.099  27.960  50.171  1.00  0.00     0.182 C
ATOM     15  H5  UNL     1      15.907  26.677  48.678  1.00  0.00     0.186 HD
BRANCH  14  16
HETATM   16  C5  UNL     1      15.497  28.740  51.218  1.00  0.00     0.276 C
HETATM   17  O1  UNL     1      14.263  28.640  51.417  1.00  0.00    -0.265 OA
HETATM   18  N6  UNL     1      16.219  29.628  52.050  1.00  0.00    -0.272 N
ATOM     19  H6  UNL     1      17.223  29.720  51.899  1.00  0.00     0.189 HD
BRANCH  18  20
HETATM   20  N7  UNL     1      15.637  30.381  53.061  1.00  0.00    -0.342 N
ATOM     21  H72 UNL     1      15.703  31.396  52.981  1.00  0.00     0.176 HD
ATOM     22  H71 UNL     1      15.156  29.975  53.864  1.00  0.00     0.176 HD
ENDBRANCH  18  20
ENDBRANCH  14  16
ENDBRANCH   5  13
BRANCH   1  23
HETATM   23  C1  UNL     1      10.127  24.378  49.197  1.00  0.00     0.154 C
HETATM   24  N1  UNL     1       9.404  25.385  49.454  1.00  0.00    -0.385 N
ATOM     25  H12 UNL     1       8.389  25.305  49.515  1.00  0.00     0.157 HD
ATOM     26  H11 UNL     1       9.875  26.278  49.597  1.00  0.00     0.157 HD
HETATM   27  N2  UNL     1       9.468  23.130  48.997  1.00  0.00    -0.079 NA
ENDBRANCH   1  23
TORSDOF 4
ENDMDL