MODEL 3
REMARK VINA RESULT: -7.986515511      1.750      2.011
REMARK  7 active torsions:
REMARK  status: ('A' for Active; 'I' for Inactive)
REMARK    1  A    between atoms: N1_1  and  C1_4
REMARK    2  A    between atoms: C2_7  and  N3_8
REMARK    3  A    between atoms: N3_8  and  N4_10
REMARK    4  A    between atoms: C3_13  and  N5_14
REMARK    5  A    between atoms: N5_14  and  N6_16
REMARK    6  A    between atoms: N7_18  and  N8_20
REMARK    7  A    between atoms: N8_20  and  C4_22
ROOT
HETATM    1  C1  UNL     1      13.735  24.582  48.408  1.00  0.00     0.680 A
HETATM    2  N2  UNL     1      13.270  25.175  49.511  1.00  0.00    -0.173 N
ATOM      3  H2  UNL     1      13.773  25.964  49.918  1.00  0.00     0.186 HD
HETATM    4  C2  UNL     1      12.123  24.725  50.091  1.00  0.00     0.169 A
HETATM    5  C3  UNL     1      11.447  23.659  49.536  1.00  0.00     0.164 A
HETATM    6  C5  UNL     1      11.980  23.088  48.394  1.00  0.00     0.291 A
HETATM    7  O1  UNL     1      11.348  22.115  47.904  1.00  0.00    -0.265 OA
HETATM    8  N13 UNL     1      13.113  23.536  47.827  1.00  0.00    -0.154 N
ATOM      9  H13 UNL     1      13.490  23.100  46.986  1.00  0.00     0.187 HD
ENDROOT
BRANCH   5  10
HETATM   10  N5  UNL     1      10.249  23.180  50.127  1.00  0.00    -0.277 N
ATOM     11  H5  UNL     1      10.221  22.966  51.124  1.00  0.00     0.189 HD
BRANCH  10  12
HETATM   12  N6  UNL     1       9.109  23.002  49.342  1.00  0.00    -0.227 N
HETATM   13  N7  UNL     1       8.140  22.375  49.806  1.00  0.00    -0.214 N
ATOM     14  H7  UNL     1       8.258  22.028  50.757  1.00  0.00     0.210 HD
ATOM     15  H6  UNL     1       9.071  23.383  48.396  1.00  0.00     0.210 HD
BRANCH  13  16
HETATM   16  N8  UNL     1       6.938  22.085  49.222  1.00  0.00    -0.114 N
ATOM     17  H8  UNL     1       6.755  21.093  49.068  1.00  0.00     0.207 HD
BRANCH  16  18
HETATM   18  C4  UNL     1       6.017  22.872  48.845  1.00  0.00     0.729 A
HETATM   19  N9  UNL     1       5.276  22.733  47.747  1.00  0.00    -0.114 N
HETATM   20  N10 UNL     1       4.429  23.764  47.711  1.00  0.00    -0.213 N
ATOM     21  H9  UNL     1       5.344  21.981  47.062  1.00  0.00     0.207 HD
HETATM   22  N11 UNL     1       4.630  24.535  48.763  1.00  0.00    -0.213 N
ATOM     23  H10 UNL     1       3.733  23.930  46.984  1.00  0.00     0.210 HD
HETATM   24  N12 UNL     1       5.616  23.980  49.465  1.00  0.00    -0.114 N
ATOM     25  H11 UNL     1       4.128  25.392  48.993  1.00  0.00     0.210 HD
ATOM     26  H12 UNL     1       6.001  24.345  50.337  1.00  0.00     0.207 HD
ENDBRANCH  16  18
ENDBRANCH  13  16
ENDBRANCH  10  12
ENDBRANCH   5  10
BRANCH   4  27
HETATM   27  N3  UNL     1      11.602  25.326  51.257  1.00  0.00    -0.290 N
ATOM     28  H3  UNL     1      11.681  24.841  52.152  1.00  0.00     0.188 HD
BRANCH  27  29
HETATM   29  N4  UNL     1      10.984  26.568  51.203  1.00  0.00    -0.344 N
ATOM     30  H42 UNL     1      10.787  26.975  50.289  1.00  0.00     0.176 HD
ATOM     31  H41 UNL     1      10.733  27.064  52.057  1.00  0.00     0.176 HD
ENDBRANCH  27  29
ENDBRANCH   4  27
BRANCH   1  32
HETATM   32  N1  UNL     1      14.823  25.012  47.862  1.00  0.00    -0.234 N
ATOM     33  H12 UNL     1      14.776  25.882  47.333  1.00  0.00     0.174 HD
ATOM     34  H11 UNL     1      15.687  24.480  47.970  1.00  0.00     0.174 HD
ENDBRANCH   1  32
TORSDOF 7
ENDMDL