MODEL 3
REMARK VINA RESULT: -8.050735089      1.925      4.588
REMARK  6 active torsions:
REMARK  status: ('A' for Active; 'I' for Inactive)
REMARK    1  A    between atoms: N1_1  and  C1_4
REMARK    2  A    between atoms: C3_9  and  C4_10
REMARK    3  A    between atoms: C4_10  and  N5_15
REMARK    4  A    between atoms: N4_11  and  O1_13
REMARK    5  A    between atoms: N5_15  and  O2_16
REMARK    6  A    between atoms: N6_18  and  N7_20
REMARK       I    between atoms: N7_20  and  C5_22
ROOT
HETATM    1  C4  UNL     1      12.065  24.688  48.303  1.00  0.00     0.192 C
HETATM    2  N4  UNL     1      11.284  24.737  47.255  1.00  0.00    -0.249 N
ATOM      3  H4  UNL     1      10.512  25.405  47.257  1.00  0.00     0.196 HD
ENDROOT
BRANCH   1   4
HETATM    4  C3  UNL     1      11.826  25.570  49.440  1.00  0.00     0.124 A
HETATM    5  C2  UNL     1      11.250  25.030  50.595  1.00  0.00     0.151 A
HETATM    6  N2  UNL     1      11.029  25.842  51.645  1.00  0.00    -0.178 N
HETATM    7  N3  UNL     1      10.931  23.657  50.597  1.00  0.00    -0.081 NA
HETATM    8  C1  UNL     1      11.334  27.152  51.640  1.00  0.00     0.680 A
ATOM      9  H2  UNL     1      10.609  25.445  52.485  1.00  0.00     0.185 HD
HETATM   10  N9  UNL     1      11.892  27.681  50.524  1.00  0.00    -0.155 N
HETATM   11  C6  UNL     1      12.130  26.903  49.454  1.00  0.00     0.277 A
ATOM     12  H9  UNL     1      12.133  28.672  50.497  1.00  0.00     0.187 HD
HETATM   13  O4  UNL     1      12.652  27.414  48.419  1.00  0.00    -0.267 OA
BRANCH   8  14
HETATM   14  N1  UNL     1      11.104  27.887  52.669  1.00  0.00    -0.234 N
ATOM     15  H12 UNL     1      11.497  27.645  53.579  1.00  0.00     0.174 HD
ATOM     16  H11 UNL     1      10.526  28.724  52.596  1.00  0.00     0.174 HD
ENDBRANCH   8  14
ENDBRANCH   1   4
BRANCH   1  17
HETATM   17  N5  UNL     1      13.125  23.749  48.265  1.00  0.00    -0.129 N
HETATM   18  N6  UNL     1      14.332  24.078  48.159  1.00  0.00    -0.211 N
ATOM     19  H6  UNL     1      15.036  23.340  48.138  1.00  0.00     0.211 HD
BRANCH  17  20
HETATM   20  O2  UNL     1      12.797  22.425  48.347  1.00  0.00    -0.265 OA
ATOM     21  H2  UNL     1      13.435  21.795  48.032  1.00  0.00     0.247 HD
ENDBRANCH  17  20
BRANCH  18  22
HETATM   22  N7  UNL     1      14.759  25.413  48.068  1.00  0.00    -0.237 N
HETATM   23  C5  UNL     1      15.423  26.032  49.129  1.00  0.00     0.348 C
HETATM   24  N8  UNL     1      15.847  27.382  49.021  1.00  0.00    -0.038 NA
HETATM   25  O3  UNL     1      15.664  25.424  50.203  1.00  0.00    -0.249 OA
ATOM     26  H7  UNL     1      14.581  25.939  47.212  1.00  0.00     0.193 HD
ENDBRANCH  18  22
ENDBRANCH   1  17
BRANCH   2  27
HETATM   27  O1  UNL     1      11.444  23.952  46.171  1.00  0.00    -0.288 OA
ATOM     28  H1  UNL     1      11.616  24.290  45.300  1.00  0.00     0.244 HD
ENDBRANCH   2  27
TORSDOF 6
ENDMDL