MODEL 2
REMARK VINA RESULT: -6.020820936      0.594      1.289
REMARK  5 active torsions:
REMARK  status: ('A' for Active; 'I' for Inactive)
REMARK    1  A    between atoms: C1_4  and  C2_6
REMARK    2  A    between atoms: C3_11  and  N5_12
REMARK    3  A    between atoms: N6_15  and  C4_16
REMARK    4  A    between atoms: C5_22  and  N9_23
REMARK       I    between atoms: N9_23  and  C6_25
REMARK       I    between atoms: C6_25  and  N10_26
REMARK       I    between atoms: C6_25  and  N11_30
REMARK    5  A    between atoms: N11_30  and  N12_31
ROOT
HETATM    1  C4  UNL     1      11.691  26.006  49.815  1.00  0.00     0.198 A
HETATM    2  N7  UNL     1      10.663  26.557  50.527  1.00  0.00    -0.221 N
ATOM      3  H7  UNL     1       9.682  26.501  50.254  1.00  0.00     0.198 HD
HETATM    4  O1  UNL     1      11.083  27.151  51.573  1.00  0.00    -0.153 OA
HETATM    5  N8  UNL     1      12.374  27.027  51.608  1.00  0.00    -0.222 N
ATOM      6  H8  UNL     1      12.971  27.409  52.341  1.00  0.00     0.198 HD
HETATM    7  C5  UNL     1      12.821  26.328  50.550  1.00  0.00     0.173 A
ENDROOT
BRANCH   1   8
HETATM    8  N6  UNL     1      11.638  25.275  48.613  1.00  0.00    -0.106 N
HETATM    9  C2  UNL     1      11.586  23.934  48.510  1.00  0.00     0.186 A
HETATM   10  N3  UNL     1      11.544  23.592  47.203  1.00  0.00    -0.267 N
HETATM   11  N4  UNL     1      11.570  24.697  46.492  1.00  0.00    -0.130 N
ATOM     12  H3  UNL     1      11.500  22.643  46.833  1.00  0.00     0.189 HD
HETATM   13  C3  UNL     1      11.627  25.740  47.362  1.00  0.00     0.700 A
ATOM     14  H4  UNL     1      11.550  24.760  45.474  1.00  0.00     0.205 HD
BRANCH   9  15
HETATM   15  C1  UNL     1      11.573  22.952  49.590  1.00  0.00     0.157 C
HETATM   16  N1  UNL     1      12.688  22.576  50.099  1.00  0.00    -0.385 N
ATOM     17  H12 UNL     1      12.679  21.889  50.854  1.00  0.00     0.157 HD
ATOM     18  H11 UNL     1      13.542  22.985  49.723  1.00  0.00     0.157 HD
HETATM   19  N2  UNL     1      10.383  22.383  50.113  1.00  0.00    -0.079 NA
ENDBRANCH   9  15
BRANCH  13  20
HETATM   20  N5  UNL     1      11.669  26.999  47.068  1.00  0.00    -0.233 N
ATOM     21  H52 UNL     1      10.845  27.545  46.817  1.00  0.00     0.174 HD
ATOM     22  H51 UNL     1      12.493  27.600  47.049  1.00  0.00     0.174 HD
ENDBRANCH  13  20
ENDBRANCH   1   8
BRANCH   7  23
HETATM   23  N9  UNL     1      14.030  26.004  50.244  1.00  0.00    -0.330 N
HETATM   24  C6  UNL     1      14.884  26.857  49.477  1.00  0.00     0.397 C
HETATM   25  N10 UNL     1      15.725  27.713  50.280  1.00  0.00    -0.042 N
HETATM   26  N11 UNL     1      15.798  26.037  48.665  1.00  0.00    -0.093 NA
ATOM     27 3H10 UNL     1      15.163  28.260  50.933  1.00  0.00     0.278 HD
ATOM     28 2H10 UNL     1      16.269  27.163  50.944  1.00  0.00     0.278 HD
ATOM     29 1H10 UNL     1      16.334  28.322  49.733  1.00  0.00     0.278 HD
ATOM     30  H9  UNL     1      14.391  25.106  50.562  1.00  0.00     0.164 HD
BRANCH  26  31
HETATM   31  N12 UNL     1      14.944  25.263  47.838  1.00  0.00    -0.345 N
ATOM     32 2H12 UNL     1      13.925  25.264  47.837  1.00  0.00     0.172 HD
ATOM     33 1H12 UNL     1      15.578  24.715  47.255  1.00  0.00     0.172 HD
ENDBRANCH  26  31
ENDBRANCH   7  23
TORSDOF 5
ENDMDL