MODEL 1
REMARK VINA RESULT: -7.172719066      0.000      0.000
REMARK  10 active torsions:
REMARK  status: ('A' for Active; 'I' for Inactive)
REMARK    1  A    between atoms: N1_1  and  C1_4
REMARK    2  A    between atoms: C2_7  and  S1_8
REMARK    3  A    between atoms: S1_8  and  C3_9
REMARK    4  A    between atoms: C4_13  and  N4_14
REMARK    5  A    between atoms: N4_14  and  C5_16
REMARK    6  A    between atoms: C5_16  and  N5_17
REMARK    7  A    between atoms: C5_16  and  C6_21
REMARK    8  A    between atoms: N5_17  and  O2_19
REMARK    9  A    between atoms: C6_21  and  N6_22
REMARK   10  A    between atoms: C6_21  and  N7_26
ROOT
HETATM    1  N4  UNL     1      -9.345  22.854 -10.964  1.00  0.00    -0.199 N
ATOM      2  H4  UNL     1      -9.488  23.623 -11.617  1.00  0.00     0.180 HD
ENDROOT
BRANCH   1   3
HETATM    3  C4  UNL     1      -8.972  21.708 -11.441  1.00  0.00     0.696 A
HETATM    4  N3  UNL     1      -7.753  21.194 -11.166  1.00  0.00    -0.169 N
HETATM    5  C2  UNL     1      -7.389  20.006 -11.671  1.00  0.00     0.181 A
ATOM      6  H3  UNL     1      -7.106  21.713 -10.572  1.00  0.00     0.186 HD
HETATM    7  N2  UNL     1      -8.220  19.302 -12.456  1.00  0.00    -0.169 N
HETATM    8  C1  UNL     1      -9.447  19.790 -12.748  1.00  0.00     0.692 A
ATOM      9  H2  UNL     1      -7.925  18.401 -12.832  1.00  0.00     0.186 HD
HETATM   10  N8  UNL     1      -9.798  20.992 -12.229  1.00  0.00    -0.022 N
ATOM     11  H8  UNL     1     -10.721  21.369 -12.443  1.00  0.00     0.203 HD
BRANCH   5  12
HETATM   12  S1  UNL     1      -5.761  19.366 -11.279  1.00  0.00    -0.024 SA
BRANCH  12  13
HETATM   13  C3  UNL     1      -5.010  20.260  -9.950  1.00  0.00     0.312 C
HETATM   14  O1  UNL     1      -5.009  19.777  -8.836  1.00  0.00    -0.295 OA
ENDBRANCH  12  13
ENDBRANCH   5  12
BRANCH   8  15
HETATM   15  N1  UNL     1     -10.271  19.140 -13.500  1.00  0.00    -0.234 N
ATOM     16  H12 UNL     1     -10.482  18.161 -13.306  1.00  0.00     0.174 HD
ATOM     17  H11 UNL     1     -10.728  19.582 -14.298  1.00  0.00     0.174 HD
ENDBRANCH   8  15
ENDBRANCH   1   3
BRANCH   1  18
HETATM   18  C5  UNL     1      -9.567  23.100  -9.576  1.00  0.00     0.278 C
BRANCH  18  19
HETATM   19  N5  UNL     1     -10.943  23.167  -9.233  1.00  0.00    -0.277 N
ATOM     20  H5  UNL     1     -11.565  22.364  -9.331  1.00  0.00     0.190 HD
BRANCH  19  21
HETATM   21  O2  UNL     1     -11.372  24.331  -8.779  1.00  0.00    -0.292 OA
ATOM     22  H2  UNL     1     -12.314  24.439  -8.735  1.00  0.00     0.244 HD
ENDBRANCH  19  21
ENDBRANCH  18  19
BRANCH  18  23
HETATM   23  C6  UNL     1      -8.766  24.308  -9.165  1.00  0.00     0.421 C
BRANCH  23  24
HETATM   24  N6  UNL     1      -8.302  24.154  -7.798  1.00  0.00    -0.047 N
ATOM     25  H63 UNL     1      -7.852  23.251  -7.647  1.00  0.00     0.276 HD
ATOM     26  H62 UNL     1      -7.504  24.755  -7.595  1.00  0.00     0.276 HD
ATOM     27  H61 UNL     1      -9.074  24.309  -7.149  1.00  0.00     0.276 HD
ENDBRANCH  23  24
BRANCH  23  28
HETATM   28  N7  UNL     1      -7.607  24.522  -9.993  1.00  0.00    -0.047 N
ATOM     29  H73 UNL     1      -6.956  23.740  -9.917  1.00  0.00     0.276 HD
ATOM     30  H72 UNL     1      -7.845  24.444 -10.982  1.00  0.00     0.276 HD
ATOM     31  H71 UNL     1      -7.138  25.407  -9.799  1.00  0.00     0.276 HD
ENDBRANCH  23  28
ENDBRANCH  18  23
ENDBRANCH   1  18
TORSDOF 10
ENDMDL