MODEL 3
REMARK VINA RESULT: -8.292125051      2.979      5.626
REMARK  7 active torsions:
REMARK  status: ('A' for Active; 'I' for Inactive)
REMARK       I    between atoms: C2_3  and  N2_5
REMARK    1  A    between atoms: N2_5  and  N3_7
REMARK    2  A    between atoms: C3_9  and  C4_10
REMARK    3  A    between atoms: C3_9  and  N5_15
REMARK    4  A    between atoms: C4_10  and  N4_11
REMARK    5  A    between atoms: N5_15  and  N6_17
REMARK    6  A    between atoms: N6_17  and  C5_19
REMARK    7  A    between atoms: C7_26  and  N10_27
ROOT
HETATM    1  N1  UNL     1     -15.135  24.754  -9.698  1.00  0.00    -0.186 NA
HETATM    2  C1  UNL     1     -14.015  24.926  -9.939  1.00  0.00     0.163 C
HETATM    3  C2  UNL     1     -12.632  25.126 -10.257  1.00  0.00     0.340 C
HETATM    4  O1  UNL     1     -12.338  25.934 -11.163  1.00  0.00    -0.254 OA
HETATM    5  N2  UNL     1     -11.653  24.398  -9.527  1.00  0.00    -0.256 N
ATOM      6  H2  UNL     1     -11.916  23.744  -8.791  1.00  0.00     0.191 HD
ENDROOT
BRANCH   5   7
HETATM    7  N3  UNL     1     -10.296  24.619  -9.866  1.00  0.00    -0.283 N
HETATM    8  C3  UNL     1      -9.386  23.901  -9.286  1.00  0.00     0.137 C
ATOM      9  H3  UNL     1     -10.039  25.329 -10.552  1.00  0.00     0.188 HD
BRANCH   8  10
HETATM   10  C4  UNL     1      -7.959  24.123  -9.634  1.00  0.00     0.308 C
BRANCH  10  11
HETATM   11  N4  UNL     1      -7.286  24.786  -8.509  1.00  0.00    -0.073 N
ATOM     12  H43 UNL     1      -6.970  25.727  -8.746  1.00  0.00     0.274 HD
ATOM     13  H42 UNL     1      -7.935  25.035  -7.763  1.00  0.00     0.274 HD
ATOM     14  H41 UNL     1      -6.524  24.193  -8.178  1.00  0.00     0.274 HD
ENDBRANCH  10  11
ENDBRANCH   8  10
BRANCH   8  15
HETATM   15  N5  UNL     1      -9.743  22.911  -8.330  1.00  0.00    -0.272 N
ATOM     16  H5  UNL     1     -10.003  23.196  -7.386  1.00  0.00     0.189 HD
BRANCH  15  17
HETATM   17  N6  UNL     1      -9.743  21.576  -8.657  1.00  0.00    -0.130 N
ATOM     18  H6  UNL     1     -10.495  20.997  -8.283  1.00  0.00     0.205 HD
BRANCH  17  19
HETATM   19  C5  UNL     1      -8.860  21.004  -9.402  1.00  0.00     0.713 A
HETATM   20  N7  UNL     1      -9.217  20.537 -10.607  1.00  0.00    -0.161 N
HETATM   21  C6  UNL     1      -8.325  19.925 -11.434  1.00  0.00     0.221 A
ATOM     22  H7  UNL     1     -10.184  20.644 -10.913  1.00  0.00     0.187 HD
HETATM   23  N8  UNL     1      -8.715  19.431 -12.716  1.00  0.00    -0.062 NA
HETATM   24  N9  UNL     1      -7.061  19.809 -10.984  1.00  0.00    -0.163 N
HETATM   25  C7  UNL     1      -6.701  20.277  -9.778  1.00  0.00     0.692 A
ATOM     26  H9  UNL     1      -6.362  19.357 -11.573  1.00  0.00     0.187 HD
HETATM   27  N11 UNL     1      -7.594  20.883  -8.962  1.00  0.00    -0.021 N
ATOM     28  H11 UNL     1      -7.318  21.236  -8.046  1.00  0.00     0.203 HD
BRANCH  25  29
HETATM   29  N10 UNL     1      -5.490  20.175  -9.325  1.00  0.00    -0.234 N
ATOM     30 2H10 UNL     1      -4.938  19.397  -9.687  1.00  0.00     0.174 HD
ATOM     31 1H10 UNL     1      -5.102  20.831  -8.647  1.00  0.00     0.174 HD
ENDBRANCH  25  29
ENDBRANCH  17  19
ENDBRANCH  15  17
ENDBRANCH   8  15
ENDBRANCH   5   7
TORSDOF 7
ENDMDL