MODEL 2
REMARK VINA RESULT: -7.779452740      1.308      2.008
REMARK  6 active torsions:
REMARK  status: ('A' for Active; 'I' for Inactive)
REMARK    1  A    between atoms: N1_1  and  N2_4
REMARK       I    between atoms: N2_4  and  C1_6
REMARK    2  A    between atoms: C1_6  and  C2_8
REMARK    3  A    between atoms: C2_8  and  N3_9
REMARK    4  A    between atoms: C2_8  and  C7_25
REMARK    5  A    between atoms: N3_9  and  C3_11
REMARK    6  A    between atoms: C4_14  and  N5_15
ROOT
HETATM    1  C2  UNL     1      -8.267  20.412 -11.294  1.00  0.00     0.262 C
ENDROOT
BRANCH   1   2
HETATM    2  C1  UNL     1      -8.365  19.450 -12.417  1.00  0.00     0.266 C
HETATM    3  N2  UNL     1      -9.608  19.145 -12.986  1.00  0.00    -0.275 N
ATOM      4  H2  UNL     1     -10.441  19.599 -12.612  1.00  0.00     0.189 HD
HETATM    5  O1  UNL     1      -7.328  18.911 -12.853  1.00  0.00    -0.269 OA
BRANCH   3   6
HETATM    6  N1  UNL     1      -9.753  18.246 -14.045  1.00  0.00    -0.343 N
ATOM      7  H12 UNL     1      -9.464  18.556 -14.972  1.00  0.00     0.176 HD
ATOM      8  H11 UNL     1     -10.131  17.307 -13.922  1.00  0.00     0.176 HD
ENDBRANCH   3   6
ENDBRANCH   1   2
BRANCH   1   9
HETATM    9  N3  UNL     1      -8.647  21.741 -11.662  1.00  0.00    -0.206 N
ATOM     10  H3  UNL     1      -8.586  22.003 -12.647  1.00  0.00     0.179 HD
BRANCH   9  11
HETATM   11  C3  UNL     1      -9.104  22.722 -10.731  1.00  0.00     0.674 C
HETATM   12  N4  UNL     1     -10.369  22.803 -10.484  1.00  0.00    -0.180 N
HETATM   13  C4  UNL     1     -11.058  23.708  -9.586  1.00  0.00     0.400 C
ATOM     14  H4  UNL     1     -10.962  22.141 -10.986  1.00  0.00     0.181 HD
HETATM   15  N6  UNL     1     -10.552  23.828  -8.298  1.00  0.00    -0.358 N
HETATM   16  C5  UNL     1      -9.191  23.757  -8.032  1.00  0.00     0.079 C
ATOM     17  H6  UNL     1     -11.201  23.972  -7.524  1.00  0.00     0.162 HD
HETATM   18  C6  UNL     1      -8.255  24.420  -8.987  1.00  0.00     0.182 C
HETATM   19  N7  UNL     1      -8.098  23.540 -10.148  1.00  0.00    -0.222 N
ATOM     20  H7  UNL     1      -7.175  23.512 -10.581  1.00  0.00     0.178 HD
BRANCH  13  21
HETATM   21  N5  UNL     1     -11.190  25.042 -10.180  1.00  0.00    -0.040 N
ATOM     22  H53 UNL     1     -12.166  25.274 -10.365  1.00  0.00     0.279 HD
ATOM     23  H52 UNL     1     -10.979  25.776  -9.504  1.00  0.00     0.279 HD
ATOM     24  H51 UNL     1     -10.618  25.130 -11.020  1.00  0.00     0.279 HD
ENDBRANCH  13  21
ENDBRANCH   9  11
ENDBRANCH   1   9
BRANCH   1  25
HETATM   25  C7  UNL     1      -6.850  20.413 -10.846  1.00  0.00     0.130 A
HETATM   26  N8  UNL     1      -6.371  20.005  -9.635  1.00  0.00    -0.338 N
HETATM   27  C8  UNL     1      -5.036  20.158  -9.605  1.00  0.00     0.198 A
ATOM     28  H8  UNL     1      -6.938  19.641  -8.870  1.00  0.00     0.168 HD
HETATM   29  N9  UNL     1      -4.668  20.658 -10.791  1.00  0.00    -0.295 N
HETATM   30  N10 UNL     1      -5.750  20.805 -11.516  1.00  0.00    -0.286 N
ATOM     31  H9  UNL     1      -3.716  20.885 -11.079  1.00  0.00     0.187 HD
ATOM     32  H10 UNL     1      -5.757  21.171 -12.468  1.00  0.00     0.188 HD
ENDBRANCH   1  25
TORSDOF 6
ENDMDL