MODEL 2
REMARK VINA RESULT: -7.814299847      2.854      4.614
REMARK  7 active torsions:
REMARK  status: ('A' for Active; 'I' for Inactive)
REMARK    1  A    between atoms: N1_1  and  N2_4
REMARK    2  A    between atoms: N2_4  and  C1_6
REMARK    3  A    between atoms: C2_7  and  C3_8
REMARK    4  A    between atoms: N3_9  and  N4_11
REMARK       I    between atoms: N4_11  and  C4_13
REMARK    5  A    between atoms: C5_18  and  C6_19
REMARK       I    between atoms: C6_19  and  N7_21
REMARK    6  A    between atoms: N7_21  and  N8_23
REMARK    7  A    between atoms: N9_27  and  N10_28
ROOT
HETATM    1  C1  UNL     1      -8.636  22.312 -10.286  1.00  0.00     0.169 A
HETATM    2  C2  UNL     1      -8.697  21.324 -11.248  1.00  0.00     0.097 A
HETATM    3  N6  UNL     1      -7.635  20.532 -11.431  1.00  0.00    -0.346 N
ATOM      4  H6  UNL     1      -7.690  19.805 -12.145  1.00  0.00     0.166 HD
HETATM    5  C5  UNL     1      -6.506  20.644 -10.726  1.00  0.00     0.120 A
HETATM    6  C7  UNL     1      -6.480  21.645  -9.770  1.00  0.00     0.153 A
HETATM    7  N9  UNL     1      -7.522  22.478  -9.539  1.00  0.00    -0.252 N
ENDROOT
BRANCH   2   8
HETATM    8  C3  UNL     1      -9.900  21.133 -12.066  1.00  0.00     0.140 C
HETATM    9  N3  UNL     1      -9.968  20.219 -12.970  1.00  0.00    -0.306 N
ATOM     10  H3  UNL     1      -9.164  19.610 -13.122  1.00  0.00     0.186 HD
BRANCH   9  11
HETATM   11  N4  UNL     1     -11.112  20.038 -13.749  1.00  0.00    -0.254 N
HETATM   12  C4  UNL     1     -11.090  19.097 -14.841  1.00  0.00     0.347 C
HETATM   13  N5  UNL     1     -12.253  18.912 -15.633  1.00  0.00    -0.038 NA
HETATM   14  O1  UNL     1     -10.049  18.451 -15.078  1.00  0.00    -0.249 OA
ATOM     15  H4  UNL     1     -11.959  20.568 -13.547  1.00  0.00     0.191 HD
ENDBRANCH   9  11
ENDBRANCH   2   8
BRANCH   1  16
HETATM   16  N2  UNL     1      -9.687  23.049 -10.150  1.00  0.00    -0.289 N
ATOM     17  H2  UNL     1      -9.774  23.867 -10.752  1.00  0.00     0.188 HD
BRANCH  16  18
HETATM   18  N1  UNL     1     -10.704  22.806  -9.242  1.00  0.00    -0.344 N
ATOM     19  H12 UNL     1     -10.457  22.856  -8.254  1.00  0.00     0.176 HD
ATOM     20  H11 UNL     1     -11.665  22.583  -9.498  1.00  0.00     0.176 HD
ENDBRANCH  16  18
ENDBRANCH   1  16
BRANCH   7  21
HETATM   21  N10 UNL     1      -7.481  23.479  -8.574  1.00  0.00    -0.337 N
ATOM     22 2H10 UNL     1      -8.295  24.048  -8.338  1.00  0.00     0.177 HD
ATOM     23 1H10 UNL     1      -6.612  23.665  -8.074  1.00  0.00     0.177 HD
ENDBRANCH   7  21
BRANCH   5  24
HETATM   24  C6  UNL     1      -5.391  19.746 -10.979  1.00  0.00     0.287 C
HETATM   25  O2  UNL     1      -4.242  20.133 -10.569  1.00  0.00    -0.264 OA
HETATM   26  N7  UNL     1      -5.529  18.493 -11.646  1.00  0.00    -0.271 N
ATOM     27  H7  UNL     1      -6.448  18.194 -11.970  1.00  0.00     0.189 HD
BRANCH  26  28
HETATM   28  N8  UNL     1      -4.432  17.678 -11.860  1.00  0.00    -0.342 N
ATOM     29  H82 UNL     1      -4.580  16.673 -11.940  1.00  0.00     0.176 HD
ATOM     30  H81 UNL     1      -3.494  18.073 -11.936  1.00  0.00     0.176 HD
ENDBRANCH  26  28
ENDBRANCH   5  24
TORSDOF 7
ENDMDL