MODEL 5
REMARK VINA RESULT: -7.747752916      1.957      2.280
REMARK  10 active torsions:
REMARK  status: ('A' for Active; 'I' for Inactive)
REMARK    1  A    between atoms: O1_2  and  C2_3
REMARK    2  A    between atoms: C2_3  and  S1_5
REMARK    3  A    between atoms: S1_5  and  N1_6
REMARK    4  A    between atoms: S1_5  and  N2_9
REMARK    5  A    between atoms: S1_5  and  O3_12
REMARK    6  A    between atoms: S1_5  and  N3_14
REMARK    7  A    between atoms: N3_14  and  N4_16
REMARK    8  A    between atoms: N4_16  and  C3_18
REMARK    9  A    between atoms: C4_23  and  N7_24
REMARK   10  A    between atoms: N8_27  and  N9_28
ROOT
HETATM    1  N3  UNL     1      -6.140  22.288  -8.310  1.00  0.00    -0.229 N
ATOM      2  H3  UNL     1      -5.537  21.912  -7.578  1.00  0.00     0.199 HD
ENDROOT
BRANCH   1   3
HETATM    3  S1  UNL     1      -6.374  21.338  -9.697  1.00  0.00     0.107 SA
BRANCH   3   4
HETATM    4  C2  UNL     1      -8.022  20.177  -9.955  1.00  0.00     0.369 C
HETATM    5  O2  UNL     1      -8.888  20.368  -9.087  1.00  0.00    -0.247 OA
BRANCH   4   6
HETATM    6  O1  UNL     1      -8.158  19.296 -10.958  1.00  0.00    -0.314 OA
HETATM    7  C1  UNL     1      -8.913  19.697 -12.124  1.00  0.00     0.214 C
ENDBRANCH   4   6
ENDBRANCH   3   4
BRANCH   3   8
HETATM    8  N1  UNL     1      -5.268  21.368 -11.276  1.00  0.00    -0.343 N
ATOM      9  H12 UNL     1      -4.906  22.227 -11.690  1.00  0.00     0.167 HD
ATOM     10  H11 UNL     1      -5.097  20.428 -11.636  1.00  0.00     0.167 HD
ENDBRANCH   3   8
BRANCH   3  11
HETATM   11  N2  UNL     1      -5.579  19.869  -9.153  1.00  0.00    -0.343 N
ATOM     12  H22 UNL     1      -5.362  18.955  -9.549  1.00  0.00     0.167 HD
ATOM     13  H21 UNL     1      -5.441  20.358  -8.268  1.00  0.00     0.167 HD
ENDBRANCH   3  11
BRANCH   3  14
HETATM   14  O3  UNL     1      -7.255  22.424 -10.527  1.00  0.00    -0.305 OA
ATOM     15  H3  UNL     1      -6.440  22.550 -10.998  1.00  0.00     0.230 HD
ENDBRANCH   3  14
ENDBRANCH   1   3
BRANCH   1  16
HETATM   16  N4  UNL     1      -6.722  23.572  -8.089  1.00  0.00    -0.120 N
ATOM     17  H4  UNL     1      -6.223  24.245  -7.506  1.00  0.00     0.206 HD
BRANCH  16  18
HETATM   18  C3  UNL     1      -7.965  23.946  -8.649  1.00  0.00     0.748 A
HETATM   19  N5  UNL     1      -8.139  24.825  -9.648  1.00  0.00    -0.114 N
HETATM   20  N6  UNL     1      -9.434  24.942  -9.927  1.00  0.00    -0.116 N
ATOM     21  H5  UNL     1      -7.390  25.327 -10.123  1.00  0.00     0.206 HD
HETATM   22  C4  UNL     1     -10.114  24.130  -9.102  1.00  0.00     0.727 A
ATOM     23  H6  UNL     1      -9.840  25.544 -10.643  1.00  0.00     0.206 HD
HETATM   24  N8  UNL     1      -9.189  23.520  -8.316  1.00  0.00     0.087 N
BRANCH  22  25
HETATM   25  N7  UNL     1     -11.385  23.942  -9.037  1.00  0.00    -0.231 N
ATOM     26  H72 UNL     1     -12.061  24.229  -9.745  1.00  0.00     0.174 HD
ATOM     27  H71 UNL     1     -11.921  23.489  -8.296  1.00  0.00     0.174 HD
ENDBRANCH  22  25
BRANCH  24  28
HETATM   28  N9  UNL     1      -9.466  22.599  -7.320  1.00  0.00    -0.309 N
ATOM     29  H92 UNL     1      -8.807  21.914  -6.948  1.00  0.00     0.178 HD
ATOM     30  H91 UNL     1     -10.364  22.502  -6.847  1.00  0.00     0.178 HD
ENDBRANCH  24  28
ENDBRANCH  16  18
ENDBRANCH   1  16
TORSDOF 10
ENDMDL