MODEL 4
REMARK VINA RESULT: -7.635327190      2.088      4.430
REMARK  6 active torsions:
REMARK  status: ('A' for Active; 'I' for Inactive)
REMARK    1  A    between atoms: N1_1  and  C1_4
REMARK    2  A    between atoms: C2_9  and  N4_10
REMARK    3  A    between atoms: N4_10  and  C3_12
REMARK    4  A    between atoms: C3_12  and  C4_13
REMARK    5  A    between atoms: C3_12  and  C5_18
REMARK    6  A    between atoms: C4_13  and  N5_14
REMARK       I    between atoms: C5_18  and  N6_20
ROOT
HETATM    1  C3  UNL     1      -8.690  23.179  -8.044  1.00  0.00     0.201 C
ENDROOT
BRANCH   1   2
HETATM    2  N4  UNL     1      -8.910  21.810  -8.261  1.00  0.00    -0.354 N
ATOM      3  H4  UNL     1      -8.901  21.168  -7.467  1.00  0.00     0.162 HD
BRANCH   2   4
HETATM    4  C2  UNL     1      -9.151  21.293  -9.593  1.00  0.00     0.163 A
HETATM    5  N3  UNL     1      -8.704  20.163 -10.107  1.00  0.00    -0.278 N
HETATM    6  N2  UNL     1      -9.052  19.846 -11.299  1.00  0.00    -0.278 N
ATOM      7  H3  UNL     1      -8.092  19.552  -9.565  1.00  0.00     0.189 HD
HETATM    8  C1  UNL     1      -9.861  20.678 -11.970  1.00  0.00     0.160 A
ATOM      9  H2  UNL     1      -8.722  18.981 -11.728  1.00  0.00     0.189 HD
HETATM   10  S1  UNL     1     -10.109  21.921 -10.839  1.00  0.00    -0.016 SA
BRANCH   8  11
HETATM   11  N1  UNL     1     -10.296  20.521 -13.194  1.00  0.00    -0.379 N
ATOM     12  H12 UNL     1     -10.497  19.681 -13.736  1.00  0.00     0.158 HD
ATOM     13  H11 UNL     1     -10.539  21.262 -13.851  1.00  0.00     0.158 HD
ENDBRANCH   8  11
ENDBRANCH   2   4
ENDBRANCH   1   2
BRANCH   1  14
HETATM   14  C4  UNL     1      -9.511  24.192  -8.733  1.00  0.00     0.264 C
BRANCH  14  15
HETATM   15  N5  UNL     1      -9.362  25.489  -7.995  1.00  0.00    -0.077 N
ATOM     16  H53 UNL     1      -9.241  26.286  -8.619  1.00  0.00     0.274 HD
ATOM     17  H52 UNL     1     -10.228  25.793  -7.551  1.00  0.00     0.274 HD
ATOM     18  H51 UNL     1      -8.594  25.386  -7.332  1.00  0.00     0.274 HD
ENDBRANCH  14  15
ENDBRANCH   1  14
BRANCH   1  19
HETATM   19  C5  UNL     1      -7.226  23.359  -8.434  1.00  0.00     0.248 C
HETATM   20  O1  UNL     1      -6.831  24.542  -8.710  1.00  0.00    -0.271 OA
HETATM   21  N6  UNL     1      -6.411  22.240  -8.440  1.00  0.00    -0.295 N
HETATM   22  C6  UNL     1      -5.838  21.642  -9.350  1.00  0.00     0.212 C
ATOM     23  H6  UNL     1      -6.258  21.835  -7.517  1.00  0.00     0.172 HD
HETATM   24  N7  UNL     1      -5.791  21.890 -10.739  1.00  0.00    -0.256 N
HETATM   25  N10 UNL     1      -4.984  20.484  -9.145  1.00  0.00    -0.256 N
HETATM   26  N8  UNL     1      -4.831  21.107 -11.315  1.00  0.00    -0.006 NA
ATOM     27  H7  UNL     1      -6.384  22.554 -11.238  1.00  0.00     0.187 HD
HETATM   28  N9  UNL     1      -4.257  20.309 -10.331  1.00  0.00    -0.006 NA
ATOM     29  H10 UNL     1      -4.925  19.911  -8.304  1.00  0.00     0.187 HD
ENDBRANCH   1  19
TORSDOF 6
ENDMDL