MODEL 4
REMARK VINA RESULT: -6.495201487      2.989      6.494
REMARK  4 active torsions:
REMARK  status: ('A' for Active; 'I' for Inactive)
REMARK    1  A    between atoms: N1_1  and  C1_4
REMARK       I    between atoms: N6_15  and  C5_17
REMARK       I    between atoms: C5_17  and  N7_18
REMARK       I    between atoms: C5_17  and  N8_22
REMARK    2  A    between atoms: N8_22  and  N9_23
REMARK    3  A    between atoms: N9_23  and  C6_24
REMARK    4  A    between atoms: C7_26  and  N10_27
ROOT
HETATM    1  C1  UNL     1     -10.712  24.231  -9.766  1.00  0.00     0.692 C
HETATM    2  N2  UNL     1      -9.574  24.797  -9.290  1.00  0.00    -0.021 N
ATOM      3  H2  UNL     1      -9.609  25.793  -9.071  1.00  0.00     0.203 HD
HETATM    4  C2  UNL     1      -8.392  24.161  -9.077  1.00  0.00     0.721 A
HETATM    5  N3  UNL     1      -7.422  24.629  -8.281  1.00  0.00    -0.184 N
ATOM      6  H3  UNL     1      -7.460  25.498  -7.748  1.00  0.00     0.185 HD
HETATM    7  C3  UNL     1      -6.390  23.769  -8.301  1.00  0.00     0.216 A
HETATM    8  N4  UNL     1      -6.764  22.755  -9.134  1.00  0.00    -0.273 N
ATOM      9  H4  UNL     1      -6.200  21.937  -9.365  1.00  0.00     0.189 HD
HETATM   10  N5  UNL     1      -7.968  23.005  -9.590  1.00  0.00    -0.065 N
HETATM   11  C4  UNL     1      -8.593  22.138 -10.441  1.00  0.00     0.188 C
HETATM   12  N6  UNL     1      -7.851  21.368 -11.039  1.00  0.00    -0.329 N
ATOM     13  H6  UNL     1      -6.877  21.522 -10.781  1.00  0.00     0.164 HD
HETATM   14  C5  UNL     1      -7.969  20.331 -11.983  1.00  0.00     0.412 C
HETATM   15  N7  UNL     1      -8.135  19.028 -11.271  1.00  0.00    -0.041 N
ATOM     16  H71 UNL     1      -8.221  18.276 -11.955  1.00  0.00     0.278 HD
ATOM     17  H72 UNL     1      -8.917  19.044 -10.616  1.00  0.00     0.278 HD
ATOM     18  H73 UNL     1      -7.386  18.856 -10.600  1.00  0.00     0.278 HD
HETATM   19  N8  UNL     1      -6.660  20.233 -12.701  1.00  0.00    -0.005 NA
HETATM   20  C7  UNL     1      -9.948  22.112 -10.617  1.00  0.00     0.161 C
HETATM   21  N11 UNL     1     -10.883  23.084 -10.437  1.00  0.00    -0.173 N
ATOM     22  H11 UNL     1     -11.800  22.924 -10.852  1.00  0.00     0.186 HD
ENDROOT
BRANCH  20  23
HETATM   23  N10 UNL     1     -10.430  21.010 -11.005  1.00  0.00    -0.382 N
ATOM     24 2H10 UNL     1      -9.791  20.223 -10.896  1.00  0.00     0.157 HD
ATOM     25 1H10 UNL     1     -11.380  21.048 -11.376  1.00  0.00     0.157 HD
ENDBRANCH  20  23
BRANCH  19  26
HETATM   26  N9  UNL     1      -5.884  19.258 -12.242  1.00  0.00    -0.301 NA
BRANCH  26  27
HETATM   27  C6  UNL     1      -5.110  18.300 -11.789  1.00  0.00     0.461 C
HETATM   28  O1  UNL     1      -4.497  17.372 -12.326  1.00  0.00    -0.267 OA
ENDBRANCH  26  27
ENDBRANCH  19  26
BRANCH   1  29
HETATM   29  N1  UNL     1     -11.802  24.902  -9.521  1.00  0.00    -0.234 N
ATOM     30  H12 UNL     1     -11.751  25.545  -8.730  1.00  0.00     0.174 HD
ATOM     31  H11 UNL     1     -12.576  24.710 -10.157  1.00  0.00     0.174 HD
ENDBRANCH   1  29
TORSDOF 4
ENDMDL