MODEL 3
REMARK VINA RESULT: -7.250845452      1.458      3.477
REMARK  9 active torsions:
REMARK  status: ('A' for Active; 'I' for Inactive)
REMARK       I    between atoms: N1_2  and  C2_3
REMARK    1  A    between atoms: N1_2  and  N4_10
REMARK    2  A    between atoms: C2_3  and  C3_5
REMARK    3  A    between atoms: C3_5  and  N2_6
REMARK    4  A    between atoms: N2_6  and  N3_7
REMARK    5  A    between atoms: N4_10  and  N5_11
REMARK    6  A    between atoms: N4_10  and  N6_14
REMARK    7  A    between atoms: N7_16  and  C4_18
REMARK    8  A    between atoms: C5_21  and  N9_22
REMARK    9  A    between atoms: C6_27  and  N11_28
ROOT
HETATM    1  N6  UNL     1      -8.800  21.384 -12.258  1.00  0.00    -0.192 N
ATOM      2  H6  UNL     1      -8.967  21.450 -13.263  1.00  0.00     0.212 HD
HETATM    3  N7  UNL     1      -9.277  22.310 -11.587  1.00  0.00    -0.114 N
ATOM      4  H7  UNL     1      -9.778  23.018 -12.123  1.00  0.00     0.207 HD
ENDROOT
BRANCH   3   5
HETATM    5  C4  UNL     1      -9.234  22.530 -10.208  1.00  0.00     0.727 A
HETATM    6  N8  UNL     1      -9.293  21.526  -9.318  1.00  0.00    -0.020 N
HETATM    7  C5  UNL     1      -9.246  21.747  -7.983  1.00  0.00     0.705 A
ATOM      8  H8  UNL     1      -9.375  20.568  -9.657  1.00  0.00     0.203 HD
HETATM    9  N10 UNL     1      -9.138  23.007  -7.527  1.00  0.00    -0.022 N
HETATM   10  C6  UNL     1      -9.077  24.034  -8.405  1.00  0.00     0.705 A
ATOM     11  H10 UNL     1      -9.102  23.188  -6.523  1.00  0.00     0.203 HD
HETATM   12  N12 UNL     1      -9.125  23.783  -9.731  1.00  0.00    -0.020 N
ATOM     13  H12 UNL     1      -9.079  24.563 -10.387  1.00  0.00     0.203 HD
BRANCH   7  14
HETATM   14  N9  UNL     1      -9.305  20.767  -7.136  1.00  0.00    -0.234 N
ATOM     15  H92 UNL     1      -8.992  19.839  -7.423  1.00  0.00     0.174 HD
ATOM     16  H91 UNL     1      -9.657  20.905  -6.189  1.00  0.00     0.174 HD
ENDBRANCH   7  14
BRANCH  10  17
HETATM   17  N11 UNL     1      -8.971  25.264  -7.989  1.00  0.00    -0.234 N
ATOM     18 2H11 UNL     1      -9.778  25.885  -8.047  1.00  0.00     0.174 HD
ATOM     19 1H11 UNL     1      -8.093  25.612  -7.605  1.00  0.00     0.174 HD
ENDBRANCH  10  17
ENDBRANCH   3   5
BRANCH   1  20
HETATM   20  N4  UNL     1      -8.082  20.286 -11.861  1.00  0.00    -0.118 N
BRANCH  20  21
HETATM   21  N1  UNL     1      -6.730  20.435 -11.511  1.00  0.00    -0.227 N
HETATM   22  C1  UNL     1      -5.786  20.864 -12.522  1.00  0.00     0.185 C
HETATM   23  C2  UNL     1      -6.276  20.180 -10.212  1.00  0.00     0.257 C
HETATM   24  O1  UNL     1      -7.081  19.810  -9.337  1.00  0.00    -0.270 OA
BRANCH  23  25
HETATM   25  C3  UNL     1      -4.856  20.341  -9.865  1.00  0.00     0.238 C
BRANCH  25  26
HETATM   26  N2  UNL     1      -4.681  21.293  -8.778  1.00  0.00    -0.139 NA
BRANCH  26  27
HETATM   27  N3  UNL     1      -5.478  22.405  -9.051  1.00  0.00    -0.348 N
ATOM     28  H32 UNL     1      -5.708  22.751  -9.983  1.00  0.00     0.172 HD
ATOM     29  H31 UNL     1      -5.782  22.799  -8.161  1.00  0.00     0.172 HD
ENDBRANCH  26  27
ENDBRANCH  25  26
ENDBRANCH  23  25
ENDBRANCH  20  21
BRANCH  20  30
HETATM   30  N5  UNL     1      -8.697  19.036 -11.802  1.00  0.00    -0.307 N
ATOM     31  H52 UNL     1      -9.597  18.890 -12.259  1.00  0.00     0.180 HD
ATOM     32  H51 UNL     1      -8.259  18.263 -11.302  1.00  0.00     0.180 HD
ENDBRANCH  20  30
ENDBRANCH   1  20
TORSDOF 9
ENDMDL