MODEL 3
REMARK VINA RESULT: -9.045530590      3.712      6.389
REMARK  5 active torsions:
REMARK  status: ('A' for Active; 'I' for Inactive)
REMARK    1  A    between atoms: N1_1  and  C1_4
REMARK    2  A    between atoms: C2_7  and  C3_8
REMARK    3  A    between atoms: C4_13  and  N5_14
REMARK    4  A    between atoms: N5_14  and  N6_16
REMARK    5  A    between atoms: N6_16  and  C5_18
ROOT
HETATM    1  C1  UNL     1      -8.731  20.993  -9.065  1.00  0.00     0.692 A
HETATM    2  N2  UNL     1      -7.405  21.069  -8.916  1.00  0.00    -0.171 N
ATOM      3  H2  UNL     1      -7.036  21.490  -8.064  1.00  0.00     0.186 HD
HETATM    4  C2  UNL     1      -6.539  20.619  -9.832  1.00  0.00     0.201 A
HETATM    5  N4  UNL     1      -7.020  20.065 -10.953  1.00  0.00    -0.169 N
ATOM      6  H4  UNL     1      -6.379  19.715 -11.666  1.00  0.00     0.186 HD
HETATM    7  C4  UNL     1      -8.353  19.971 -11.139  1.00  0.00     0.713 A
HETATM    8  N10 UNL     1      -9.207  20.437 -10.192  1.00  0.00    -0.021 N
ATOM      9  H10 UNL     1     -10.214  20.364 -10.336  1.00  0.00     0.203 HD
ENDROOT
BRANCH   7  10
HETATM   10  N5  UNL     1      -8.915  19.415 -12.302  1.00  0.00    -0.117 N
ATOM     11  H5  UNL     1      -8.467  18.609 -12.738  1.00  0.00     0.206 HD
BRANCH  10  12
HETATM   12  N6  UNL     1     -10.066  19.943 -12.868  1.00  0.00    -0.117 N
ATOM     13  H6  UNL     1     -10.530  20.749 -12.447  1.00  0.00     0.206 HD
BRANCH  12  14
HETATM   14  C5  UNL     1     -10.590  19.335 -14.054  1.00  0.00     0.705 A
HETATM   15  N7  UNL     1     -10.149  18.099 -14.395  1.00  0.00    -0.139 N
HETATM   16  C6  UNL     1     -10.625  17.502 -15.500  1.00  0.00     0.342 A
ATOM     17  H7  UNL     1      -9.458  17.625 -13.814  1.00  0.00     0.189 HD
HETATM   18  O2  UNL     1     -10.215  16.334 -15.825  1.00  0.00    -0.246 OA
HETATM   19  N8  UNL     1     -11.536  18.086 -16.299  1.00  0.00    -0.260 N
HETATM   20  C7  UNL     1     -11.974  19.316 -15.960  1.00  0.00     0.342 A
ATOM     21  H8  UNL     1     -11.885  17.615 -17.133  1.00  0.00     0.175 HD
HETATM   22  O3  UNL     1     -12.826  19.845 -16.721  1.00  0.00    -0.246 OA
HETATM   23  N9  UNL     1     -11.496  19.906 -14.857  1.00  0.00    -0.139 N
ATOM     24  H9  UNL     1     -11.839  20.836 -14.617  1.00  0.00     0.189 HD
ENDBRANCH  12  14
ENDBRANCH  10  12
ENDBRANCH   7  10
BRANCH   4  25
HETATM   25  C3  UNL     1      -5.102  20.728  -9.634  1.00  0.00     0.299 C
HETATM   26  N3  UNL     1      -4.202  20.167 -10.575  1.00  0.00    -0.054 NA
HETATM   27  O1  UNL     1      -4.681  21.328  -8.616  1.00  0.00    -0.268 OA
ENDBRANCH   4  25
BRANCH   1  28
HETATM   28  N1  UNL     1      -9.512  21.446  -8.139  1.00  0.00    -0.234 N
ATOM     29  H12 UNL     1      -9.150  21.850  -7.275  1.00  0.00     0.174 HD
ATOM     30  H11 UNL     1     -10.524  21.407  -8.262  1.00  0.00     0.174 HD
ENDBRANCH   1  28
TORSDOF 5
ENDMDL