MODEL 5
REMARK VINA RESULT: -7.895236309      0.991      1.047
REMARK  6 active torsions:
REMARK  status: ('A' for Active; 'I' for Inactive)
REMARK    1  A    between atoms: N1_1  and  C1_4
REMARK    2  A    between atoms: C2_7  and  C3_8
REMARK       I    between atoms: C3_8  and  N3_10
REMARK    3  A    between atoms: N3_10  and  N4_12
REMARK       I    between atoms: N4_12  and  C4_13
REMARK       I    between atoms: C4_13  and  N5_14
REMARK       I    between atoms: C4_13  and  N6_18
REMARK    4  A    between atoms: C5_22  and  N7_23
REMARK    5  A    between atoms: N8_26  and  C6_27
REMARK    6  A    between atoms: C6_27  and  O4_29
ROOT
HETATM    1  C1  UNL     1      -7.212  23.764  -8.926  1.00  0.00     0.688 A
HETATM    2  N2  UNL     1      -6.334  22.809  -9.101  1.00  0.00    -0.182 N
ATOM      3  H2  UNL     1      -5.338  22.915  -8.909  1.00  0.00     0.184 HD
HETATM    4  C2  UNL     1      -6.889  21.666  -9.565  1.00  0.00     0.169 A
HETATM    5  C5  UNL     1      -8.254  21.982  -9.671  1.00  0.00     0.232 A
HETATM    6  N8  UNL     1      -8.453  23.263  -9.285  1.00  0.00    -0.089 N
ENDROOT
BRANCH   4   7
HETATM    7  C3  UNL     1      -6.134  20.476  -9.815  1.00  0.00     0.288 C
HETATM    8  O1  UNL     1      -5.266  20.163  -8.900  1.00  0.00    -0.264 OA
HETATM    9  N3  UNL     1      -6.191  19.621 -10.893  1.00  0.00    -0.265 N
ATOM     10  H3  UNL     1      -6.845  19.824 -11.649  1.00  0.00     0.185 HD
BRANCH   9  11
HETATM   11  N4  UNL     1      -5.375  18.474 -10.990  1.00  0.00    -0.078 NA
HETATM   12  C4  UNL     1      -5.115  18.199 -12.376  1.00  0.00     0.490 C
HETATM   13  N5  UNL     1      -6.325  17.920 -13.124  1.00  0.00    -0.035 N
HETATM   14  N6  UNL     1      -4.165  17.143 -12.581  1.00  0.00    -0.035 N
ATOM     15  H53 UNL     1      -6.857  17.163 -12.693  1.00  0.00     0.278 HD
ATOM     16  H52 UNL     1      -7.003  18.676 -13.021  1.00  0.00     0.278 HD
ATOM     17  H51 UNL     1      -6.141  17.724 -14.108  1.00  0.00     0.278 HD
ATOM     18  H63 UNL     1      -3.297  17.337 -12.082  1.00  0.00     0.278 HD
ATOM     19  H62 UNL     1      -4.457  16.296 -12.092  1.00  0.00     0.278 HD
ATOM     20  H61 UNL     1      -3.981  16.947 -13.565  1.00  0.00     0.278 HD
ENDBRANCH   9  11
ENDBRANCH   4   7
BRANCH   5  21
HETATM   21  N7  UNL     1      -9.231  21.041 -10.009  1.00  0.00    -0.094 N
HETATM   22  O2  UNL     1     -10.470  21.351  -9.968  1.00  0.00    -0.530 OA
HETATM   23  O3  UNL     1      -9.043  19.789 -10.466  1.00  0.00    -0.530 OA
ENDBRANCH   5  21
BRANCH   1  24
HETATM   24  N1  UNL     1      -6.992  24.986  -8.492  1.00  0.00    -0.234 N
ATOM     25  H12 UNL     1      -6.073  25.424  -8.426  1.00  0.00     0.174 HD
ATOM     26  H11 UNL     1      -7.681  25.663  -8.165  1.00  0.00     0.174 HD
ENDBRANCH   1  24
BRANCH   6  27
HETATM   27  C6  UNL     1      -9.606  24.060  -9.203  1.00  0.00     0.253 C
HETATM   28  N9  UNL     1      -9.955  25.246  -9.867  1.00  0.00    -0.055 NA
BRANCH  27  29
HETATM   29  O4  UNL     1     -10.522  23.634  -8.366  1.00  0.00    -0.334 OA
ATOM     30  H4  UNL     1     -10.979  22.845  -8.633  1.00  0.00     0.220 HD
ENDBRANCH  27  29
ENDBRANCH   6  27
TORSDOF 6
ENDMDL