MODEL 1
REMARK VINA RESULT: -6.987349711      0.000      0.000
REMARK  10 active torsions:
REMARK  status: ('A' for Active; 'I' for Inactive)
REMARK    1  A    between atoms: C1_4  and  N2_5
REMARK    2  A    between atoms: C1_4  and  C2_11
REMARK    3  A    between atoms: N2_5  and  N3_7
REMARK    4  A    between atoms: N3_7  and  N4_8
REMARK    5  A    between atoms: N7_20  and  C7_21
REMARK    6  A    between atoms: C7_21  and  C8_22
REMARK    7  A    between atoms: C8_22  and  O1_23
REMARK    8  A    between atoms: C9_25  and  C10_26
REMARK       I    between atoms: C10_26  and  N8_28
REMARK    9  A    between atoms: N8_28  and  N9_30
REMARK   10  A    between atoms: N9_30  and  N10_31
ROOT
HETATM    1  C2  UNL     1     -13.952  -9.453  10.229  1.00  0.00     0.042 A
HETATM    2  C3  UNL     1     -14.296  -9.845   8.923  1.00  0.00     0.106 A
HETATM    3  N5  UNL     1     -13.433  -9.781   7.910  1.00  0.00    -0.349 N
ATOM      4  H5  UNL     1     -13.734 -10.079   6.982  1.00  0.00     0.167 HD
HETATM    5  C4  UNL     1     -12.184  -9.337   8.080  1.00  0.00     0.136 A
HETATM    6  C5  UNL     1     -11.818  -8.945   9.345  1.00  0.00     0.094 A
HETATM    7  N6  UNL     1     -10.561  -8.547   9.261  1.00  0.00    -0.348 N
ATOM      8  H6  UNL     1     -10.002  -8.196  10.039  1.00  0.00     0.167 HD
HETATM    9  C6  UNL     1     -10.131  -8.676   7.990  1.00  0.00     0.185 A
HETATM   10  N7  UNL     1     -11.137  -9.167   7.255  1.00  0.00    -0.325 N
HETATM   11  C9  UNL     1     -12.682  -8.988  10.448  1.00  0.00     0.079 A
ENDROOT
BRANCH   1  12
HETATM   12  C1  UNL     1     -14.926  -9.664  11.256  1.00  0.00     0.124 C
HETATM   13  N1  UNL     1     -16.121  -9.248  11.294  1.00  0.00    -0.384 N
ATOM     14  H12 UNL     1     -16.814  -9.399  12.026  1.00  0.00     0.157 HD
ATOM     15  H11 UNL     1     -16.394  -8.695  10.481  1.00  0.00     0.157 HD
BRANCH  12  16
HETATM   16  N2  UNL     1     -14.537 -10.452  12.414  1.00  0.00    -0.269 N
ATOM     17  H2  UNL     1     -14.201 -11.404  12.272  1.00  0.00     0.185 HD
BRANCH  16  18
HETATM   18  N3  UNL     1     -14.608  -9.955  13.702  1.00  0.00    -0.028 NA
BRANCH  18  19
HETATM   19  N4  UNL     1     -15.708 -10.463  14.353  1.00  0.00    -0.329 N
ATOM     20  H42 UNL     1     -15.988 -11.443  14.321  1.00  0.00     0.174 HD
ATOM     21  H41 UNL     1     -16.192  -9.724  14.863  1.00  0.00     0.174 HD
ENDBRANCH  18  19
ENDBRANCH  16  18
ENDBRANCH  12  16
ENDBRANCH   1  12
BRANCH  11  22
HETATM   22  C10 UNL     1     -12.206  -8.434  11.690  1.00  0.00     0.272 C
HETATM   23  O2  UNL     1     -11.085  -8.716  12.153  1.00  0.00    -0.266 OA
HETATM   24  N8  UNL     1     -12.994  -7.517  12.476  1.00  0.00    -0.250 N
ATOM     25  H8  UNL     1     -13.917  -7.254  12.132  1.00  0.00     0.187 HD
BRANCH  24  26
HETATM   26  N9  UNL     1     -12.559  -6.972  13.679  1.00  0.00    -0.027 NA
BRANCH  26  27
HETATM   27  N10 UNL     1     -12.774  -7.861  14.737  1.00  0.00    -0.329 N
ATOM     28 2H10 UNL     1     -12.648  -8.871  14.662  1.00  0.00     0.174 HD
ATOM     29 1H10 UNL     1     -13.068  -7.364  15.578  1.00  0.00     0.174 HD
ENDBRANCH  26  27
ENDBRANCH  24  26
ENDBRANCH  11  22
BRANCH  10  30
HETATM   30  C7  UNL     1     -11.076  -9.451   5.844  1.00  0.00     0.157 C
BRANCH  30  31
HETATM   31  C8  UNL     1     -10.612  -8.189   5.116  1.00  0.00     0.184 C
BRANCH  31  32
HETATM   32  O1  UNL     1     -10.598  -8.417   3.740  1.00  0.00    -0.399 OA
ATOM     33  H1  UNL     1      -9.703  -8.541   3.444  1.00  0.00     0.209 HD
ENDBRANCH  31  32
ENDBRANCH  30  31
ENDBRANCH  10  30
TORSDOF 10
ENDMDL