MODEL 5
REMARK VINA RESULT: -7.741632753      1.170      2.260
REMARK  9 active torsions:
REMARK  status: ('A' for Active; 'I' for Inactive)
REMARK    1  A    between atoms: N1_1  and  N2_4
REMARK    2  A    between atoms: N2_4  and  N3_6
REMARK    3  A    between atoms: N3_6  and  C1_8
REMARK    4  A    between atoms: N7_15  and  C2_16
REMARK    5  A    between atoms: C2_16  and  N8_17
REMARK    6  A    between atoms: N8_17  and  C3_19
REMARK    7  A    between atoms: C4_22  and  S1_23
REMARK    8  A    between atoms: S1_23  and  N10_24
REMARK    9  A    between atoms: C5_31  and  O3_32
ROOT
HETATM    1  N8  UNL     1     -13.435 -11.199  12.057  1.00  0.00    -0.333 N
ATOM      2  H8  UNL     1     -13.732 -12.158  11.879  1.00  0.00     0.168 HD
ENDROOT
BRANCH   1   3
HETATM    3  C2  UNL     1     -13.323 -10.737  13.389  1.00  0.00     0.229 C
BRANCH   3   4
HETATM    4  N7  UNL     1     -14.367  -9.932  13.909  1.00  0.00    -0.063 N
HETATM    5  C1  UNL     1     -14.259  -8.779  14.600  1.00  0.00     0.737 A
HETATM    6  N4  UNL     1     -15.473  -8.307  14.913  1.00  0.00    -0.113 N
HETATM    7  N5  UNL     1     -16.328  -9.198  14.398  1.00  0.00    -0.213 N
ATOM      8  H4  UNL     1     -15.697  -7.456  15.429  1.00  0.00     0.207 HD
HETATM    9  N6  UNL     1     -15.662 -10.153  13.807  1.00  0.00    -0.206 N
ATOM     10  H5  UNL     1     -17.345  -9.141  14.458  1.00  0.00     0.210 HD
ATOM     11  H6  UNL     1     -16.083 -10.953  13.336  1.00  0.00     0.211 HD
BRANCH   5  12
HETATM   12  N3  UNL     1     -13.160  -8.225  14.907  1.00  0.00    -0.115 N
ATOM     13  H3  UNL     1     -12.758  -8.469  15.812  1.00  0.00     0.207 HD
BRANCH  12  14
HETATM   14  N2  UNL     1     -12.458  -7.327  14.137  1.00  0.00    -0.235 N
ATOM     15  H2  UNL     1     -12.502  -6.325  14.323  1.00  0.00     0.208 HD
BRANCH  14  16
HETATM   16  N1  UNL     1     -11.676  -7.838  13.080  1.00  0.00    -0.330 N
ATOM     17  H12 UNL     1     -11.056  -7.221  12.556  1.00  0.00     0.178 HD
ATOM     18  H11 UNL     1     -11.754  -8.833  12.868  1.00  0.00     0.178 HD
ENDBRANCH  14  16
ENDBRANCH  12  14
ENDBRANCH   5  12
ENDBRANCH   3   4
ENDBRANCH   1   3
BRANCH   1  19
HETATM   19  C3  UNL     1     -13.138 -10.341  10.962  1.00  0.00     0.160 A
HETATM   20  N9  UNL     1     -12.039 -10.321  10.188  1.00  0.00    -0.314 N
HETATM   21  C4  UNL     1     -12.115  -9.381   9.252  1.00  0.00     0.227 A
ATOM     22  H9  UNL     1     -11.244 -10.949  10.304  1.00  0.00     0.170 HD
HETATM   23  N11 UNL     1     -13.291  -8.773   9.420  1.00  0.00    -0.309 N
HETATM   24  C5  UNL     1     -13.940  -9.329  10.448  1.00  0.00     0.187 A
ATOM     25  H11 UNL     1     -13.641  -8.002   8.851  1.00  0.00     0.170 HD
BRANCH  21  26
HETATM   26  S1  UNL     1     -10.858  -9.078   8.076  1.00  0.00     0.289 S
HETATM   27  O1  UNL     1     -10.274  -7.716   8.302  1.00  0.00    -0.198 OA
HETATM   28  O2  UNL     1      -9.757 -10.095   8.260  1.00  0.00    -0.198 OA
BRANCH  26  29
HETATM   29  N10 UNL     1     -11.570  -9.216   6.504  1.00  0.00    -0.322 N
ATOM     30 2H10 UNL     1     -11.789  -8.437   5.883  1.00  0.00     0.169 HD
ATOM     31 1H10 UNL     1     -11.725 -10.208   6.322  1.00  0.00     0.169 HD
ENDBRANCH  26  29
ENDBRANCH  21  26
BRANCH  24  32
HETATM   32  O3  UNL     1     -15.186  -8.962  10.914  1.00  0.00    -0.343 OA
ATOM     33  H3  UNL     1     -15.897  -8.608  10.393  1.00  0.00     0.219 HD
ENDBRANCH  24  32
ENDBRANCH   1  19
TORSDOF 9
ENDMDL