MODEL 2
REMARK VINA RESULT: -7.694547065      2.511      6.494
REMARK  10 active torsions:
REMARK  status: ('A' for Active; 'I' for Inactive)
REMARK    1  A    between atoms: C2_2  and  O1_3
REMARK    2  A    between atoms: C2_2  and  N1_5
REMARK    3  A    between atoms: N1_5  and  N2_6
REMARK    4  A    between atoms: N2_6  and  C3_7
REMARK    5  A    between atoms: C3_7  and  C4_8
REMARK    6  A    between atoms: C3_7  and  C5_11
REMARK    7  A    between atoms: C5_11  and  O3_12
REMARK    8  A    between atoms: C5_11  and  N4_14
REMARK    9  A    between atoms: C7_16  and  N5_17
REMARK   10  A    between atoms: N5_17  and  N6_19
ROOT
HETATM    1  N4  UNL     1     -11.640  -9.051   6.860  1.00  0.00    -0.264 N
HETATM    2  C6  UNL     1     -12.910  -9.436   6.510  1.00  0.00     0.152 A
HETATM    3  C7  UNL     1     -13.401  -9.424   5.238  1.00  0.00     0.137 A
HETATM    4  N7  UNL     1     -12.573  -9.006   4.262  1.00  0.00    -0.322 N
ATOM      5  H7  UNL     1     -12.906  -8.986   3.298  1.00  0.00     0.169 HD
HETATM    6  C8  UNL     1     -11.319  -8.617   4.530  1.00  0.00     0.170 A
HETATM    7  N8  UNL     1     -10.493  -8.208   3.630  1.00  0.00    -0.381 N
ATOM      8  H81 UNL     1      -9.539  -7.912   3.835  1.00  0.00     0.157 HD
ATOM      9  H82 UNL     1     -10.819  -8.183   2.663  1.00  0.00     0.157 HD
HETATM   10  C9  UNL     1     -10.869  -8.651   5.865  1.00  0.00     0.297 A
HETATM   11  O4  UNL     1      -9.675  -8.275   6.049  1.00  0.00    -0.263 OA
ENDROOT
BRANCH   1  12
HETATM   12  C5  UNL     1     -11.245  -9.138   8.196  1.00  0.00     0.155 C
BRANCH  12  13
HETATM   13  C3  UNL     1     -11.981  -8.583   9.323  1.00  0.00     0.259 C
BRANCH  13  14
HETATM   14  N2  UNL     1     -11.042  -8.396  10.488  1.00  0.00    -0.123 NA
BRANCH  14  15
HETATM   15  N1  UNL     1     -11.519  -7.281  11.154  1.00  0.00    -0.116 NA
BRANCH  15  16
HETATM   16  C2  UNL     1     -12.116  -7.567  12.434  1.00  0.00     0.223 C
HETATM   17  C1  UNL     1     -11.579  -8.860  13.000  1.00  0.00     0.059 C
BRANCH  16  18
HETATM   18  O1  UNL     1     -13.484  -7.508  12.442  1.00  0.00    -0.379 OA
ATOM     19  H1  UNL     1     -13.860  -7.508  11.569  1.00  0.00     0.211 HD
ENDBRANCH  16  18
ENDBRANCH  15  16
ENDBRANCH  14  15
ENDBRANCH  13  14
BRANCH  13  20
HETATM   20  C4  UNL     1     -12.903  -9.629   9.866  1.00  0.00     0.259 C
HETATM   21  N3  UNL     1     -14.282  -9.375  10.027  1.00  0.00    -0.060 NA
HETATM   22  O2  UNL     1     -12.476 -10.749  10.179  1.00  0.00    -0.274 OA
ENDBRANCH  13  20
ENDBRANCH  12  13
BRANCH  12  23
HETATM   23  O3  UNL     1     -10.126  -9.768   8.440  1.00  0.00    -0.347 OA
ATOM     24  H3  UNL     1      -9.907 -10.517   7.898  1.00  0.00     0.219 HD
ENDBRANCH  12  23
ENDBRANCH   1  12
BRANCH   3  25
HETATM   25  N5  UNL     1     -14.728  -9.827   4.926  1.00  0.00    -0.291 N
ATOM     26  H5  UNL     1     -15.199 -10.522   5.503  1.00  0.00     0.188 HD
BRANCH  25  27
HETATM   27  N6  UNL     1     -15.377  -9.275   3.840  1.00  0.00    -0.344 N
ATOM     28  H62 UNL     1     -14.878  -8.611   3.249  1.00  0.00     0.176 HD
ATOM     29  H61 UNL     1     -16.343  -9.533   3.640  1.00  0.00     0.176 HD
ENDBRANCH  25  27
ENDBRANCH   3  25
TORSDOF 10
ENDMDL