MODEL 5
REMARK VINA RESULT: -6.936299918      1.493      2.271
REMARK  9 active torsions:
REMARK  status: ('A' for Active; 'I' for Inactive)
REMARK    1  A    between atoms: N1_2  and  C2_3
REMARK    2  A    between atoms: N1_2  and  C4_13
REMARK    3  A    between atoms: C2_3  and  C3_4
REMARK    4  A    between atoms: C3_4  and  N2_5
REMARK    5  A    between atoms: C3_4  and  N3_9
REMARK    6  A    between atoms: N3_9  and  N4_10
REMARK    7  A    between atoms: C6_19  and  N7_20
REMARK    8  A    between atoms: N8_23  and  N9_24
REMARK    9  A    between atoms: C7_27  and  N10_28
ROOT
HETATM    1  C4  UNL     1     -12.957  -8.549  11.691  1.00  0.00     0.684 A
HETATM    2  N5  UNL     1     -13.686  -8.846  10.602  1.00  0.00    -0.175 N
ATOM      3  H5  UNL     1     -14.694  -8.954  10.716  1.00  0.00     0.186 HD
HETATM    4  C5  UNL     1     -13.176  -9.008   9.383  1.00  0.00     0.156 A
HETATM    5  N6  UNL     1     -13.977  -9.308   8.325  1.00  0.00    -0.173 N
ATOM      6  H6  UNL     1     -14.984  -9.414   8.452  1.00  0.00     0.186 HD
HETATM    7  C6  UNL     1     -13.428  -9.461   7.122  1.00  0.00     0.700 A
HETATM    8  N8  UNL     1     -12.103  -9.325   6.938  1.00  0.00    -0.076 N
HETATM    9  C7  UNL     1     -11.288  -9.029   7.959  1.00  0.00     0.158 A
HETATM   10  C8  UNL     1     -11.813  -8.861   9.226  1.00  0.00     0.123 A
HETATM   11  C9  UNL     1     -11.052  -8.560  10.315  1.00  0.00     0.277 A
HETATM   12  O1  UNL     1      -9.815  -8.428  10.172  1.00  0.00    -0.266 OA
HETATM   13  N11 UNL     1     -11.640  -8.409  11.534  1.00  0.00    -0.155 N
ATOM     14  H11 UNL     1     -11.062  -8.184  12.344  1.00  0.00     0.187 HD
ENDROOT
BRANCH   1  15
HETATM   15  N1  UNL     1     -13.633  -8.404  12.923  1.00  0.00    -0.218 N
HETATM   16  C1  UNL     1     -12.906  -8.084  14.131  1.00  0.00     0.168 C
BRANCH  15  17
HETATM   17  C2  UNL     1     -15.058  -8.560  13.031  1.00  0.00     0.192 C
BRANCH  17  18
HETATM   18  C3  UNL     1     -15.468  -9.529  14.101  1.00  0.00     0.313 C
BRANCH  18  19
HETATM   19  N2  UNL     1     -15.666 -10.870  13.657  1.00  0.00    -0.058 N
ATOM     20  H23 UNL     1     -16.522 -10.935  13.105  1.00  0.00     0.276 HD
ATOM     21  H22 UNL     1     -14.976 -11.111  12.946  1.00  0.00     0.276 HD
ATOM     22  H21 UNL     1     -15.670 -11.574  14.397  1.00  0.00     0.276 HD
ENDBRANCH  18  19
BRANCH  18  23
HETATM   23  N3  UNL     1     -16.723  -9.074  14.689  1.00  0.00    -0.113 NA
BRANCH  23  24
HETATM   24  N4  UNL     1     -17.331 -10.058  15.476  1.00  0.00    -0.346 N
ATOM     25  H42 UNL     1     -17.351 -11.044  15.215  1.00  0.00     0.172 HD
ATOM     26  H41 UNL     1     -17.744  -9.676  16.327  1.00  0.00     0.172 HD
ENDBRANCH  23  24
ENDBRANCH  18  23
ENDBRANCH  17  18
ENDBRANCH  15  17
ENDBRANCH   1  15
BRANCH   7  27
HETATM   27  N7  UNL     1     -14.191  -9.749   6.094  1.00  0.00    -0.233 N
ATOM     28  H72 UNL     1     -14.522  -8.995   5.493  1.00  0.00     0.174 HD
ATOM     29  H71 UNL     1     -14.442 -10.721   5.912  1.00  0.00     0.174 HD
ENDBRANCH   7  27
BRANCH   9  30
HETATM   30  N10 UNL     1     -10.006  -8.891   7.816  1.00  0.00    -0.383 N
ATOM     31 2H10 UNL     1      -9.546  -9.457   7.103  1.00  0.00     0.157 HD
ATOM     32 1H10 UNL     1      -9.454  -8.247   8.383  1.00  0.00     0.157 HD
ENDBRANCH   9  30
BRANCH   8  33
HETATM   33  N9  UNL     1     -11.538  -9.488   5.671  1.00  0.00    -0.322 N
ATOM     34  H92 UNL     1     -10.560  -9.771   5.614  1.00  0.00     0.178 HD
ATOM     35  H91 UNL     1     -12.091  -9.327   4.829  1.00  0.00     0.178 HD
ENDBRANCH   8  33
TORSDOF 9
ENDMDL