MODEL 1
REMARK VINA RESULT: -8.034961739      0.000      0.000
REMARK  8 active torsions:
REMARK  status: ('A' for Active; 'I' for Inactive)
REMARK    1  A    between atoms: C2_2  and  N3_8
REMARK    2  A    between atoms: N1_3  and  N2_5
REMARK       I    between atoms: N3_8  and  C3_10
REMARK       I    between atoms: C3_10  and  N4_11
REMARK       I    between atoms: C3_10  and  N5_15
REMARK    3  A    between atoms: N5_15  and  N6_17
REMARK    4  A    between atoms: N7_19  and  N8_21
REMARK    5  A    between atoms: N8_21  and  N9_22
REMARK    6  A    between atoms: N8_21  and  N10_25
REMARK    7  A    between atoms: N10_25  and  C4_27
REMARK    8  A    between atoms: N12_32  and  N13_33
ROOT
HETATM    1  N6  UNL     1     -11.619  -9.425   6.687  1.00  0.00    -0.227 N
ATOM      2  H6  UNL     1     -10.625  -9.652   6.709  1.00  0.00     0.209 HD
HETATM    3  N7  UNL     1     -12.296  -9.209   7.747  1.00  0.00    -0.192 N
ATOM      4  H7  UNL     1     -13.290  -8.983   7.704  1.00  0.00     0.213 HD
ENDROOT
BRANCH   3   5
HETATM    5  N8  UNL     1     -11.624  -9.293   8.967  1.00  0.00    -0.120 N
BRANCH   5   6
HETATM    6  N9  UNL     1     -10.444  -8.637   9.249  1.00  0.00    -0.308 N
ATOM      7  H92 UNL     1      -9.887  -8.289   8.468  1.00  0.00     0.180 HD
ATOM      8  H91 UNL     1     -10.088  -8.476  10.192  1.00  0.00     0.180 HD
ENDBRANCH   5   6
BRANCH   5   9
HETATM    9  N10 UNL     1     -12.191 -10.098   9.969  1.00  0.00    -0.243 N
ATOM     10  H10 UNL     1     -12.028 -11.105   9.938  1.00  0.00     0.192 HD
BRANCH   9  11
HETATM   11  C4  UNL     1     -12.977  -9.574  11.016  1.00  0.00     0.190 C
HETATM   12  N11 UNL     1     -14.253  -9.573  10.980  1.00  0.00    -0.369 N
HETATM   13  C5  UNL     1     -15.118  -9.066  11.985  1.00  0.00     0.143 C
ATOM     14  H11 UNL     1     -14.691  -9.973  10.151  1.00  0.00     0.161 HD
HETATM   15  C6  UNL     1     -14.468  -9.029  13.323  1.00  0.00     0.171 C
HETATM   16  N12 UNL     1     -13.115  -8.531  13.240  1.00  0.00    -0.259 N
HETATM   17  C7  UNL     1     -12.317  -9.033  12.190  1.00  0.00     0.306 C
HETATM   18  O1  UNL     1     -11.083  -9.013  12.268  1.00  0.00    -0.262 OA
BRANCH  16  19
HETATM   19  N13 UNL     1     -12.650  -7.611  14.155  1.00  0.00    -0.340 N
ATOM     20 2H13 UNL     1     -13.263  -7.130  14.813  1.00  0.00     0.177 HD
ATOM     21 1H13 UNL     1     -11.658  -7.381  14.200  1.00  0.00     0.177 HD
ENDBRANCH  16  19
ENDBRANCH   9  11
ENDBRANCH   5   9
ENDBRANCH   3   5
BRANCH   1  22
HETATM   22  N5  UNL     1     -12.348  -9.327   5.477  1.00  0.00    -0.274 N
HETATM   23  C3  UNL     1     -11.953  -8.372   4.487  1.00  0.00     0.403 C
HETATM   24  N3  UNL     1     -12.800  -8.457   3.336  1.00  0.00    -0.335 N
HETATM   25  N4  UNL     1     -10.538  -8.355   4.191  1.00  0.00    -0.039 N
ATOM     26  H3  UNL     1     -13.508  -7.729   3.245  1.00  0.00     0.164 HD
ATOM     27  H43 UNL     1     -10.284  -9.164   3.624  1.00  0.00     0.279 HD
ATOM     28  H42 UNL     1     -10.321  -7.605   3.534  1.00  0.00     0.279 HD
ATOM     29  H41 UNL     1      -9.935  -8.294   5.011  1.00  0.00     0.279 HD
ATOM     30  H5  UNL     1     -13.150  -9.935   5.312  1.00  0.00     0.186 HD
BRANCH  24  31
HETATM   31  C2  UNL     1     -12.772  -9.425   2.317  1.00  0.00     0.090 C
HETATM   32  C1  UNL     1     -13.933 -10.418   2.309  1.00  0.00     0.090 C
HETATM   33  N1  UNL     1     -11.936  -9.606   1.397  1.00  0.00    -0.296 N
ATOM     34  H1  UNL     1     -12.169 -10.392   0.789  1.00  0.00     0.187 HD
BRANCH  33  35
HETATM   35  N2  UNL     1     -10.780  -8.972   1.039  1.00  0.00    -0.344 N
ATOM     36  H22 UNL     1      -9.983  -9.292   1.590  1.00  0.00     0.176 HD
ATOM     37  H21 UNL     1     -10.558  -8.259   0.345  1.00  0.00     0.176 HD
ENDBRANCH  33  35
ENDBRANCH  24  31
ENDBRANCH   1  22
TORSDOF 8
ENDMDL