MODEL 2
REMARK VINA RESULT: -8.154127601      1.193      1.747
REMARK  7 active torsions:
REMARK  status: ('A' for Active; 'I' for Inactive)
REMARK    1  A    between atoms: C2_7  and  C3_8
REMARK    2  A    between atoms: C3_8  and  O1_9
REMARK    3  A    between atoms: O1_9  and  N3_10
REMARK       I    between atoms: N3_10  and  C4_12
REMARK    4  A    between atoms: C4_12  and  C5_14
REMARK    5  A    between atoms: N4_15  and  O3_17
REMARK    6  A    between atoms: N5_19  and  C6_20
REMARK    7  A    between atoms: C8_27  and  N8_28
ROOT
HETATM    1  N1  UNL     1     -13.189  -8.634  15.699  1.00  0.00    -0.370 N
ATOM      2  H11 UNL     1     -12.542  -9.271  16.163  1.00  0.00     0.159 HD
ATOM      3  H12 UNL     1     -13.539  -8.034  16.446  1.00  0.00     0.159 HD
HETATM    4  C1  UNL     1     -13.493  -8.601  14.448  1.00  0.00     0.190 C
HETATM    5  N2  UNL     1     -14.395  -7.714  13.803  1.00  0.00    -0.336 N
ATOM      6  H2  UNL     1     -14.661  -6.774  14.096  1.00  0.00     0.164 HD
HETATM    7  C2  UNL     1     -14.859  -8.446  12.623  1.00  0.00     0.253 C
HETATM    8  N5  UNL     1     -13.610  -9.043  12.196  1.00  0.00    -0.094 N
HETATM    9  N10 UNL     1     -12.999  -9.446  13.396  1.00  0.00    -0.253 N
ATOM     10  H10 UNL     1     -12.325 -10.204  13.501  1.00  0.00     0.191 HD
ENDROOT
BRANCH   8  11
HETATM   11  C6  UNL     1     -13.096  -9.194  10.876  1.00  0.00     0.719 A
HETATM   12  N6  UNL     1     -13.807  -9.790   9.903  1.00  0.00    -0.139 N
HETATM   13  C7  UNL     1     -13.342  -9.943   8.656  1.00  0.00     0.352 A
ATOM     14  H6  UNL     1     -14.740 -10.140  10.124  1.00  0.00     0.189 HD
HETATM   15  O4  UNL     1     -14.072 -10.510   7.811  1.00  0.00    -0.246 OA
HETATM   16  N7  UNL     1     -12.117  -9.479   8.376  1.00  0.00    -0.141 N
HETATM   17  C8  UNL     1     -11.350  -8.873   9.295  1.00  0.00     0.694 A
ATOM     18  H7  UNL     1     -11.754  -9.590   7.429  1.00  0.00     0.189 HD
HETATM   19  N9  UNL     1     -11.867  -8.744  10.542  1.00  0.00    -0.021 N
ATOM     20  H9  UNL     1     -11.303  -8.287  11.259  1.00  0.00     0.203 HD
BRANCH  17  21
HETATM   21  N8  UNL     1     -10.162  -8.423   9.023  1.00  0.00    -0.234 N
ATOM     22  H82 UNL     1      -9.946  -7.432   9.129  1.00  0.00     0.174 HD
ATOM     23  H81 UNL     1      -9.409  -9.030   8.698  1.00  0.00     0.174 HD
ENDBRANCH  17  21
ENDBRANCH   8  11
BRANCH   7  24
HETATM   24  C3  UNL     1     -15.828  -9.477  13.169  1.00  0.00     0.250 C
BRANCH  24  25
HETATM   25  O1  UNL     1     -16.591  -9.022  14.224  1.00  0.00    -0.274 OA
BRANCH  25  26
HETATM   26  N3  UNL     1     -16.921 -10.103  14.974  1.00  0.00    -0.230 N
HETATM   27  C4  UNL     1     -17.976 -10.102  15.898  1.00  0.00     0.282 C
HETATM   28  O2  UNL     1     -18.660  -9.017  16.034  1.00  0.00    -0.265 OA
ATOM     29  H3  UNL     1     -16.376 -10.957  14.861  1.00  0.00     0.197 HD
BRANCH  27  30
HETATM   30  C5  UNL     1     -18.360 -11.230  16.721  1.00  0.00     0.189 C
HETATM   31  N4  UNL     1     -19.447 -11.876  16.699  1.00  0.00    -0.275 N
ATOM     32  H4  UNL     1     -19.497 -12.637  17.376  1.00  0.00     0.193 HD
BRANCH  31  33
HETATM   33  O3  UNL     1     -20.544 -11.737  15.944  1.00  0.00    -0.290 OA
ATOM     34  H3  UNL     1     -21.405 -11.389  16.145  1.00  0.00     0.244 HD
ENDBRANCH  31  33
ENDBRANCH  27  30
ENDBRANCH  25  26
ENDBRANCH  24  25
ENDBRANCH   7  24
TORSDOF 7
ENDMDL