MODEL 3
REMARK VINA RESULT: -7.261199956      1.690      3.639
REMARK  9 active torsions:
REMARK  status: ('A' for Active; 'I' for Inactive)
REMARK    1  A    between atoms: N1_1  and  C1_4
REMARK    2  A    between atoms: C2_7  and  N3_8
REMARK    3  A    between atoms: C3_13  and  N5_14
REMARK    4  A    between atoms: N5_14  and  C4_16
REMARK    5  A    between atoms: C4_16  and  N6_17
REMARK    6  A    between atoms: N6_17  and  N7_19
REMARK    7  A    between atoms: N9_26  and  N10_27
REMARK    8  A    between atoms: N10_27  and  O4_28
REMARK    9  A    between atoms: O4_28  and  N11_29
ROOT
HETATM    1  N5  UNL     1     -13.141 -10.031  11.654  1.00  0.00    -0.174 N
ATOM      2  H5  UNL     1     -13.026 -10.982  12.002  1.00  0.00     0.182 HD
ENDROOT
BRANCH   1   3
HETATM    3  C3  UNL     1     -12.843  -9.863  10.422  1.00  0.00     0.710 A
HETATM    4  N4  UNL     1     -11.555  -9.581  10.054  1.00  0.00    -0.022 N
HETATM    5  C2  UNL     1     -11.242  -9.405   8.763  1.00  0.00     0.705 A
ATOM      6  H4  UNL     1     -10.829  -9.505  10.767  1.00  0.00     0.203 HD
HETATM    7  N2  UNL     1     -12.223  -9.511   7.833  1.00  0.00    -0.022 N
HETATM    8  C1  UNL     1     -13.482  -9.788   8.209  1.00  0.00     0.705 A
ATOM      9  H2  UNL     1     -12.003  -9.381   6.845  1.00  0.00     0.203 HD
HETATM   10  N12 UNL     1     -13.819  -9.969   9.505  1.00  0.00    -0.022 N
ATOM     11  H12 UNL     1     -14.779 -10.178   9.776  1.00  0.00     0.203 HD
BRANCH   5  12
HETATM   12  N3  UNL     1     -10.031  -9.140   8.411  1.00  0.00    -0.234 N
ATOM     13  H32 UNL     1      -9.268  -9.207   9.085  1.00  0.00     0.174 HD
ATOM     14  H31 UNL     1      -9.818  -8.861   7.454  1.00  0.00     0.174 HD
ENDBRANCH   5  12
BRANCH   8  15
HETATM   15  N1  UNL     1     -14.396  -9.883   7.305  1.00  0.00    -0.234 N
ATOM     16  H12 UNL     1     -15.310 -10.256   7.563  1.00  0.00     0.174 HD
ATOM     17  H11 UNL     1     -14.184  -9.584   6.354  1.00  0.00     0.174 HD
ENDBRANCH   8  15
ENDBRANCH   1   3
BRANCH   1  18
HETATM   18  C4  UNL     1     -13.605  -9.097  12.604  1.00  0.00     0.276 C
HETATM   19  C5  UNL     1     -13.109  -9.302  13.982  1.00  0.00     0.165 C
HETATM   20  N8  UNL     1     -13.011  -8.126  14.505  1.00  0.00    -0.255 N
HETATM   21  O3  UNL     1     -13.402  -7.163  13.578  1.00  0.00    -0.160 OA
ATOM     22  H8  UNL     1     -12.694  -7.931  15.454  1.00  0.00     0.195 HD
HETATM   23  N9  UNL     1     -13.055  -7.746  12.358  1.00  0.00     0.003 NA
BRANCH  18  24
HETATM   24  N6  UNL     1     -15.033  -8.904  12.628  1.00  0.00    -0.226 N
ATOM     25  H6  UNL     1     -15.452  -8.328  11.897  1.00  0.00     0.191 HD
BRANCH  24  26
HETATM   26  N7  UNL     1     -15.872  -9.454  13.585  1.00  0.00    -0.040 N
HETATM   27  O1  UNL     1     -16.165 -10.658  13.532  1.00  0.00    -0.517 OA
HETATM   28  O2  UNL     1     -16.356  -8.637  14.571  1.00  0.00    -0.517 OA
ENDBRANCH  24  26
ENDBRANCH  18  24
BRANCH  23  29
HETATM   29  N10 UNL     1     -11.657  -7.844  12.377  1.00  0.00     0.053 NA
BRANCH  29  30
HETATM   30  O4  UNL     1     -11.099  -7.091  11.390  1.00  0.00    -0.152 OA
BRANCH  30  31
HETATM   31  N11 UNL     1     -12.044  -6.484  10.637  1.00  0.00    -0.289 N
ATOM     32 2H11 UNL     1     -12.279  -6.775   9.688  1.00  0.00     0.186 HD
ATOM     33 1H11 UNL     1     -12.482  -5.711  11.139  1.00  0.00     0.186 HD
ENDBRANCH  30  31
ENDBRANCH  29  30
ENDBRANCH  23  29
ENDBRANCH   1  18
TORSDOF 9
ENDMDL