MODEL 2
REMARK VINA RESULT: -6.976041185      1.929      2.386
REMARK  10 active torsions:
REMARK  status: ('A' for Active; 'I' for Inactive)
REMARK    1  A    between atoms: N1_1  and  C1_4
REMARK    2  A    between atoms: C2_7  and  N3_8
REMARK    3  A    between atoms: N4_11  and  C3_12
REMARK    4  A    between atoms: C3_12  and  O1_13
REMARK    5  A    between atoms: C3_12  and  C4_15
REMARK    6  A    between atoms: C4_15  and  S1_16
REMARK    7  A    between atoms: C4_15  and  C6_19
REMARK    8  A    between atoms: S1_16  and  C5_17
REMARK    9  A    between atoms: C7_22  and  N5_23
REMARK   10  A    between atoms: N5_23  and  N6_25
ROOT
HETATM    1  C1  UNL     1     -15.577  -9.861  14.485  1.00  0.00     0.705 A
HETATM    2  N2  UNL     1     -15.377  -8.557  14.170  1.00  0.00    -0.022 N
ATOM      3  H2  UNL     1     -16.082  -7.867  14.427  1.00  0.00     0.203 HD
HETATM    4  C2  UNL     1     -14.265  -8.156  13.524  1.00  0.00     0.709 A
HETATM    5  N4  UNL     1     -13.307  -9.031  13.163  1.00  0.00     0.017 N
HETATM    6  C7  UNL     1     -13.510 -10.353  13.483  1.00  0.00     0.730 A
HETATM    7  N7  UNL     1     -14.619 -10.740  14.125  1.00  0.00    -0.020 N
ATOM      8  H7  UNL     1     -14.743 -11.727  14.349  1.00  0.00     0.203 HD
ENDROOT
BRANCH   5   9
HETATM    9  C3  UNL     1     -12.114  -8.702  12.488  1.00  0.00     0.286 C
BRANCH   9  10
HETATM   10  O1  UNL     1     -11.381  -7.679  13.139  1.00  0.00    -0.373 OA
ATOM     11  H1  UNL     1     -10.500  -7.948  13.369  1.00  0.00     0.212 HD
ENDBRANCH   9  10
BRANCH   9  12
HETATM   12  C4  UNL     1     -12.247  -8.277  11.061  1.00  0.00     0.205 C
BRANCH  12  13
HETATM   13  S1  UNL     1     -10.524  -8.263  10.404  1.00  0.00    -0.081 SA
BRANCH  13  14
HETATM   14  C5  UNL     1     -10.595  -8.652   8.683  1.00  0.00     0.305 C
HETATM   15  O2  UNL     1     -10.138  -7.830   7.884  1.00  0.00    -0.295 OA
ENDBRANCH  13  14
ENDBRANCH  12  13
BRANCH  12  16
HETATM   16  C6  UNL     1     -12.991  -9.220  10.213  1.00  0.00     0.192 C
HETATM   17  O3  UNL     1     -12.579 -10.429  10.222  1.00  0.00    -0.647 OA
HETATM   18  O4  UNL     1     -14.078  -8.861   9.435  1.00  0.00    -0.647 OA
ENDBRANCH  12  16
ENDBRANCH   9  12
ENDBRANCH   5   9
BRANCH   4  19
HETATM   19  N3  UNL     1     -14.113  -6.925  13.247  1.00  0.00    -0.233 N
ATOM     20  H32 UNL     1     -13.854  -6.278  13.992  1.00  0.00     0.174 HD
ATOM     21  H31 UNL     1     -14.252  -6.605  12.289  1.00  0.00     0.174 HD
ENDBRANCH   4  19
BRANCH   6  22
HETATM   22  N5  UNL     1     -12.641 -11.233  13.175  1.00  0.00    -0.137 N
ATOM     23  H5  UNL     1     -11.727 -11.146  13.619  1.00  0.00     0.205 HD
BRANCH  22  24
HETATM   24  N6  UNL     1     -12.806 -12.290  12.303  1.00  0.00    -0.331 N
ATOM     25  H62 UNL     1     -13.759 -12.443  11.975  1.00  0.00     0.177 HD
ATOM     26  H61 UNL     1     -12.081 -12.921  11.962  1.00  0.00     0.177 HD
ENDBRANCH  22  24
ENDBRANCH   6  22
BRANCH   1  27
HETATM   27  N1  UNL     1     -16.627 -10.265  15.099  1.00  0.00    -0.234 N
ATOM     28  H12 UNL     1     -17.330 -10.816  14.608  1.00  0.00     0.174 HD
ATOM     29  H11 UNL     1     -16.798 -10.057  16.082  1.00  0.00     0.174 HD
ENDBRANCH   1  27
TORSDOF 10
ENDMDL