MODEL 1
REMARK VINA RESULT: -7.063224308      0.000      0.000
REMARK  6 active torsions:
REMARK  status: ('A' for Active; 'I' for Inactive)
REMARK    1  A    between atoms: C2_4  and  N2_5
REMARK    2  A    between atoms: C2_4  and  C4_16
REMARK       I    between atoms: N2_5  and  C3_7
REMARK       I    between atoms: C3_7  and  N3_8
REMARK       I    between atoms: C3_7  and  N4_12
REMARK    3  A    between atoms: N4_12  and  N5_13
REMARK    4  A    between atoms: C4_16  and  N6_17
REMARK    5  A    between atoms: C4_16  and  C5_21
REMARK    6  A    between atoms: C5_21  and  N7_22
ROOT
HETATM    1  C4  UNL     1     -11.719  -8.615   9.815  1.00  0.00     0.289 C
ENDROOT
BRANCH   1   2
HETATM    2  C2  UNL     1     -11.871  -9.156   8.449  1.00  0.00     0.111 C
HETATM    3  N1  UNL     1     -12.819  -9.803   8.032  1.00  0.00    -0.382 N
HETATM    4  C1  UNL     1     -14.045 -10.343   8.356  1.00  0.00     0.147 C
ATOM      5  H1  UNL     1     -12.628 -10.035   7.058  1.00  0.00     0.160 HD
BRANCH   2   6
HETATM    6  N2  UNL     1     -10.797  -8.915   7.492  1.00  0.00    -0.337 N
HETATM    7  C3  UNL     1     -11.190  -8.540   6.153  1.00  0.00     0.397 C
HETATM    8  N3  UNL     1     -10.010  -8.319   5.312  1.00  0.00    -0.042 N
HETATM    9  N4  UNL     1     -11.940  -9.598   5.496  1.00  0.00    -0.093 NA
ATOM     10  H33 UNL     1      -9.374  -7.636   5.725  1.00  0.00     0.278 HD
ATOM     11  H32 UNL     1      -9.388  -9.127   5.312  1.00  0.00     0.278 HD
ATOM     12  H31 UNL     1     -10.287  -8.054   4.367  1.00  0.00     0.278 HD
ATOM     13  H2  UNL     1      -9.816  -9.006   7.755  1.00  0.00     0.164 HD
BRANCH   9  14
HETATM   14  N5  UNL     1     -12.315  -9.209   4.203  1.00  0.00    -0.345 N
ATOM     15  H52 UNL     1     -11.921  -9.610   3.352  1.00  0.00     0.172 HD
ATOM     16  H51 UNL     1     -13.026  -8.478   4.240  1.00  0.00     0.172 HD
ENDBRANCH   9  14
ENDBRANCH   2   6
ENDBRANCH   1   2
BRANCH   1  17
HETATM   17  N6  UNL     1     -10.290  -8.245   9.870  1.00  0.00    -0.064 N
ATOM     18  H63 UNL     1      -9.654  -9.026  10.030  1.00  0.00     0.275 HD
ATOM     19  H62 UNL     1      -9.888  -7.966   8.975  1.00  0.00     0.275 HD
ATOM     20  H61 UNL     1     -10.266  -7.523  10.590  1.00  0.00     0.275 HD
ENDBRANCH   1  17
BRANCH   1  21
HETATM   21  C5  UNL     1     -12.064  -9.508  10.894  1.00  0.00     0.126 C
BRANCH  21  22
HETATM   22  N7  UNL     1     -12.936  -9.077  11.954  1.00  0.00    -0.272 N
HETATM   23  N8  UNL     1     -14.171  -9.545  11.634  1.00  0.00    -0.270 N
HETATM   24  C6  UNL     1     -15.496  -9.510  12.108  1.00  0.00     0.203 C
ATOM     25  H8  UNL     1     -14.123 -10.098  10.779  1.00  0.00     0.190 HD
HETATM   26  N9  UNL     1     -16.489  -9.410  11.053  1.00  0.00    -0.062 NA
HETATM   27  N10 UNL     1     -16.047  -9.548  13.275  1.00  0.00    -0.362 N
HETATM   28  C7  UNL     1     -15.510  -9.642  14.588  1.00  0.00     0.150 C
ATOM     29  H10 UNL     1     -17.065  -9.502  13.250  1.00  0.00     0.162 HD
HETATM   30  C8  UNL     1     -14.274  -8.792  14.782  1.00  0.00     0.254 C
HETATM   31  N11 UNL     1     -13.190  -9.587  14.309  1.00  0.00    -0.051 N
HETATM   32  C9  UNL     1     -12.442  -8.964  13.236  1.00  0.00     0.301 C
ATOM     33 2H11 UNL     1     -12.571  -9.847  15.077  1.00  0.00     0.279 HD
ATOM     34 1H11 UNL     1     -13.516 -10.513  14.033  1.00  0.00     0.279 HD
HETATM   35  C10 UNL     1     -12.055  -7.581  13.733  1.00  0.00     0.065 C
ENDBRANCH  21  22
ENDBRANCH   1  21
TORSDOF 6
ENDMDL