MODEL 2
REMARK VINA RESULT: -8.613231729      0.878      1.134
REMARK  10 active torsions:
REMARK  status: ('A' for Active; 'I' for Inactive)
REMARK       I    between atoms: C2_2  and  N1_4
REMARK    1  A    between atoms: N1_4  and  N2_6
REMARK       I    between atoms: N2_6  and  C3_8
REMARK       I    between atoms: C3_8  and  N3_10
REMARK    2  A    between atoms: N3_10  and  N4_12
REMARK    3  A    between atoms: N4_12  and  C4_13
REMARK    4  A    between atoms: C4_13  and  O3_14
REMARK    5  A    between atoms: C4_13  and  C5_16
REMARK    6  A    between atoms: C5_16  and  N5_17
REMARK    7  A    between atoms: C5_16  and  C6_21
REMARK    8  A    between atoms: C7_24  and  C8_25
REMARK    9  A    between atoms: C8_25  and  N7_26
REMARK   10  A    between atoms: N7_26  and  O4_28
ROOT
HETATM    1  C5  UNL     1     -12.319  -9.661   9.582  1.00  0.00     0.297 C
ENDROOT
BRANCH   1   2
HETATM    2  C4  UNL     1     -11.500  -8.466   9.293  1.00  0.00     0.269 C
BRANCH   2   3
HETATM    3  N4  UNL     1     -10.219  -8.756   8.688  1.00  0.00    -0.102 NA
BRANCH   3   4
HETATM    4  N3  UNL     1     -10.195  -8.085   7.444  1.00  0.00    -0.252 N
HETATM    5  C3  UNL     1     -10.581  -8.780   6.250  1.00  0.00     0.350 C
HETATM    6  N2  UNL     1     -10.557  -8.114   5.008  1.00  0.00    -0.248 N
HETATM    7  O2  UNL     1     -10.947  -9.999   6.310  1.00  0.00    -0.244 OA
ATOM      8  H2  UNL     1     -10.265  -7.138   4.944  1.00  0.00     0.192 HD
ATOM      9  H3  UNL     1      -9.903  -7.109   7.395  1.00  0.00     0.187 HD
BRANCH   6  10
HETATM   10  N1  UNL     1     -10.942  -8.822   3.866  1.00  0.00    -0.266 N
HETATM   11  C2  UNL     1     -12.248  -8.694   3.380  1.00  0.00     0.232 C
HETATM   12  C1  UNL     1     -12.650  -9.452   2.162  1.00  0.00     0.119 C
HETATM   13  O1  UNL     1     -13.117  -7.970   3.908  1.00  0.00    -0.272 OA
ATOM     14  H1  UNL     1     -10.275  -9.429   3.390  1.00  0.00     0.190 HD
ENDBRANCH   6  10
ENDBRANCH   3   4
ENDBRANCH   2   3
BRANCH   2  15
HETATM   15  O3  UNL     1     -11.341  -7.559  10.305  1.00  0.00    -0.375 OA
ATOM     16  H3  UNL     1     -12.165  -7.440  10.763  1.00  0.00     0.211 HD
ENDBRANCH   2  15
ENDBRANCH   1   2
BRANCH   1  17
HETATM   17  N5  UNL     1     -13.321  -9.802   8.523  1.00  0.00    -0.064 N
ATOM     18  H53 UNL     1     -13.644  -8.903   8.167  1.00  0.00     0.275 HD
ATOM     19  H52 UNL     1     -12.925 -10.161   7.654  1.00  0.00     0.275 HD
ATOM     20  H51 UNL     1     -14.083 -10.382   8.875  1.00  0.00     0.275 HD
ENDBRANCH   1  17
BRANCH   1  21
HETATM   21  C6  UNL     1     -12.891  -9.749  10.935  1.00  0.00     0.132 A
HETATM   22  N6  UNL     1     -13.882  -8.996  11.440  1.00  0.00    -0.327 N
HETATM   23  C7  UNL     1     -14.149  -9.364  12.717  1.00  0.00     0.139 A
ATOM     24  H6  UNL     1     -14.364  -8.253  10.935  1.00  0.00     0.169 HD
HETATM   25  N8  UNL     1     -13.296 -10.365  12.994  1.00  0.00    -0.283 N
HETATM   26  N9  UNL     1     -12.555 -10.585  11.929  1.00  0.00    -0.285 N
ATOM     27  H8  UNL     1     -13.235 -10.869  13.879  1.00  0.00     0.188 HD
ATOM     28  H9  UNL     1     -11.824 -11.294  11.869  1.00  0.00     0.188 HD
BRANCH  23  29
HETATM   29  C8  UNL     1     -15.155  -8.797  13.608  1.00  0.00     0.163 C
BRANCH  29  30
HETATM   30  N7  UNL     1     -14.835  -8.191  14.688  1.00  0.00    -0.277 N
ATOM     31  H7  UNL     1     -15.253  -7.276  14.857  1.00  0.00     0.193 HD
BRANCH  30  32
HETATM   32  O4  UNL     1     -13.974  -8.677  15.632  1.00  0.00    -0.290 OA
ATOM     33  H4  UNL     1     -13.127  -8.301  15.840  1.00  0.00     0.244 HD
ENDBRANCH  30  32
ENDBRANCH  29  30
ENDBRANCH  23  29
ENDBRANCH   1  21
TORSDOF 10
ENDMDL