MODEL 3
REMARK VINA RESULT: -6.922317119      1.267      1.904
REMARK  8 active torsions:
REMARK  status: ('A' for Active; 'I' for Inactive)
REMARK    1  A    between atoms: C2_2  and  C3_3
REMARK    2  A    between atoms: C5_5  and  N1_6
REMARK    3  A    between atoms: C8_13  and  N3_14
REMARK    4  A    between atoms: N3_14  and  C9_16
REMARK    5  A    between atoms: C9_16  and  C11_18
REMARK    6  A    between atoms: C11_18  and  C12_19
REMARK    7  A    between atoms: C15_24  and  O2_25
REMARK    8  A    between atoms: C16_27  and  O3_28
ROOT
HETATM    1  N1  UNL     1      87.776  71.874  30.975  1.00  0.00    -0.293 N
HETATM    2  S1  UNL     1      89.141  72.130  31.888  1.00  0.00    -0.001 SA
HETATM    3  C6  UNL     1      88.918  70.481  32.165  1.00  0.00     0.135 A
HETATM    4  C7  UNL     1      89.281  69.269  32.747  1.00  0.00     0.281 A
HETATM    5  O1  UNL     1      90.305  69.295  33.477  1.00  0.00    -0.266 OA
HETATM    6  N2  UNL     1      88.560  68.172  32.519  1.00  0.00    -0.155 N
ATOM      7  H2  UNL     1      88.836  67.291  32.951  1.00  0.00     0.187 HD
HETATM    8  C8  UNL     1      87.486  68.210  31.737  1.00  0.00     0.683 A
HETATM    9  N4  UNL     1      87.147  69.410  31.175  1.00  0.00    -0.174 N
ATOM     10  H4  UNL     1      86.322  69.433  30.575  1.00  0.00     0.186 HD
HETATM   11  C14 UNL     1      87.824  70.570  31.354  1.00  0.00     0.154 A
ENDROOT
BRANCH   1  12
HETATM   12  C5  UNL     1      86.894  72.702  30.121  1.00  0.00     0.131 C
HETATM   13  C4  UNL     1      85.463  72.577  30.525  1.00  0.00     0.040 C
HETATM   14  C3  UNL     1      85.047  73.957  30.995  1.00  0.00     0.041 C
HETATM   15  C16 UNL     1      86.351  74.710  31.234  1.00  0.00     0.156 C
HETATM   16  C15 UNL     1      87.283  74.142  30.184  1.00  0.00     0.171 C
BRANCH  14  17
HETATM   17  C2  UNL     1      84.337  73.798  32.284  1.00  0.00    -0.030 C
HETATM   18  C1  UNL     1      83.425  72.857  32.408  1.00  0.00     0.007 C
ENDBRANCH  14  17
BRANCH  15  19
HETATM   19  O3  UNL     1      86.197  76.080  31.002  1.00  0.00    -0.392 OA
ATOM     20  H3  UNL     1      86.290  76.286  30.079  1.00  0.00     0.210 HD
ENDBRANCH  15  19
BRANCH  16  21
HETATM   21  O2  UNL     1      86.981  74.741  28.948  1.00  0.00    -0.391 OA
ATOM     22  H2  UNL     1      86.479  75.532  29.110  1.00  0.00     0.210 HD
ENDBRANCH  16  21
ENDBRANCH   1  12
BRANCH   8  23
HETATM   23  N3  UNL     1      86.731  67.248  31.449  1.00  0.00    -0.222 N
ATOM     24  H3  UNL     1      86.412  67.241  30.479  1.00  0.00     0.178 HD
BRANCH  23  25
HETATM   25  C9  UNL     1      86.242  66.171  32.232  1.00  0.00     0.095 C
HETATM   26  C10 UNL     1      84.860  66.475  32.672  1.00  0.00     0.032 C
BRANCH  25  27
HETATM   27  C11 UNL     1      86.521  64.897  31.526  1.00  0.00     0.025 C
BRANCH  27  28
HETATM   28  C12 UNL     1      87.924  64.428  31.442  1.00  0.00    -0.002 C
HETATM   29  C13 UNL     1      88.698  64.476  32.709  1.00  0.00     0.005 C
ENDBRANCH  27  28
ENDBRANCH  25  27
ENDBRANCH  23  25
ENDBRANCH   8  23
TORSDOF 8
ENDMDL