MODEL 4
REMARK VINA RESULT: -6.639435154      3.077      3.851
REMARK  8 active torsions:
REMARK  status: ('A' for Active; 'I' for Inactive)
REMARK    1  A    between atoms: O1_2  and  C2_3
REMARK    2  A    between atoms: C7_8  and  C8_9
REMARK    3  A    between atoms: C8_9  and  O2_10
REMARK    4  A    between atoms: O2_10  and  C9_11
REMARK    5  A    between atoms: C9_11  and  C12_14
REMARK    6  A    between atoms: C15_19  and  N2_20
REMARK    7  A    between atoms: C16_25  and  N4_26
REMARK    8  A    between atoms: C17_29  and  O3_30
ROOT
HETATM    1  C9  UNL     1      87.483  70.820  30.881  1.00  0.00     0.086 C
HETATM    2  C10 UNL     1      86.675  69.570  30.978  1.00  0.00     0.051 C
HETATM    3  C11 UNL     1      88.446  70.898  29.722  1.00  0.00     0.051 C
ENDROOT
BRANCH   1   4
HETATM    4  O2  UNL     1      88.354  70.759  32.010  1.00  0.00    -0.371 OA
BRANCH   4   5
HETATM    5  C8  UNL     1      89.566  70.227  31.605  1.00  0.00     0.210 C
BRANCH   5   6
HETATM    6  C7  UNL     1      90.053  69.109  32.411  1.00  0.00     0.002 A
HETATM    7  C6  UNL     1      89.308  68.316  33.256  1.00  0.00     0.019 A
HETATM    8  C4  UNL     1      89.884  67.270  33.979  1.00  0.00    -0.059 A
HETATM    9  C3  UNL     1      91.231  66.998  33.866  1.00  0.00     0.046 A
HETATM   10  C5  UNL     1      89.088  66.419  34.886  1.00  0.00     0.048 C
HETATM   11  C2  UNL     1      91.989  67.778  33.029  1.00  0.00     0.102 A
HETATM   12  C17 UNL     1      91.396  68.802  32.327  1.00  0.00     0.110 A
BRANCH  11  13
HETATM   13  O1  UNL     1      93.336  67.516  32.907  1.00  0.00    -0.353 OA
HETATM   14  C1  UNL     1      94.154  67.622  34.050  1.00  0.00     0.210 C
ENDBRANCH  11  13
BRANCH  12  15
HETATM   15  O3  UNL     1      92.193  69.564  31.497  1.00  0.00    -0.352 OA
HETATM   16  C18 UNL     1      92.904  70.647  32.067  1.00  0.00     0.210 C
ENDBRANCH  12  15
ENDBRANCH   5   6
ENDBRANCH   4   5
ENDBRANCH   1   4
BRANCH   1  17
HETATM   17  C12 UNL     1      86.694  72.051  30.910  1.00  0.00     0.042 A
HETATM   18  C13 UNL     1      85.406  72.061  30.465  1.00  0.00     0.035 A
HETATM   19  C14 UNL     1      84.704  70.919  29.954  1.00  0.00     0.069 C
HETATM   20  N1  UNL     1      84.724  73.239  30.511  1.00  0.00    -0.195 N
HETATM   21  C15 UNL     1      85.224  74.379  30.958  1.00  0.00     0.677 A
ATOM     22  H1  UNL     1      83.760  73.242  30.178  1.00  0.00     0.184 HD
HETATM   23  N3  UNL     1      86.473  74.397  31.398  1.00  0.00    -0.177 N
HETATM   24  C16 UNL     1      87.217  73.265  31.384  1.00  0.00     0.126 A
ATOM     25  H3  UNL     1      86.875  75.267  31.748  1.00  0.00     0.185 HD
BRANCH  21  26
HETATM   26  N2  UNL     1      84.498  75.457  30.966  1.00  0.00    -0.234 N
ATOM     27  H22 UNL     1      84.873  76.343  30.629  1.00  0.00     0.174 HD
ATOM     28  H21 UNL     1      83.539  75.430  31.314  1.00  0.00     0.174 HD
ENDBRANCH  21  26
BRANCH  24  29
HETATM   29  N4  UNL     1      88.412  73.311  31.810  1.00  0.00    -0.384 N
ATOM     30  H42 UNL     1      88.811  72.483  32.251  1.00  0.00     0.157 HD
ATOM     31  H41 UNL     1      88.953  74.169  31.705  1.00  0.00     0.157 HD
ENDBRANCH  24  29
ENDBRANCH   1  17
TORSDOF 8
ENDMDL