MODEL 4
REMARK VINA RESULT: -6.283765073      2.716      4.497
REMARK  8 active torsions:
REMARK  status: ('A' for Active; 'I' for Inactive)
REMARK    1  A    between atoms: C2_2  and  C3_3
REMARK    2  A    between atoms: C4_4  and  C5_5
REMARK    3  A    between atoms: C5_5  and  O1_6
REMARK    4  A    between atoms: C8_10  and  O3_11
REMARK    5  A    between atoms: C10_14  and  C12_16
REMARK    6  A    between atoms: C17_21  and  C18_22
REMARK    7  A    between atoms: C18_22  and  O4_23
REMARK    8  A    between atoms: C20_26  and  O5_27
ROOT
HETATM    1  C3  UNL     1      88.167  72.798  30.582  1.00  0.00    -0.024 C
HETATM    2  C4  UNL     1      89.052  73.242  31.681  1.00  0.00     0.177 C
HETATM    3  O2  UNL     1      89.420  72.201  32.547  1.00  0.00    -0.371 OA
HETATM    4  C7  UNL     1      88.922  71.040  32.145  1.00  0.00     0.159 C
HETATM    5  C8  UNL     1      89.621  69.796  32.778  1.00  0.00     0.153 C
HETATM    6  C9  UNL     1      88.913  68.804  31.890  1.00  0.00     0.036 C
HETATM    7  C10 UNL     1      88.831  67.408  32.245  1.00  0.00    -0.037 C
HETATM    8  C11 UNL     1      90.122  66.675  32.539  1.00  0.00     0.015 C
HETATM    9  C14 UNL     1      88.094  66.665  31.148  1.00  0.00     0.010 C
HETATM   10  C15 UNL     1      87.521  67.463  30.057  1.00  0.00     0.002 C
HETATM   11  C16 UNL     1      88.099  68.776  29.678  1.00  0.00     0.013 C
HETATM   12  C17 UNL     1      89.248  69.254  30.527  1.00  0.00    -0.004 C
HETATM   13  C19 UNL     1      89.351  70.740  30.720  1.00  0.00     0.061 C
HETATM   14  C20 UNL     1      88.763  71.656  29.750  1.00  0.00     0.157 C
ENDROOT
BRANCH   2  15
HETATM   15  C5  UNL     1      90.310  73.955  31.322  1.00  0.00     0.203 C
BRANCH  15  16
HETATM   16  O1  UNL     1      91.384  73.371  31.984  1.00  0.00    -0.393 OA
HETATM   17  C6  UNL     1      92.332  72.765  31.225  1.00  0.00     0.201 C
ENDBRANCH  15  16
ENDBRANCH   2  15
BRANCH   1  18
HETATM   18  C2  UNL     1      87.471  73.819  29.820  1.00  0.00    -0.023 C
HETATM   19  C1  UNL     1      86.761  74.943  30.437  1.00  0.00     0.036 C
ENDBRANCH   1  18
BRANCH  14  20
HETATM   20  O5  UNL     1      89.756  72.176  28.884  1.00  0.00    -0.391 OA
ATOM     21  H5  UNL     1      89.968  71.527  28.224  1.00  0.00     0.210 HD
ENDBRANCH  14  20
BRANCH   5  22
HETATM   22  O3  UNL     1      89.216  69.817  34.085  1.00  0.00    -0.393 OA
ATOM     23  H3  UNL     1      88.329  69.478  34.057  1.00  0.00     0.210 HD
ENDBRANCH   5  22
BRANCH  12  24
HETATM   24  C18 UNL     1      90.484  68.825  29.845  1.00  0.00     0.174 C
BRANCH  24  25
HETATM   25  O4  UNL     1      91.503  69.756  29.722  1.00  0.00    -0.400 OA
ATOM     26  H4  UNL     1      91.769  70.002  28.844  1.00  0.00     0.209 HD
ENDBRANCH  24  25
ENDBRANCH  12  24
BRANCH   7  27
HETATM   27  C12 UNL     1      88.014  67.211  33.526  1.00  0.00     0.005 C
HETATM   28  C13 UNL     1      88.702  66.488  34.601  1.00  0.00     0.006 C
ENDBRANCH   7  27
TORSDOF 8
ENDMDL