MODEL 2
REMARK VINA RESULT: -7.295103037      0.935      1.310
REMARK  7 active torsions:
REMARK  status: ('A' for Active; 'I' for Inactive)
REMARK    1  A    between atoms: C4_6  and  O1_7
REMARK    2  A    between atoms: C7_11  and  C8_12
REMARK    3  A    between atoms: C8_12  and  O3_14
REMARK    4  A    between atoms: O3_14  and  C9_15
REMARK    5  A    between atoms: C9_15  and  C10_16
REMARK    6  A    between atoms: C10_16  and  C11_17
REMARK    7  A    between atoms: C11_17  and  C12_18
ROOT
HETATM    1  C1  UNL     1      83.647  73.345  31.687  1.00  0.00     0.038 C
HETATM    2  C2  UNL     1      84.831  72.585  31.234  1.00  0.00    -0.004 C
HETATM    3  C3  UNL     1      85.978  73.206  31.070  1.00  0.00     0.037 C
HETATM    4  N1  UNL     1      86.406  74.547  31.233  1.00  0.00    -0.363 N
ATOM      5  H1  UNL     1      86.103  75.345  31.792  1.00  0.00     0.162 HD
HETATM    6  C4  UNL     1      87.460  74.300  30.263  1.00  0.00     0.254 C
HETATM    7  C5  UNL     1      87.352  72.862  30.653  1.00  0.00     0.150 C
HETATM    8  C6  UNL     1      88.257  72.471  31.748  1.00  0.00     0.027 C
HETATM    9  C7  UNL     1      89.116  71.435  31.687  1.00  0.00     0.042 C
HETATM   10  C14 UNL     1      89.113  70.675  30.426  1.00  0.00     0.079 C
HETATM   11  C15 UNL     1      90.343  69.914  30.096  1.00  0.00     0.033 C
HETATM   12  C16 UNL     1      90.158  68.396  30.223  1.00  0.00     0.002 C
HETATM   13  C17 UNL     1      89.187  67.900  29.173  1.00  0.00     0.000 C
HETATM   14  C18 UNL     1      88.013  68.868  29.170  1.00  0.00     0.002 C
HETATM   15  C19 UNL     1      87.961  69.677  30.421  1.00  0.00     0.033 C
HETATM   16  N2  UNL     1      88.787  71.647  29.358  1.00  0.00    -0.131 NA
HETATM   17  N3  UNL     1      87.445  71.967  29.517  1.00  0.00    -0.122 NA
ENDROOT
BRANCH   6  18
HETATM   18  O1  UNL     1      87.079  74.536  28.940  1.00  0.00    -0.374 OA
ATOM     19  H1  UNL     1      86.924  75.452  28.742  1.00  0.00     0.212 HD
ENDBRANCH   6  18
BRANCH   9  20
HETATM   20  C8  UNL     1      89.943  71.175  32.852  1.00  0.00     0.291 C
HETATM   21  O2  UNL     1      89.424  70.619  33.865  1.00  0.00    -0.260 OA
BRANCH  20  22
HETATM   22  O3  UNL     1      91.273  71.486  32.959  1.00  0.00    -0.318 OA
BRANCH  22  23
HETATM   23  C9  UNL     1      91.978  72.354  32.117  1.00  0.00     0.179 C
BRANCH  23  24
HETATM   24  C10 UNL     1      93.289  71.890  31.629  1.00  0.00     0.027 C
BRANCH  24  25
HETATM   25  C11 UNL     1      93.478  71.916  30.145  1.00  0.00     0.002 C
BRANCH  25  26
HETATM   26  C12 UNL     1      94.495  70.916  29.656  1.00  0.00    -0.004 C
HETATM   27  C13 UNL     1      95.341  70.372  30.787  1.00  0.00     0.005 C
ENDBRANCH  25  26
ENDBRANCH  24  25
ENDBRANCH  23  24
ENDBRANCH  22  23
ENDBRANCH  20  22
ENDBRANCH   9  20
TORSDOF 7
ENDMDL