MODEL 4
REMARK VINA RESULT: -6.855287781      0.912      1.788
REMARK  9 active torsions:
REMARK  status: ('A' for Active; 'I' for Inactive)
REMARK    1  A    between atoms: C3_4  and  C4_5
REMARK    2  A    between atoms: C3_4  and  C17_23
REMARK    3  A    between atoms: C5_6  and  C6_7
REMARK    4  A    between atoms: C7_8  and  C8_9
REMARK    5  A    between atoms: C10_12  and  O3_13
REMARK    6  A    between atoms: C10_12  and  C11_15
REMARK    7  A    between atoms: C14_18  and  O4_19
REMARK    8  A    between atoms: C17_23  and  O5_24
REMARK    9  A    between atoms: C19_27  and  O6_28
ROOT
HETATM    1  C6  UNL     1      90.224  71.410  32.882  1.00  0.00    -0.001 C
HETATM    2  C7  UNL     1      89.082  71.701  32.370  1.00  0.00     0.011 C
ENDROOT
BRANCH   2   3
HETATM    3  C8  UNL     1      88.378  71.217  31.195  1.00  0.00     0.085 C
HETATM    4  C9  UNL     1      88.456  69.701  31.078  1.00  0.00     0.051 C
HETATM    5  O2  UNL     1      86.994  71.511  31.397  1.00  0.00    -0.337 OA
HETATM    6  C10 UNL     1      86.775  72.803  31.000  1.00  0.00     0.192 C
HETATM    7  C14 UNL     1      87.927  73.252  30.166  1.00  0.00     0.187 C
HETATM    8  C15 UNL     1      88.611  71.920  29.914  1.00  0.00     0.054 C
HETATM    9  C16 UNL     1      89.976  72.035  29.392  1.00  0.00     0.016 C
BRANCH   6  10
HETATM   10  O3  UNL     1      86.610  73.707  32.066  1.00  0.00    -0.363 OA
ATOM     11  H3  UNL     1      87.209  73.562  32.790  1.00  0.00     0.213 HD
ENDBRANCH   6  10
BRANCH   6  12
HETATM   12  C11 UNL     1      85.450  72.831  30.254  1.00  0.00     0.043 C
HETATM   13  C12 UNL     1      84.742  71.512  30.278  1.00  0.00     0.015 C
HETATM   14  C13 UNL     1      84.582  73.996  30.646  1.00  0.00     0.015 C
ENDBRANCH   6  12
BRANCH   7  15
HETATM   15  O4  UNL     1      87.567  73.781  28.940  1.00  0.00    -0.390 OA
ATOM     16  H4  UNL     1      87.943  74.635  28.759  1.00  0.00     0.210 HD
ENDBRANCH   7  15
ENDBRANCH   2   3
BRANCH   1  17
HETATM   17  C5  UNL     1      91.232  70.453  32.429  1.00  0.00    -0.001 C
HETATM   18  C4  UNL     1      92.481  70.820  32.208  1.00  0.00     0.013 C
BRANCH  18  19
HETATM   19  C3  UNL     1      93.493  69.859  31.753  1.00  0.00     0.103 C
HETATM   20  O1  UNL     1      94.783  70.260  32.108  1.00  0.00    -0.366 OA
HETATM   21  C2  UNL     1      95.600  70.150  31.018  1.00  0.00     0.147 C
HETATM   22  C1  UNL     1      96.138  68.782  30.754  1.00  0.00     0.042 C
HETATM   23  C19 UNL     1      94.698  70.527  29.844  1.00  0.00     0.150 C
HETATM   24  C18 UNL     1      93.429  69.832  30.242  1.00  0.00     0.078 C
BRANCH  23  25
HETATM   25  O6  UNL     1      95.209  70.125  28.634  1.00  0.00    -0.393 OA
ATOM     26  H6  UNL     1      94.962  69.236  28.411  1.00  0.00     0.210 HD
ENDBRANCH  23  25
BRANCH  19  27
HETATM   27  C17 UNL     1      93.207  68.502  32.350  1.00  0.00     0.206 C
BRANCH  27  28
HETATM   28  O5  UNL     1      93.972  68.302  33.479  1.00  0.00    -0.398 OA
ATOM     29  H5  UNL     1      93.773  67.460  33.871  1.00  0.00     0.209 HD
ENDBRANCH  27  28
ENDBRANCH  19  27
ENDBRANCH  18  19
ENDBRANCH   1  17
TORSDOF 9
ENDMDL