MODEL 2
REMARK VINA RESULT: -6.673016790      3.138      5.553
REMARK  6 active torsions:
REMARK  status: ('A' for Active; 'I' for Inactive)
REMARK    1  A    between atoms: S1_2  and  C2_3
REMARK    2  A    between atoms: C2_3  and  C3_4
REMARK    3  A    between atoms: C6_13  and  C7_14
REMARK    4  A    between atoms: C7_14  and  C8_15
REMARK    5  A    between atoms: C9_16  and  N3_17
REMARK    6  A    between atoms: C12_22  and  N5_23
ROOT
HETATM    1  C8  UNL     1      84.680  71.305  30.352  1.00  0.00     0.032 A
HETATM    2  C9  UNL     1      84.012  72.337  30.989  1.00  0.00     0.130 A
HETATM    3  N4  UNL     1      82.816  72.139  31.611  1.00  0.00    -0.176 N
ATOM      4  H4  UNL     1      82.344  72.919  32.070  1.00  0.00     0.186 HD
HETATM    5  C12 UNL     1      82.264  70.937  31.621  1.00  0.00     0.677 A
HETATM    6  N6  UNL     1      82.901  69.936  31.012  1.00  0.00    -0.195 N
ATOM      7  H6  UNL     1      82.464  69.014  31.028  1.00  0.00     0.184 HD
HETATM    8  C13 UNL     1      84.081  70.058  30.378  1.00  0.00     0.036 A
HETATM    9  C14 UNL     1      84.701  68.862  29.721  1.00  0.00     0.070 C
ENDROOT
BRANCH   1  10
HETATM   10  C7  UNL     1      85.891  71.590  29.609  1.00  0.00     0.036 C
BRANCH  10  11
HETATM   11  C6  UNL     1      87.153  71.860  30.246  1.00  0.00     0.056 A
HETATM   12  C3  UNL     1      87.838  71.011  31.065  1.00  0.00     0.036 A
HETATM   13  N1  UNL     1      89.036  71.424  31.526  1.00  0.00    -0.335 N
HETATM   14  C4  UNL     1      89.598  72.615  31.229  1.00  0.00     0.178 A
ATOM     15  H1  UNL     1      89.552  70.794  32.141  1.00  0.00     0.168 HD
HETATM   16  S2  UNL     1      91.045  73.048  31.820  1.00  0.00    -0.040 SA
HETATM   17  N2  UNL     1      88.942  73.458  30.425  1.00  0.00    -0.299 N
HETATM   18  C5  UNL     1      87.760  73.081  29.956  1.00  0.00     0.259 A
ATOM     19  H2  UNL     1      89.339  74.366  30.180  1.00  0.00     0.171 HD
HETATM   20  O1  UNL     1      87.182  73.933  29.184  1.00  0.00    -0.267 OA
BRANCH  12  21
HETATM   21  C2  UNL     1      87.294  69.680  31.458  1.00  0.00     0.131 C
BRANCH  21  22
HETATM   22  S1  UNL     1      88.426  68.880  32.580  1.00  0.00    -0.168 SA
HETATM   23  C1  UNL     1      87.871  67.348  33.305  1.00  0.00     0.090 C
ENDBRANCH  21  22
ENDBRANCH  12  21
ENDBRANCH  10  11
ENDBRANCH   1  10
BRANCH   2  24
HETATM   24  N3  UNL     1      84.511  73.653  31.178  1.00  0.00    -0.375 N
HETATM   25  C10 UNL     1      85.161  73.989  32.414  1.00  0.00     0.150 C
HETATM   26  C11 UNL     1      84.327  74.646  30.169  1.00  0.00     0.150 C
ENDBRANCH   2  24
BRANCH   5  27
HETATM   27  N5  UNL     1      81.115  70.781  32.224  1.00  0.00    -0.234 N
ATOM     28  H52 UNL     1      80.461  70.035  31.985  1.00  0.00     0.174 HD
ATOM     29  H51 UNL     1      80.860  71.436  32.964  1.00  0.00     0.174 HD
ENDBRANCH   5  27
TORSDOF 6
ENDMDL