MODEL 1
REMARK VINA RESULT: -7.218289694      0.000      0.000
REMARK  7 active torsions:
REMARK  status: ('A' for Active; 'I' for Inactive)
REMARK    1  A    between atoms: C4_4  and  C5_5
REMARK    2  A    between atoms: C5_5  and  C6_6
REMARK    3  A    between atoms: C6_6  and  C7_7
REMARK    4  A    between atoms: C8_8  and  C9_9
REMARK    5  A    between atoms: C9_9  and  O1_10
REMARK    6  A    between atoms: N1_12  and  O2_14
REMARK    7  A    between atoms: C12_20  and  C13_21
ROOT
HETATM    1  C7  UNL     1      89.177  72.004  30.100  1.00  0.00     0.037 C
HETATM    2  C8  UNL     1      87.989  72.812  30.339  1.00  0.00     0.072 C
HETATM    3  C10 UNL     1      88.292  72.717  31.855  1.00  0.00     0.057 C
HETATM    4  C11 UNL     1      89.121  71.512  31.529  1.00  0.00     0.091 C
HETATM    5  N2  UNL     1      88.409  70.314  31.729  1.00  0.00    -0.389 N
ATOM      6  H2  UNL     1      87.406  70.295  31.545  1.00  0.00     0.155 HD
HETATM    7  C12 UNL     1      89.042  69.150  32.173  1.00  0.00     0.190 C
HETATM    8  C14 UNL     1      90.265  68.715  31.350  1.00  0.00     0.122 C
HETATM    9  S1  UNL     1      91.653  69.692  32.062  1.00  0.00    -0.092 SA
HETATM   10  S2  UNL     1      90.720  71.611  32.370  1.00  0.00    -0.066 SA
ENDROOT
BRANCH   1  11
HETATM   11  C6  UNL     1      90.506  72.545  29.771  1.00  0.00     0.009 C
BRANCH  11  12
HETATM   12  C5  UNL     1      91.261  71.961  28.644  1.00  0.00     0.005 C
BRANCH  12  13
HETATM   13  C4  UNL     1      90.666  70.571  28.364  1.00  0.00    -0.010 A
HETATM   14  C2  UNL     1      90.893  70.083  26.967  1.00  0.00    -0.014 A
HETATM   15  C1  UNL     1      89.830  69.217  26.313  1.00  0.00     0.010 C
HETATM   16  C3  UNL     1      91.650  69.438  28.095  1.00  0.00     0.009 A
ENDBRANCH  12  13
ENDBRANCH  11  12
ENDBRANCH   1  11
BRANCH   2  17
HETATM   17  C9  UNL     1      87.835  74.187  29.901  1.00  0.00     0.140 C
HETATM   18  N1  UNL     1      88.347  75.146  30.563  1.00  0.00    -0.251 N
ATOM     19  H1  UNL     1      88.872  74.933  31.411  1.00  0.00     0.196 HD
BRANCH  17  20
HETATM   20  O1  UNL     1      87.128  74.472  28.757  1.00  0.00    -0.348 OA
ATOM     21  H1  UNL     1      86.393  73.926  28.502  1.00  0.00     0.219 HD
ENDBRANCH  17  20
BRANCH  18  22
HETATM   22  O2  UNL     1      88.219  76.467  30.174  1.00  0.00    -0.288 OA
ATOM     23  H2  UNL     1      88.894  77.114  30.339  1.00  0.00     0.244 HD
ENDBRANCH  18  22
ENDBRANCH   2  17
BRANCH   7  24
HETATM   24  C13 UNL     1      89.323  69.059  33.609  1.00  0.00     0.197 C
HETATM   25  O3  UNL     1      88.997  69.958  34.403  1.00  0.00    -0.646 OA
HETATM   26  O4  UNL     1      89.968  67.945  34.098  1.00  0.00    -0.646 OA
ENDBRANCH   7  24
TORSDOF 7
ENDMDL