MODEL 4
REMARK VINA RESULT: -6.810928798      3.713      4.519
REMARK  9 active torsions:
REMARK  status: ('A' for Active; 'I' for Inactive)
REMARK    1  A    between atoms: C2_2  and  C3_3
REMARK    2  A    between atoms: C5_6  and  C6_7
REMARK    3  A    between atoms: C7_10  and  S1_11
REMARK    4  A    between atoms: S1_11  and  C8_12
REMARK    5  A    between atoms: C10_14  and  N2_15
REMARK    6  A    between atoms: N2_15  and  N3_17
REMARK    7  A    between atoms: C11_25  and  C12_26
REMARK    8  A    between atoms: C12_26  and  O3_27
REMARK    9  A    between atoms: C13_29  and  O4_30
ROOT
HETATM    1  C8  UNL     1      88.532  70.865  31.088  1.00  0.00     0.088 C
HETATM    2  C9  UNL     1      87.901  71.828  30.122  1.00  0.00     0.073 C
HETATM    3  C10 UNL     1      87.887  73.149  30.851  1.00  0.00     0.301 C
HETATM    4  N5  UNL     1      88.780  73.016  31.973  1.00  0.00    -0.046 N
ATOM      5  H51 UNL     1      88.570  73.647  32.746  1.00  0.00     0.280 HD
ATOM      6  H52 UNL     1      89.723  73.361  31.794  1.00  0.00     0.280 HD
HETATM    7  C11 UNL     1      88.726  71.643  32.322  1.00  0.00     0.226 C
ENDROOT
BRANCH   1   8
HETATM    8  S1  UNL     1      89.829  69.880  30.439  1.00  0.00    -0.122 SA
BRANCH   8   9
HETATM    9  C7  UNL     1      90.030  69.754  28.713  1.00  0.00     0.043 C
HETATM   10  C5  UNL     1      91.006  70.362  28.031  1.00  0.00     0.124 C
HETATM   11  N1  UNL     1      90.932  70.085  26.657  1.00  0.00    -0.359 N
HETATM   12  C4  UNL     1      90.977  70.003  25.228  1.00  0.00     0.160 C
HETATM   13  C14 UNL     1      90.185  68.809  26.601  1.00  0.00     0.149 C
HETATM   14  C3  UNL     1      89.692  69.262  25.288  1.00  0.00    -0.041 C
HETATM   15  C13 UNL     1      89.211  68.999  27.754  1.00  0.00     0.187 C
BRANCH  10  16
HETATM   16  C6  UNL     1      92.051  71.230  28.636  1.00  0.00     0.227 C
HETATM   17  O1  UNL     1      93.141  70.751  28.998  1.00  0.00    -0.643 OA
HETATM   18  O2  UNL     1      91.835  72.580  28.809  1.00  0.00    -0.643 OA
ENDBRANCH  10  16
BRANCH  14  19
HETATM   19  C2  UNL     1      88.655  69.132  24.484  1.00  0.00    -0.024 C
HETATM   20  C1  UNL     1      88.158  67.771  24.167  1.00  0.00     0.036 C
ENDBRANCH  14  19
BRANCH  15  21
HETATM   21  O4  UNL     1      88.103  69.731  27.314  1.00  0.00    -0.388 OA
ATOM     22  H4  UNL     1      88.208  70.664  27.461  1.00  0.00     0.210 HD
ENDBRANCH  15  21
ENDBRANCH   8   9
ENDBRANCH   1   8
BRANCH   7  23
HETATM   23  C12 UNL     1      89.765  71.147  33.276  1.00  0.00     0.198 C
BRANCH  23  24
HETATM   24  O3  UNL     1      89.127  70.286  34.188  1.00  0.00    -0.399 OA
ATOM     25  H3  UNL     1      88.817  69.532  33.701  1.00  0.00     0.209 HD
ENDBRANCH  23  24
ENDBRANCH   7  23
BRANCH   3  26
HETATM   26  N2  UNL     1      88.186  74.284  30.043  1.00  0.00    -0.292 N
ATOM     27  H2  UNL     1      88.125  74.226  29.027  1.00  0.00     0.184 HD
BRANCH  26  28
HETATM   28  N3  UNL     1      88.520  75.339  30.590  1.00  0.00    -0.252 N
HETATM   29  N4  UNL     1      88.997  76.473  30.682  1.00  0.00    -0.331 N
ATOM     30  H42 UNL     1      89.281  76.595  29.710  1.00  0.00     0.178 HD
ATOM     31  H41 UNL     1      89.273  77.345  31.134  1.00  0.00     0.178 HD
ATOM     32  H3  UNL     1      88.218  75.172  31.550  1.00  0.00     0.207 HD
ENDBRANCH  26  28
ENDBRANCH   3  26
TORSDOF 9
ENDMDL