MODEL 3
REMARK VINA RESULT: -8.243117629      0.707      1.297
REMARK  5 active torsions:
REMARK  status: ('A' for Active; 'I' for Inactive)
REMARK    1  A    between atoms: C2_2  and  C3_3
REMARK    2  A    between atoms: C3_3  and  C4_4
REMARK    3  A    between atoms: C7_7  and  N1_8
REMARK    4  A    between atoms: N1_8  and  C8_10
REMARK    5  A    between atoms: C9_13  and  C10_14
ROOT
HETATM    1  C8  UNL     1      87.703  72.521  31.272  1.00  0.00     0.134 A
HETATM    2  N2  UNL     1      86.610  71.719  31.151  1.00  0.00    -0.326 N
ATOM      3  H2  UNL     1      86.710  70.742  31.427  1.00  0.00     0.169 HD
HETATM    4  C9  UNL     1      85.425  72.109  30.703  1.00  0.00     0.121 A
HETATM    5  N5  UNL     1      85.310  73.415  30.339  1.00  0.00    -0.326 N
ATOM      6  H5  UNL     1      84.416  73.757  29.989  1.00  0.00     0.169 HD
HETATM    7  C13 UNL     1      86.343  74.267  30.429  1.00  0.00     0.142 A
HETATM    8  N6  UNL     1      86.497  75.586  30.141  1.00  0.00    -0.292 N
ATOM      9  H6  UNL     1      85.771  76.199  29.771  1.00  0.00     0.172 HD
HETATM   10  C14 UNL     1      87.752  75.952  30.419  1.00  0.00     0.326 A
HETATM   11  O1  UNL     1      88.253  77.096  30.278  1.00  0.00    -0.247 OA
HETATM   12  N7  UNL     1      88.419  74.896  30.883  1.00  0.00    -0.302 N
ATOM     13  H7  UNL     1      89.396  74.883  31.175  1.00  0.00     0.171 HD
HETATM   14  C15 UNL     1      87.560  73.835  30.898  1.00  0.00     0.125 A
ENDROOT
BRANCH   1  15
HETATM   15  N1  UNL     1      88.732  72.029  31.699  1.00  0.00    -0.368 N
ATOM     16  H1  UNL     1      88.495  71.526  32.554  1.00  0.00     0.161 HD
BRANCH  15  17
HETATM   17  C7  UNL     1      90.085  71.876  31.498  1.00  0.00     0.107 C
HETATM   18  C6  UNL     1      90.567  70.442  31.363  1.00  0.00     0.030 C
HETATM   19  C5  UNL     1      91.929  70.321  32.001  1.00  0.00     0.034 C
HETATM   20  C4  UNL     1      92.693  71.579  31.784  1.00  0.00     0.121 C
HETATM   21  O2  UNL     1      92.148  72.596  32.527  1.00  0.00    -0.384 OA
HETATM   22  C16 UNL     1      90.797  72.472  32.742  1.00  0.00     0.193 C
BRANCH  20  23
HETATM   23  C3  UNL     1      94.152  71.466  32.126  1.00  0.00     0.031 C
BRANCH  23  24
HETATM   24  C2  UNL     1      94.925  70.593  31.190  1.00  0.00    -0.002 C
HETATM   25  C1  UNL     1      94.626  71.094  29.774  1.00  0.00     0.005 C
ENDBRANCH  23  24
ENDBRANCH  20  23
ENDBRANCH  15  17
ENDBRANCH   1  15
BRANCH   4  26
HETATM   26  C10 UNL     1      84.271  71.234  30.583  1.00  0.00     0.042 A
HETATM   27  C11 UNL     1      83.094  71.355  31.274  1.00  0.00     0.123 A
HETATM   28  N3  UNL     1      82.273  70.339  30.870  1.00  0.00    -0.311 N
HETATM   29  N4  UNL     1      82.896  69.595  29.956  1.00  0.00    -0.311 N
ATOM     30  H3  UNL     1      81.328  70.176  31.216  1.00  0.00     0.186 HD
HETATM   31  C12 UNL     1      84.126  70.137  29.770  1.00  0.00     0.123 A
ATOM     32  H4  UNL     1      82.518  68.773  29.485  1.00  0.00     0.186 HD
ENDBRANCH   4  26
TORSDOF 5
ENDMDL