MODEL 3
REMARK VINA RESULT: -6.745764969      1.858      7.668
REMARK  9 active torsions:
REMARK  status: ('A' for Active; 'I' for Inactive)
REMARK    1  A    between atoms: C2_2  and  O1_3
REMARK    2  A    between atoms: C2_2  and  C3_5
REMARK    3  A    between atoms: C3_5  and  O2_6
REMARK    4  A    between atoms: O2_6  and  C4_7
REMARK    5  A    between atoms: C9_12  and  O3_13
REMARK    6  A    between atoms: C14_19  and  C15_20
REMARK    7  A    between atoms: C15_20  and  O4_21
REMARK    8  A    between atoms: C18_26  and  C19_27
REMARK    9  A    between atoms: C19_27  and  O6_28
ROOT
HETATM    1  C4  UNL     1      93.618  70.441  31.346  1.00  0.00     0.177 C
HETATM    2  C5  UNL     1      92.554  70.030  30.317  1.00  0.00     0.040 C
HETATM    3  C6  UNL     1      91.279  69.828  31.108  1.00  0.00     0.019 C
HETATM    4  C7  UNL     1      90.692  71.141  31.549  1.00  0.00     0.012 C
HETATM    5  C8  UNL     1      91.809  71.990  32.033  1.00  0.00     0.020 C
HETATM    6  C9  UNL     1      93.090  71.691  31.948  1.00  0.00     0.069 C
HETATM    7  C10 UNL     1      90.094  71.817  30.329  1.00  0.00     0.003 C
HETATM    8  C11 UNL     1      89.834  73.273  30.519  1.00  0.00     0.010 C
HETATM    9  C12 UNL     1      88.437  73.710  30.050  1.00  0.00     0.037 C
HETATM   10  C13 UNL     1      87.379  72.954  30.790  1.00  0.00    -0.053 C
HETATM   11  C14 UNL     1      86.172  73.366  31.042  1.00  0.00     0.004 C
HETATM   12  C16 UNL     1      87.860  71.585  31.242  1.00  0.00     0.151 C
HETATM   13  C17 UNL     1      88.750  71.152  30.081  1.00  0.00     0.042 C
HETATM   14  O5  UNL     1      88.568  71.815  32.393  1.00  0.00    -0.373 OA
HETATM   15  C18 UNL     1      89.649  70.999  32.612  1.00  0.00     0.158 C
ENDROOT
BRANCH  15  16
HETATM   16  C19 UNL     1      89.175  69.616  32.882  1.00  0.00     0.197 C
BRANCH  16  17
HETATM   17  O6  UNL     1      88.951  69.538  34.281  1.00  0.00    -0.398 OA
ATOM     18  H6  UNL     1      88.413  68.768  34.422  1.00  0.00     0.209 HD
ENDBRANCH  16  17
ENDBRANCH  15  16
BRANCH   6  19
HETATM   19  O3  UNL     1      94.050  72.586  32.447  1.00  0.00    -0.363 OA
ATOM     20  H3  UNL     1      93.897  73.505  32.260  1.00  0.00     0.217 HD
ENDBRANCH   6  19
BRANCH   1  21
HETATM   21  O2  UNL     1      94.834  70.695  30.703  1.00  0.00    -0.377 OA
BRANCH  21  22
HETATM   22  C3  UNL     1      95.741  69.693  30.949  1.00  0.00     0.199 C
BRANCH  22  23
HETATM   23  C2  UNL     1      95.871  69.558  32.471  1.00  0.00     0.138 C
HETATM   24  C1  UNL     1      96.143  68.127  32.872  1.00  0.00     0.041 C
BRANCH  23  25
HETATM   25  O1  UNL     1      96.831  70.425  32.965  1.00  0.00    -0.394 OA
ATOM     26  H1  UNL     1      96.691  70.621  33.884  1.00  0.00     0.210 HD
ENDBRANCH  23  25
ENDBRANCH  22  23
ENDBRANCH  21  22
ENDBRANCH   1  21
BRANCH  11  27
HETATM   27  C15 UNL     1      85.670  74.669  30.623  1.00  0.00     0.191 C
BRANCH  27  28
HETATM   28  O4  UNL     1      86.003  75.676  31.553  1.00  0.00    -0.397 OA
ATOM     29  H4  UNL     1      85.245  75.950  32.057  1.00  0.00     0.209 HD
ENDBRANCH  27  28
ENDBRANCH  11  27
TORSDOF 9
ENDMDL