MODEL 4
REMARK VINA RESULT: -7.611260878      1.458      2.793
REMARK  7 active torsions:
REMARK  status: ('A' for Active; 'I' for Inactive)
REMARK    1  A    between atoms: N1_1  and  C1_4
REMARK    2  A    between atoms: C3_10  and  C4_11
REMARK    3  A    between atoms: C4_11  and  C5_13
REMARK    4  A    between atoms: C5_13  and  N4_14
REMARK    5  A    between atoms: C5_13  and  O2_18
REMARK    6  A    between atoms: C7_23  and  N6_24
REMARK    7  A    between atoms: N7_27  and  N8_28
ROOT
HETATM    1  C1  UNL     1     -13.615 -27.314  18.865  1.00  0.00     0.172 C
HETATM    2  N2  UNL     1     -13.258 -27.213  20.179  1.00  0.00    -0.322 N
ATOM      3  H2  UNL     1     -12.259 -27.128  20.362  1.00  0.00     0.169 HD
HETATM    4  C2  UNL     1     -14.053 -27.213  21.261  1.00  0.00     0.139 A
HETATM    5  N3  UNL     1     -13.663 -27.383  22.540  1.00  0.00    -0.323 N
ATOM      6  H3  UNL     1     -12.702 -27.533  22.845  1.00  0.00     0.169 HD
HETATM    7  C3  UNL     1     -14.733 -27.324  23.351  1.00  0.00     0.159 A
HETATM    8  N5  UNL     1     -15.792 -27.115  22.552  1.00  0.00    -0.333 N
ATOM      9  H5  UNL     1     -16.754 -27.024  22.881  1.00  0.00     0.168 HD
HETATM   10  C6  UNL     1     -15.421 -27.040  21.264  1.00  0.00     0.124 A
HETATM   11  C7  UNL     1     -16.269 -26.828  20.183  1.00  0.00     0.154 C
HETATM   12  N7  UNL     1     -16.098 -27.150  18.879  1.00  0.00    -0.205 N
HETATM   13  C8  UNL     1     -14.880 -27.375  18.319  1.00  0.00     0.311 C
HETATM   14  O3  UNL     1     -14.945 -27.691  17.102  1.00  0.00    -0.262 OA
ENDROOT
BRANCH   7  15
HETATM   15  C4  UNL     1     -14.751 -27.461  24.824  1.00  0.00     0.248 C
HETATM   16  O1  UNL     1     -13.673 -27.420  25.469  1.00  0.00    -0.284 OA
BRANCH  15  17
HETATM   17  C5  UNL     1     -15.998 -27.642  25.556  1.00  0.00     0.395 C
BRANCH  17  18
HETATM   18  N4  UNL     1     -16.509 -28.980  25.234  1.00  0.00    -0.045 N
ATOM     19  H43 UNL     1     -16.525 -29.168  24.232  1.00  0.00     0.277 HD
ATOM     20  H42 UNL     1     -15.866 -29.726  25.499  1.00  0.00     0.277 HD
ATOM     21  H41 UNL     1     -17.426 -29.072  25.671  1.00  0.00     0.277 HD
ENDBRANCH  17  18
BRANCH  17  22
HETATM   22  O2  UNL     1     -16.948 -26.734  25.105  1.00  0.00    -0.364 OA
ATOM     23  H2  UNL     1     -17.778 -26.890  25.540  1.00  0.00     0.212 HD
ENDBRANCH  17  22
ENDBRANCH  15  17
ENDBRANCH   7  15
BRANCH  11  24
HETATM   24  N6  UNL     1     -17.379 -26.241  20.436  1.00  0.00    -0.382 N
ATOM     25  H62 UNL     1     -17.405 -25.772  21.341  1.00  0.00     0.157 HD
ATOM     26  H61 UNL     1     -18.101 -26.307  19.719  1.00  0.00     0.157 HD
ENDBRANCH  11  24
BRANCH   1  27
HETATM   27  N1  UNL     1     -12.634 -27.357  18.031  1.00  0.00    -0.381 N
ATOM     28  H12 UNL     1     -12.858 -27.136  17.060  1.00  0.00     0.157 HD
ATOM     29  H11 UNL     1     -11.732 -27.608  18.435  1.00  0.00     0.157 HD
ENDBRANCH   1  27
BRANCH  12  30
HETATM   30  N8  UNL     1     -17.226 -27.253  18.072  1.00  0.00    -0.334 N
ATOM     31  H82 UNL     1     -17.913 -26.500  18.099  1.00  0.00     0.177 HD
ATOM     32  H81 UNL     1     -17.325 -28.080  17.482  1.00  0.00     0.177 HD
ENDBRANCH  12  30
TORSDOF 7
ENDMDL