MODEL 1
REMARK VINA RESULT: -7.263826165      0.000      0.000
REMARK  6 active torsions:
REMARK  status: ('A' for Active; 'I' for Inactive)
REMARK    1  A    between atoms: N1_1  and  C1_4
REMARK    2  A    between atoms: C3_9  and  C4_10
REMARK    3  A    between atoms: C4_10  and  C6_18
REMARK    4  A    between atoms: N4_11  and  N5_13
REMARK       I    between atoms: N5_13  and  C5_15
REMARK    5  A    between atoms: C6_18  and  O3_20
REMARK    6  A    between atoms: O3_20  and  N7_21
ROOT
HETATM    1  C4  UNL     1     -14.685 -26.558  21.846  1.00  0.00     0.144 C
HETATM    2  N4  UNL     1     -15.037 -27.440  22.760  1.00  0.00    -0.290 N
ATOM      3  H4  UNL     1     -15.603 -28.220  22.422  1.00  0.00     0.187 HD
ENDROOT
BRANCH   1   4
HETATM    4  C3  UNL     1     -15.143 -26.807  20.489  1.00  0.00     0.108 A
HETATM    5  C2  UNL     1     -16.497 -26.527  20.176  1.00  0.00     0.150 A
HETATM    6  N2  UNL     1     -16.990 -26.732  18.946  1.00  0.00    -0.178 N
HETATM    7  N3  UNL     1     -17.346 -26.020  21.188  1.00  0.00    -0.081 NA
HETATM    8  C1  UNL     1     -16.230 -27.203  17.972  1.00  0.00     0.680 A
ATOM      9  H2  UNL     1     -17.970 -26.519  18.759  1.00  0.00     0.185 HD
HETATM   10  N8  UNL     1     -14.949 -27.492  18.185  1.00  0.00    -0.155 N
HETATM   11  C7  UNL     1     -14.426 -27.288  19.441  1.00  0.00     0.275 A
ATOM     12  H8  UNL     1     -14.365 -27.856  17.432  1.00  0.00     0.187 HD
HETATM   13  O4  UNL     1     -13.233 -27.580  19.550  1.00  0.00    -0.267 OA
BRANCH   8  14
HETATM   14  N1  UNL     1     -16.723 -27.393  16.796  1.00  0.00    -0.234 N
ATOM     15  H12 UNL     1     -17.679 -27.740  16.713  1.00  0.00     0.174 HD
ATOM     16  H11 UNL     1     -16.165 -27.197  15.965  1.00  0.00     0.174 HD
ENDBRANCH   8  14
ENDBRANCH   1   4
BRANCH   1  17
HETATM   17  C6  UNL     1     -13.900 -25.481  22.319  1.00  0.00     0.333 C
HETATM   18  O2  UNL     1     -14.318 -24.421  22.797  1.00  0.00    -0.256 OA
BRANCH  17  19
HETATM   19  O3  UNL     1     -12.487 -25.572  22.264  1.00  0.00    -0.201 OA
BRANCH  19  20
HETATM   20  N7  UNL     1     -11.810 -25.350  21.064  1.00  0.00    -0.302 N
ATOM     21  H72 UNL     1     -12.305 -24.892  20.298  1.00  0.00     0.184 HD
ATOM     22  H71 UNL     1     -10.838 -25.640  20.956  1.00  0.00     0.184 HD
ENDBRANCH  19  20
ENDBRANCH  17  19
ENDBRANCH   1  17
BRANCH   2  23
HETATM   23  N5  UNL     1     -14.757 -27.458  24.076  1.00  0.00    -0.253 N
HETATM   24  C5  UNL     1     -15.635 -27.068  25.124  1.00  0.00     0.347 C
HETATM   25  N6  UNL     1     -15.222 -27.133  26.478  1.00  0.00    -0.038 NA
HETATM   26  O1  UNL     1     -16.803 -26.656  24.896  1.00  0.00    -0.249 OA
ATOM     27  H5  UNL     1     -13.828 -27.780  24.346  1.00  0.00     0.191 HD
ENDBRANCH   2  23
TORSDOF 6
ENDMDL