MODEL 4
REMARK VINA RESULT: -7.124011304      1.881      2.974
REMARK  7 active torsions:
REMARK  status: ('A' for Active; 'I' for Inactive)
REMARK    1  A    between atoms: N1_1  and  C1_4
REMARK    2  A    between atoms: C2_7  and  N3_8
REMARK    3  A    between atoms: N3_8  and  C3_10
REMARK    4  A    between atoms: N5_14  and  N6_15
REMARK    5  A    between atoms: C5_17  and  C6_18
REMARK    6  A    between atoms: C6_18  and  N7_19
REMARK    7  A    between atoms: C8_27  and  N10_28
ROOT
HETATM    1  N3  UNL     1     -16.534 -26.204  21.245  1.00  0.00    -0.178 N
ATOM      2  H3  UNL     1     -17.479 -25.855  21.406  1.00  0.00     0.185 HD
ENDROOT
BRANCH   1   3
HETATM    3  C2  UNL     1     -15.596 -26.225  22.332  1.00  0.00     0.712 A
HETATM    4  N2  UNL     1     -15.446 -27.313  23.109  1.00  0.00    -0.021 N
HETATM    5  C1  UNL     1     -14.568 -27.331  24.127  1.00  0.00     0.705 A
ATOM      6  H2  UNL     1     -16.009 -28.141  22.922  1.00  0.00     0.203 HD
HETATM    7  N11 UNL     1     -13.799 -26.269  24.418  1.00  0.00    -0.022 N
HETATM    8  C8  UNL     1     -13.942 -25.160  23.637  1.00  0.00     0.705 A
ATOM      9  H11 UNL     1     -13.135 -26.291  25.192  1.00  0.00     0.203 HD
HETATM   10  N9  UNL     1     -14.828 -25.159  22.620  1.00  0.00    -0.021 N
ATOM     11  H9  UNL     1     -14.918 -24.319  22.048  1.00  0.00     0.203 HD
BRANCH   5  12
HETATM   12  N1  UNL     1     -14.454 -28.392  24.848  1.00  0.00    -0.234 N
ATOM     13  H12 UNL     1     -13.550 -28.600  25.273  1.00  0.00     0.174 HD
ATOM     14  H11 UNL     1     -15.262 -29.000  24.978  1.00  0.00     0.174 HD
ENDBRANCH   5  12
BRANCH   8  15
HETATM   15  N10 UNL     1     -13.201 -24.140  23.918  1.00  0.00    -0.234 N
ATOM     16 2H10 UNL     1     -13.059 -23.925  24.905  1.00  0.00     0.174 HD
ATOM     17 1H10 UNL     1     -12.767 -23.559  23.200  1.00  0.00     0.174 HD
ENDBRANCH   8  15
ENDBRANCH   1   3
BRANCH   1  18
HETATM   18  C3  UNL     1     -16.175 -26.660  19.951  1.00  0.00     0.111 C
HETATM   19  N4  UNL     1     -17.021 -26.731  18.985  1.00  0.00    -0.359 N
HETATM   20  C4  UNL     1     -16.533 -27.218  17.694  1.00  0.00     0.288 C
ATOM     21  H4  UNL     1     -17.996 -26.459  19.114  1.00  0.00     0.162 HD
HETATM   22  N5  UNL     1     -15.648 -28.347  17.900  1.00  0.00    -0.220 N
HETATM   23  N8  UNL     1     -14.840 -28.383  19.042  1.00  0.00    -0.114 NA
HETATM   24  C7  UNL     1     -14.777 -27.073  19.684  1.00  0.00     0.213 C
BRANCH  22  25
HETATM   25  N6  UNL     1     -15.600 -29.379  16.978  1.00  0.00    -0.299 N
HETATM   26  C5  UNL     1     -14.698 -29.480  16.061  1.00  0.00     0.108 C
ATOM     27  H6  UNL     1     -16.319 -30.100  17.027  1.00  0.00     0.187 HD
BRANCH  26  28
HETATM   28  C6  UNL     1     -13.613 -28.486  15.910  1.00  0.00     0.275 C
BRANCH  28  29
HETATM   29  N7  UNL     1     -12.489 -28.819  16.760  1.00  0.00    -0.075 N
ATOM     30  H73 UNL     1     -11.622 -28.893  16.227  1.00  0.00     0.274 HD
ATOM     31  H72 UNL     1     -12.231 -28.040  17.366  1.00  0.00     0.274 HD
ATOM     32  H71 UNL     1     -12.677 -29.666  17.295  1.00  0.00     0.274 HD
ENDBRANCH  28  29
ENDBRANCH  26  28
ENDBRANCH  22  25
ENDBRANCH   1  18
TORSDOF 7
ENDMDL