MODEL 2
REMARK VINA RESULT: -7.792906161      1.754      2.283
REMARK  9 active torsions:
REMARK  status: ('A' for Active; 'I' for Inactive)
REMARK    1  A    between atoms: N1_1  and  C1_4
REMARK    2  A    between atoms: N3_9  and  N4_10
REMARK    3  A    between atoms: C3_13  and  N5_14
REMARK    4  A    between atoms: N5_14  and  C4_16
REMARK    5  A    between atoms: C4_16  and  N6_17
REMARK    6  A    between atoms: C4_16  and  C5_25
REMARK    7  A    between atoms: N6_17  and  N7_19
REMARK    8  A    between atoms: N7_19  and  O2_23
REMARK    9  A    between atoms: N10_27  and  O3_29
ROOT
HETATM    1  N5  UNL     1     -14.512 -28.389  18.546  1.00  0.00    -0.194 N
ATOM      2  H5  UNL     1     -14.826 -29.349  18.692  1.00  0.00     0.180 HD
ENDROOT
BRANCH   1   3
HETATM    3  C3  UNL     1     -14.688 -27.567  19.502  1.00  0.00     0.719 A
HETATM    4  N3  UNL     1     -15.931 -27.098  19.717  1.00  0.00    -0.037 N
HETATM    5  C2  UNL     1     -16.173 -26.216  20.728  1.00  0.00     0.374 A
HETATM    6  N2  UNL     1     -15.153 -25.801  21.530  1.00  0.00    -0.139 N
HETATM    7  O1  UNL     1     -17.338 -25.782  20.924  1.00  0.00    -0.244 OA
HETATM    8  C1  UNL     1     -13.909 -26.268  21.317  1.00  0.00     0.694 A
ATOM      9  H2  UNL     1     -15.331 -25.142  22.288  1.00  0.00     0.189 HD
HETATM   10  N11 UNL     1     -13.710 -27.131  20.316  1.00  0.00    -0.021 N
ATOM     11  H11 UNL     1     -12.764 -27.478  20.162  1.00  0.00     0.203 HD
BRANCH   4  12
HETATM   12  N4  UNL     1     -17.020 -27.474  18.945  1.00  0.00    -0.320 N
ATOM     13  H42 UNL     1     -17.981 -27.425  19.284  1.00  0.00     0.178 HD
ATOM     14  H41 UNL     1     -16.819 -27.808  18.002  1.00  0.00     0.178 HD
ENDBRANCH   4  12
BRANCH   8  15
HETATM   15  N1  UNL     1     -12.936 -25.865  22.089  1.00  0.00    -0.234 N
ATOM     16  H12 UNL     1     -12.875 -26.138  23.070  1.00  0.00     0.174 HD
ATOM     17  H11 UNL     1     -12.211 -25.259  21.704  1.00  0.00     0.174 HD
ENDBRANCH   8  15
ENDBRANCH   1   3
BRANCH   1  18
HETATM   18  C4  UNL     1     -13.911 -28.080  17.277  1.00  0.00     0.285 C
BRANCH  18  19
HETATM   19  N6  UNL     1     -12.610 -28.684  17.107  1.00  0.00    -0.265 N
ATOM     20  H6  UNL     1     -12.431 -29.361  16.365  1.00  0.00     0.187 HD
BRANCH  19  21
HETATM   21  N7  UNL     1     -11.606 -28.300  18.001  1.00  0.00    -0.104 N
HETATM   22  N8  UNL     1     -10.852 -27.301  17.766  1.00  0.00    -0.304 N
ATOM     23  H82 UNL     1     -10.962 -26.751  16.913  1.00  0.00     0.180 HD
ATOM     24  H81 UNL     1     -10.120 -27.021  18.418  1.00  0.00     0.180 HD
BRANCH  21  25
HETATM   25  O2  UNL     1     -11.457 -29.044  19.153  1.00  0.00    -0.254 OA
ATOM     26  H2  UNL     1     -10.573 -29.216  19.456  1.00  0.00     0.248 HD
ENDBRANCH  21  25
ENDBRANCH  19  21
ENDBRANCH  18  19
BRANCH  18  27
HETATM   27  C5  UNL     1     -14.869 -28.474  16.217  1.00  0.00     0.157 C
HETATM   28  N9  UNL     1     -16.198 -27.982  16.172  1.00  0.00    -0.081 NA
HETATM   29  N10 UNL     1     -14.458 -29.307  15.296  1.00  0.00    -0.256 N
ATOM     30  H10 UNL     1     -13.498 -29.649  15.347  1.00  0.00     0.195 HD
BRANCH  29  31
HETATM   31  O3  UNL     1     -15.237 -29.741  14.279  1.00  0.00    -0.289 OA
ATOM     32  H3  UNL     1     -14.913 -30.268  13.557  1.00  0.00     0.244 HD
ENDBRANCH  29  31
ENDBRANCH  18  27
ENDBRANCH   1  18
TORSDOF 9
ENDMDL