MODEL 5
REMARK VINA RESULT: -5.635253021      1.916      2.435
REMARK  6 active torsions:
REMARK  status: ('A' for Active; 'I' for Inactive)
REMARK    1  A    between atoms: N1_1  and  N2_4
REMARK    2  A    between atoms: N2_4  and  N3_5
REMARK    3  A    between atoms: N3_5  and  S1_7
REMARK    4  A    between atoms: S1_7  and  C1_10
REMARK    5  A    between atoms: C1_10  and  C2_11
REMARK    6  A    between atoms: C2_11  and  N4_12
ROOT
HETATM    1  C2  UNL     1     -12.307 -28.391  19.717  1.00  0.00     0.232 C
HETATM    2  C3  UNL     1     -12.369 -28.219  21.204  1.00  0.00     0.137 C
HETATM    3  S2  UNL     1     -12.466 -26.470  21.687  1.00  0.00    -0.163 SA
HETATM    4  C4  UNL     1     -11.039 -25.509  21.152  1.00  0.00     0.095 C
HETATM    5  C5  UNL     1      -9.890 -26.386  20.817  1.00  0.00     0.151 C
HETATM    6  N5  UNL     1      -9.651 -26.563  19.418  1.00  0.00    -0.322 N
ATOM      7  H5  UNL     1      -8.740 -26.357  19.008  1.00  0.00     0.181 HD
HETATM    8  N6  UNL     1     -10.674 -27.014  18.661  1.00  0.00    -0.249 N
ATOM      9  H6  UNL     1     -10.513 -27.304  17.696  1.00  0.00     0.207 HD
HETATM   10  N7  UNL     1     -11.917 -27.076  19.197  1.00  0.00    -0.285 N
ATOM     11  H7  UNL     1     -12.538 -26.267  19.237  1.00  0.00     0.184 HD
ENDROOT
BRANCH   1  12
HETATM   12  C1  UNL     1     -13.628 -28.702  19.062  1.00  0.00     0.227 C
BRANCH  12  13
HETATM   13  S1  UNL     1     -13.663 -28.613  17.323  1.00  0.00     0.246 S
HETATM   14  O1  UNL     1     -14.302 -27.316  16.866  1.00  0.00    -0.205 OA
HETATM   15  O2  UNL     1     -12.337 -28.725  16.666  1.00  0.00    -0.205 OA
BRANCH  13  16
HETATM   16  N3  UNL     1     -14.650 -29.932  16.745  1.00  0.00    -0.211 N
ATOM     17  H3  UNL     1     -14.787 -30.813  17.239  1.00  0.00     0.197 HD
BRANCH  16  18
HETATM   18  N2  UNL     1     -15.224 -29.617  15.518  1.00  0.00    -0.020 NA
BRANCH  18  19
HETATM   19  N1  UNL     1     -14.196 -29.636  14.555  1.00  0.00    -0.328 N
ATOM     20  H12 UNL     1     -13.233 -29.925  14.722  1.00  0.00     0.174 HD
ATOM     21  H11 UNL     1     -14.596 -29.311  13.676  1.00  0.00     0.174 HD
ENDBRANCH  18  19
ENDBRANCH  16  18
ENDBRANCH  13  16
ENDBRANCH  12  13
ENDBRANCH   1  12
BRANCH   1  22
HETATM   22  N4  UNL     1     -11.328 -29.391  19.326  1.00  0.00    -0.050 N
ATOM     23  H43 UNL     1     -10.780 -29.097  18.517  1.00  0.00     0.277 HD
ATOM     24  H42 UNL     1     -10.564 -29.468  19.998  1.00  0.00     0.277 HD
ATOM     25  H41 UNL     1     -11.797 -30.283  19.171  1.00  0.00     0.277 HD
ENDBRANCH   1  22
TORSDOF 6
ENDMDL