MODEL 1
REMARK VINA RESULT: -7.708637765      0.000      0.000
REMARK  6 active torsions:
REMARK  status: ('A' for Active; 'I' for Inactive)
REMARK    1  A    between atoms: N1_1  and  C1_4
REMARK    2  A    between atoms: C2_7  and  C3_8
REMARK    3  A    between atoms: C3_8  and  C4_16
REMARK    4  A    between atoms: N3_9  and  N4_11
REMARK    5  A    between atoms: N4_11  and  N5_13
REMARK    6  A    between atoms: C5_19  and  N7_20
ROOT
HETATM    1  C1  UNL     1     -16.628 -27.307  18.049  1.00  0.00     0.677 A
HETATM    2  N2  UNL     1     -15.416 -27.718  17.755  1.00  0.00    -0.187 N
ATOM      3  H2  UNL     1     -15.264 -28.106  16.824  1.00  0.00     0.184 HD
HETATM    4  C2  UNL     1     -14.319 -27.664  18.614  1.00  0.00     0.119 A
HETATM    5  C5  UNL     1     -14.613 -27.140  19.816  1.00  0.00     0.174 A
HETATM    6  C6  UNL     1     -15.917 -26.690  20.150  1.00  0.00     0.167 A
HETATM    7  N8  UNL     1     -16.137 -26.149  21.449  1.00  0.00    -0.079 NA
HETATM    8  N9  UNL     1     -16.870 -26.798  19.240  1.00  0.00    -0.177 N
ATOM      9  H9  UNL     1     -17.813 -26.481  19.465  1.00  0.00     0.185 HD
ENDROOT
BRANCH   4  10
HETATM   10  C3  UNL     1     -13.071 -28.125  18.050  1.00  0.00     0.144 C
HETATM   11  N3  UNL     1     -13.249 -28.500  16.782  1.00  0.00    -0.280 N
ATOM     12  H3  UNL     1     -14.210 -28.393  16.455  1.00  0.00     0.188 HD
BRANCH  11  13
HETATM   13  N4  UNL     1     -12.434 -28.981  15.868  1.00  0.00    -0.249 N
ATOM     14  H4  UNL     1     -11.464 -29.134  16.142  1.00  0.00     0.207 HD
BRANCH  13  15
HETATM   15  N5  UNL     1     -12.792 -29.306  14.528  1.00  0.00    -0.331 N
ATOM     16  H52 UNL     1     -13.447 -28.672  14.072  1.00  0.00     0.178 HD
ATOM     17  H51 UNL     1     -12.449 -30.110  14.001  1.00  0.00     0.178 HD
ENDBRANCH  13  15
ENDBRANCH  11  13
BRANCH  10  18
HETATM   18  C4  UNL     1     -11.746 -28.251  18.521  1.00  0.00     0.285 C
HETATM   19  N6  UNL     1     -11.373 -29.319  19.457  1.00  0.00    -0.056 NA
HETATM   20  O1  UNL     1     -10.741 -27.571  18.271  1.00  0.00    -0.269 OA
ENDBRANCH  10  18
ENDBRANCH   4  10
BRANCH   5  21
HETATM   21  N7  UNL     1     -13.673 -27.012  20.866  1.00  0.00    -0.110 N
HETATM   22  O2  UNL     1     -12.924 -26.023  20.946  1.00  0.00    -0.532 OA
HETATM   23  O3  UNL     1     -13.543 -28.072  21.748  1.00  0.00    -0.532 OA
ENDBRANCH   5  21
BRANCH   1  24
HETATM   24  N1  UNL     1     -17.617 -27.382  17.214  1.00  0.00    -0.234 N
ATOM     25  H12 UNL     1     -17.907 -26.524  16.745  1.00  0.00     0.174 HD
ATOM     26  H11 UNL     1     -18.109 -28.254  17.016  1.00  0.00     0.174 HD
ENDBRANCH   1  24
TORSDOF 6
ENDMDL