MODEL 4
REMARK VINA RESULT: -8.424327941      2.028      4.889
REMARK  5 active torsions:
REMARK  status: ('A' for Active; 'I' for Inactive)
REMARK       I    between atoms: C1_4  and  N2_5
REMARK       I    between atoms: C1_4  and  N11_29
REMARK    1  A    between atoms: N2_5  and  C2_7
REMARK    2  A    between atoms: C3_13  and  N5_14
REMARK    3  A    between atoms: N5_14  and  N7_18
REMARK       I    between atoms: N7_18  and  C4_20
REMARK       I    between atoms: C4_20  and  N9_24
REMARK    4  A    between atoms: N9_24  and  N10_26
REMARK    5  A    between atoms: N11_29  and  N12_31
ROOT
HETATM    1  C2  UNL     1     -15.183 -27.964  17.870  1.00  0.00     0.192 A
HETATM    2  N3  UNL     1     -15.921 -28.713  17.040  1.00  0.00    -0.221 N
ATOM      3  H3  UNL     1     -16.914 -28.586  16.846  1.00  0.00     0.198 HD
HETATM    4  O1  UNL     1     -15.157 -29.632  16.520  1.00  0.00    -0.153 OA
HETATM    5  N4  UNL     1     -13.940 -29.527  16.969  1.00  0.00    -0.219 N
ATOM      6  H4  UNL     1     -13.155 -30.127  16.718  1.00  0.00     0.198 HD
HETATM    7  C3  UNL     1     -13.899 -28.478  17.835  1.00  0.00     0.213 A
ENDROOT
BRANCH   7   8
HETATM    8  N5  UNL     1     -12.772 -28.009  18.559  1.00  0.00    -0.166 N
HETATM    9  N6  UNL     1     -11.878 -27.400  17.907  1.00  0.00    -0.322 N
ATOM     10  H62 UNL     1     -11.921 -27.230  16.902  1.00  0.00     0.179 HD
ATOM     11  H61 UNL     1     -11.069 -27.063  18.427  1.00  0.00     0.179 HD
BRANCH   8  12
HETATM   12  N7  UNL     1     -12.713 -28.239  19.921  1.00  0.00    -0.108 N
HETATM   13  C4  UNL     1     -11.705 -29.007  20.560  1.00  0.00     0.706 C
HETATM   14  N8  UNL     1     -10.938 -29.805  19.938  1.00  0.00    -0.232 N
HETATM   15  N9  UNL     1     -11.512 -28.906  21.978  1.00  0.00    -0.138 N
ATOM     16  H82 UNL     1     -11.075 -29.877  18.930  1.00  0.00     0.174 HD
ATOM     17  H81 UNL     1     -10.213 -30.356  20.397  1.00  0.00     0.174 HD
ATOM     18  H9  UNL     1     -12.302 -29.031  22.610  1.00  0.00     0.205 HD
ATOM     19  H7  UNL     1     -13.442 -27.829  20.505  1.00  0.00     0.208 HD
BRANCH  15  20
HETATM   20  N10 UNL     1     -10.260 -28.641  22.487  1.00  0.00    -0.331 N
ATOM     21 2H10 UNL     1      -9.626 -29.418  22.672  1.00  0.00     0.177 HD
ATOM     22 1H10 UNL     1      -9.977 -27.679  22.673  1.00  0.00     0.177 HD
ENDBRANCH  15  20
ENDBRANCH   8  12
ENDBRANCH   7   8
BRANCH   1  23
HETATM   23  N2  UNL     1     -15.533 -26.958  18.576  1.00  0.00    -0.170 N
HETATM   24  C1  UNL     1     -16.097 -27.029  19.854  1.00  0.00     0.697 C
HETATM   25  N1  UNL     1     -17.111 -27.753  20.171  1.00  0.00    -0.233 N
HETATM   26  N11 UNL     1     -15.514 -26.242  20.898  1.00  0.00    -0.072 N
ATOM     27  H12 UNL     1     -17.527 -28.313  19.427  1.00  0.00     0.174 HD
ATOM     28  H11 UNL     1     -17.523 -27.805  21.103  1.00  0.00     0.174 HD
ATOM     29  H11 UNL     1     -15.234 -25.277  20.722  1.00  0.00     0.212 HD
ATOM     30  H2  UNL     1     -15.390 -26.030  18.177  1.00  0.00     0.186 HD
BRANCH  26  31
HETATM   31  N12 UNL     1     -15.333 -26.811  22.161  1.00  0.00    -0.024 N
HETATM   32  O2  UNL     1     -16.152 -26.533  23.057  1.00  0.00    -0.516 OA
HETATM   33  O3  UNL     1     -14.302 -27.661  22.478  1.00  0.00    -0.516 OA
ENDBRANCH  26  31
ENDBRANCH   1  23
TORSDOF 5
ENDMDL