MODEL 2
REMARK VINA RESULT: -7.667707175      2.888      3.698
REMARK  3 active torsions:
REMARK  status: ('A' for Active; 'I' for Inactive)
REMARK    1  A    between atoms: N1_1  and  C1_4
REMARK    2  A    between atoms: C3_9  and  C4_10
REMARK    3  A    between atoms: N4_11  and  N5_13
REMARK       I    between atoms: C5_15  and  N7_17
ROOT
HETATM    1  C1  UNL     1     -16.457 -27.276  18.240  1.00  0.00     0.680 A
HETATM    2  N2  UNL     1     -15.135 -27.474  18.423  1.00  0.00    -0.178 N
ATOM      3  H2  UNL     1     -14.583 -27.865  17.659  1.00  0.00     0.185 HD
HETATM    4  C2  UNL     1     -14.514 -27.170  19.593  1.00  0.00     0.149 A
HETATM    5  N3  UNL     1     -13.129 -27.383  19.771  1.00  0.00    -0.081 NA
HETATM    6  C3  UNL     1     -15.266 -26.640  20.626  1.00  0.00     0.091 A
HETATM    7  C6  UNL     1     -16.616 -26.454  20.392  1.00  0.00     0.274 A
HETATM    8  O1  UNL     1     -17.333 -25.979  21.296  1.00  0.00    -0.267 OA
HETATM    9  N11 UNL     1     -17.200 -26.764  19.228  1.00  0.00    -0.155 N
ATOM     10  H11 UNL     1     -18.200 -26.612  19.095  1.00  0.00     0.187 HD
ENDROOT
BRANCH   6  11
HETATM   11  C4  UNL     1     -14.660 -26.294  21.902  1.00  0.00     0.127 C
HETATM   12  N4  UNL     1     -14.834 -25.151  22.408  1.00  0.00    -0.308 N
ATOM     13  H4  UNL     1     -15.415 -24.503  21.874  1.00  0.00     0.186 HD
BRANCH  12  14
HETATM   14  N5  UNL     1     -14.333 -24.681  23.595  1.00  0.00    -0.272 N
HETATM   15  C5  UNL     1     -13.935 -23.472  23.805  1.00  0.00     0.240 C
HETATM   16  N6  UNL     1     -14.006 -22.532  22.756  1.00  0.00    -0.059 NA
HETATM   17  N7  UNL     1     -13.435 -23.115  25.087  1.00  0.00    -0.136 N
HETATM   18  N8  UNL     1     -13.261 -21.942  25.715  1.00  0.00     0.013 NA
HETATM   19  N10 UNL     1     -12.952 -23.717  26.162  1.00  0.00     0.013 NA
HETATM   20  N9  UNL     1     -12.779 -22.561  26.782  1.00  0.00     0.008 NA
ATOM     21  H5  UNL     1     -14.270 -25.339  24.371  1.00  0.00     0.189 HD
ENDBRANCH  12  14
ENDBRANCH   6  11
BRANCH   1  22
HETATM   22  N1  UNL     1     -16.983 -27.586  17.106  1.00  0.00    -0.234 N
ATOM     23  H12 UNL     1     -17.363 -28.518  16.940  1.00  0.00     0.174 HD
ATOM     24  H11 UNL     1     -17.016 -26.882  16.368  1.00  0.00     0.174 HD
ENDBRANCH   1  22
TORSDOF 3
ENDMDL