MODEL 4
REMARK VINA RESULT: -7.790339533      2.961      6.868
REMARK  6 active torsions:
REMARK  status: ('A' for Active; 'I' for Inactive)
REMARK    1  A    between atoms: N1_1  and  C1_4
REMARK    2  A    between atoms: C2_7  and  N3_8
REMARK       I    between atoms: N3_8  and  C3_10
REMARK       I    between atoms: C3_10  and  N4_11
REMARK       I    between atoms: C3_10  and  N5_15
REMARK    3  A    between atoms: C5_23  and  C6_24
REMARK    4  A    between atoms: C6_24  and  O1_25
REMARK    5  A    between atoms: C6_24  and  N8_27
REMARK    6  A    between atoms: N8_27  and  N9_29
ROOT
HETATM    1  C1  UNL     1     -13.792 -26.581  20.692  1.00  0.00     0.132 A
HETATM    2  N2  UNL     1     -13.895 -26.056  21.926  1.00  0.00    -0.176 N
ATOM      3  H2  UNL     1     -13.053 -25.735  22.404  1.00  0.00     0.186 HD
HETATM    4  C2  UNL     1     -15.107 -25.942  22.554  1.00  0.00     0.684 A
HETATM    5  N6  UNL     1     -16.206 -26.365  21.925  1.00  0.00    -0.178 N
ATOM      6  H6  UNL     1     -17.114 -26.284  22.385  1.00  0.00     0.185 HD
HETATM    7  C4  UNL     1     -16.132 -26.891  20.700  1.00  0.00     0.150 A
HETATM    8  N7  UNL     1     -17.340 -27.323  20.069  1.00  0.00    -0.081 NA
HETATM    9  C5  UNL     1     -14.901 -27.015  20.041  1.00  0.00     0.102 A
ENDROOT
BRANCH   4  10
HETATM   10  N3  UNL     1     -15.120 -25.425  23.704  1.00  0.00    -0.173 N
HETATM   11  C3  UNL     1     -15.440 -25.816  25.000  1.00  0.00     0.494 C
HETATM   12  N4  UNL     1     -16.595 -26.656  25.185  1.00  0.00    -0.032 N
HETATM   13  N5  UNL     1     -15.737 -24.562  25.751  1.00  0.00    -0.032 N
ATOM     14  H43 UNL     1     -17.407 -26.207  24.761  1.00  0.00     0.278 HD
ATOM     15  H42 UNL     1     -16.504 -27.485  24.597  1.00  0.00     0.278 HD
ATOM     16  H41 UNL     1     -16.829 -26.943  26.135  1.00  0.00     0.278 HD
ATOM     17  H53 UNL     1     -14.985 -23.875  25.709  1.00  0.00     0.278 HD
ATOM     18  H52 UNL     1     -16.456 -23.987  25.312  1.00  0.00     0.278 HD
ATOM     19  H51 UNL     1     -15.972 -24.849  26.701  1.00  0.00     0.278 HD
ATOM     20  H3  UNL     1     -14.811 -24.453  23.676  1.00  0.00     0.181 HD
ENDBRANCH   4  10
BRANCH   1  21
HETATM   21  N1  UNL     1     -12.638 -26.675  20.124  1.00  0.00    -0.384 N
ATOM     22  H12 UNL     1     -12.190 -25.840  19.746  1.00  0.00     0.157 HD
ATOM     23  H11 UNL     1     -12.175 -27.582  20.051  1.00  0.00     0.157 HD
ENDBRANCH   1  21
BRANCH   9  24
HETATM   24  C6  UNL     1     -14.907 -27.592  18.719  1.00  0.00     0.177 C
BRANCH  24  25
HETATM   25  O1  UNL     1     -14.388 -28.781  18.589  1.00  0.00    -0.344 OA
ATOM     26  H1  UNL     1     -14.844 -29.499  19.013  1.00  0.00     0.219 HD
ENDBRANCH  24  25
BRANCH  24  27
HETATM   27  N8  UNL     1     -15.392 -27.078  17.518  1.00  0.00    -0.219 N
ATOM     28  H8  UNL     1     -15.133 -26.133  17.234  1.00  0.00     0.195 HD
BRANCH  27  29
HETATM   29  N9  UNL     1     -16.245 -27.856  16.680  1.00  0.00    -0.037 N
HETATM   30  O2  UNL     1     -15.778 -28.646  15.849  1.00  0.00    -0.516 OA
HETATM   31  O3  UNL     1     -17.606 -27.755  16.764  1.00  0.00    -0.516 OA
ENDBRANCH  27  29
ENDBRANCH  24  27
ENDBRANCH   9  24
TORSDOF 6
ENDMDL