MODEL 5
REMARK VINA RESULT: -9.645525813      3.908     10.339
REMARK  7 active torsions:
REMARK  status: ('A' for Active; 'I' for Inactive)
REMARK    1  A    between atoms: C3_4  and  C4_5
REMARK    2  A    between atoms: C4_5  and  N2_6
REMARK    3  A    between atoms: C7_9  and  C9_12
REMARK    4  A    between atoms: C9_12  and  C10_13
REMARK    5  A    between atoms: C10_13  and  C11_14
REMARK    6  A    between atoms: C11_14  and  N4_15
REMARK    7  A    between atoms: N4_15  and  C12_16
ROOT
HETATM    1  N1  UNL     1     -19.322  16.822 -39.572  1.00  0.00    -0.191 NA
HETATM    2  C1  UNL     1     -20.180  16.797 -40.365  1.00  0.00     0.101 C
HETATM    3  C2  UNL     1     -21.252  16.769 -41.401  1.00  0.00     0.070 A
HETATM    4  C3  UNL     1     -21.844  15.583 -41.743  1.00  0.00     0.037 A
HETATM    5  S1  UNL     1     -22.955  16.071 -42.982  1.00  0.00    -0.092 SA
HETATM    6  C23 UNL     1     -22.623  17.743 -43.001  1.00  0.00    -0.009 A
HETATM    7  C24 UNL     1     -21.648  17.883 -42.046  1.00  0.00    -0.023 A
HETATM    8  C25 UNL     1     -21.160  19.326 -41.890  1.00  0.00     0.041 C
HETATM    9  C26 UNL     1     -20.874  19.858 -43.267  1.00  0.00     0.005 C
HETATM   10  C27 UNL     1     -21.965  19.686 -44.256  1.00  0.00     0.005 C
HETATM   11  C28 UNL     1     -23.168  18.951 -43.743  1.00  0.00     0.046 C
ENDROOT
BRANCH   4  12
HETATM   12  C4  UNL     1     -21.751  14.214 -41.142  1.00  0.00     0.080 C
BRANCH  12  13
HETATM   13  N2  UNL     1     -21.632  13.189 -42.078  1.00  0.00    -0.291 NA
HETATM   14  C5  UNL     1     -21.221  11.986 -41.303  1.00  0.00     0.096 C
HETATM   15  C6  UNL     1     -22.213  10.874 -41.541  1.00  0.00     0.039 C
HETATM   16  C7  UNL     1     -23.609  11.334 -41.135  1.00  0.00     0.051 C
HETATM   17  C8  UNL     1     -23.657  11.841 -39.773  1.00  0.00     0.069 C
HETATM   18  C21 UNL     1     -23.968  12.415 -42.086  1.00  0.00     0.039 C
HETATM   19  N3  UNL     1     -23.723  12.231 -38.671  1.00  0.00    -0.196 NA
HETATM   20  C22 UNL     1     -22.787  12.936 -42.850  1.00  0.00     0.096 C
BRANCH  16  21
HETATM   21  C9  UNL     1     -24.558  10.146 -41.140  1.00  0.00     0.030 C
BRANCH  21  22
HETATM   22  C10 UNL     1     -23.821   8.901 -40.760  1.00  0.00     0.061 C
BRANCH  22  23
HETATM   23  C11 UNL     1     -24.318   7.734 -41.647  1.00  0.00     0.155 C
BRANCH  23  24
HETATM   24  N4  UNL     1     -24.035   7.829 -42.945  1.00  0.00    -0.421 NA
BRANCH  24  25
HETATM   25  C12 UNL     1     -23.736   7.996 -44.077  1.00  0.00     0.119 A
HETATM   26  C13 UNL     1     -23.590   9.275 -44.650  1.00  0.00     0.062 A
HETATM   27  C14 UNL     1     -23.237   9.394 -45.966  1.00  0.00     0.091 A
HETATM   28  N5  UNL     1     -23.024   8.317 -46.742  1.00  0.00    -0.365 N
HETATM   29  C15 UNL     1     -23.153   7.074 -46.231  1.00  0.00     0.047 A
ATOM     30  H5  UNL     1     -22.765   8.439 -47.720  1.00  0.00     0.165 HD
HETATM   31  C16 UNL     1     -22.916   6.008 -47.060  1.00  0.00     0.054 A
HETATM   32  C20 UNL     1     -23.501   6.909 -44.925  1.00  0.00     0.031 A
HETATM   33  C17 UNL     1     -23.038   4.742 -46.545  1.00  0.00     0.036 A
HETATM   34 CL1  UNL     1     -22.756   3.319 -47.537  1.00  0.00    -0.084 Cl
HETATM   35  C18 UNL     1     -23.386   4.552 -45.231  1.00  0.00     0.025 A
HETATM   36  C19 UNL     1     -23.626   5.633 -44.393  1.00  0.00     0.019 A
ENDBRANCH  24  25
ENDBRANCH  23  24
ENDBRANCH  22  23
ENDBRANCH  21  22
ENDBRANCH  16  21
ENDBRANCH  12  13
ENDBRANCH   4  12
TORSDOF 7
ENDMDL