MODEL 3
REMARK VINA RESULT: -8.854866774      1.027      1.074
REMARK  6 active torsions:
REMARK  status: ('A' for Active; 'I' for Inactive)
REMARK    1  A    between atoms: C5_5  and  C6_6
REMARK    2  A    between atoms: C8_9  and  S2_10
REMARK    3  A    between atoms: S2_10  and  C9_11
REMARK    4  A    between atoms: C9_11  and  C10_12
REMARK       I    between atoms: C10_12  and  N1_14
REMARK    5  A    between atoms: N1_14  and  C11_16
REMARK    6  A    between atoms: C14_19  and  N2_20
ROOT
HETATM    1  C9  UNL     1     -24.795  11.603 -38.865  1.00  0.00     0.184 C
ENDROOT
BRANCH   1   2
HETATM    2  S2  UNL     1     -23.067  11.630 -38.430  1.00  0.00    -0.096 SA
BRANCH   2   3
HETATM    3  C8  UNL     1     -22.138  12.327 -39.836  1.00  0.00     0.112 A
HETATM    4  S1  UNL     1     -20.963  11.775 -40.895  1.00  0.00    -0.075 SA
HETATM    5  C7  UNL     1     -20.734  13.221 -41.830  1.00  0.00     0.082 A
HETATM    6  C6  UNL     1     -21.632  14.064 -41.217  1.00  0.00     0.051 A
HETATM    7  N3  UNL     1     -22.315  13.598 -40.231  1.00  0.00    -0.344 N
ATOM      8  H3  UNL     1     -22.991  14.192 -39.751  1.00  0.00     0.167 HD
BRANCH   6   9
HETATM    9  C5  UNL     1     -21.775  15.495 -41.638  1.00  0.00     0.009 A
HETATM   10  C4  UNL     1     -21.081  16.507 -41.042  1.00  0.00     0.015 A
HETATM   11  C3  UNL     1     -21.285  17.837 -41.460  1.00  0.00     0.007 A
HETATM   12  C2  UNL     1     -22.176  18.166 -42.466  1.00  0.00    -0.061 A
HETATM   13  C1  UNL     1     -22.382  19.578 -42.905  1.00  0.00     0.048 C
HETATM   14  C23 UNL     1     -22.861  17.127 -43.049  1.00  0.00     0.026 A
HETATM   15  C22 UNL     1     -22.660  15.828 -42.641  1.00  0.00     0.024 A
HETATM   16 BR1  UNL     1     -23.658  14.401 -43.450  1.00  0.00    -0.050 Br
ENDBRANCH   6   9
ENDBRANCH   2   3
ENDBRANCH   1   2
BRANCH   1  17
HETATM   17  C10 UNL     1     -25.053  10.518 -39.869  1.00  0.00     0.227 C
HETATM   18  O1  UNL     1     -25.881   9.618 -39.602  1.00  0.00    -0.273 OA
HETATM   19  N1  UNL     1     -24.330  10.612 -41.073  1.00  0.00    -0.356 N
ATOM     20  H1  UNL     1     -23.637  11.356 -41.145  1.00  0.00     0.162 HD
BRANCH  19  21
HETATM   21  C11 UNL     1     -24.482   9.766 -42.185  1.00  0.00     0.084 C
HETATM   22  C12 UNL     1     -24.864  10.327 -43.483  1.00  0.00     0.027 C
HETATM   23  C13 UNL     1     -24.103   9.691 -44.643  1.00  0.00     0.038 C
HETATM   24  C14 UNL     1     -24.029   8.203 -44.586  1.00  0.00     0.223 C
HETATM   25  C20 UNL     1     -23.742   7.699 -43.190  1.00  0.00     0.038 C
HETATM   26  C21 UNL     1     -23.231   8.860 -42.328  1.00  0.00     0.027 C
BRANCH  24  27
HETATM   27  N2  UNL     1     -23.008   7.758 -45.520  1.00  0.00     0.093 N
HETATM   28  C15 UNL     1     -21.944   7.017 -44.888  1.00  0.00     0.273 C
HETATM   29  C16 UNL     1     -21.268   6.075 -45.872  1.00  0.00     0.030 C
HETATM   30  C17 UNL     1     -22.208   4.911 -46.069  1.00  0.00     0.003 C
HETATM   31  C18 UNL     1     -23.601   5.460 -46.202  1.00  0.00     0.030 C
HETATM   32  C19 UNL     1     -23.644   6.917 -46.511  1.00  0.00     0.273 C
ENDBRANCH  24  27
ENDBRANCH  19  21
ENDBRANCH   1  17
TORSDOF 6
ENDMDL