MODEL 5
REMARK VINA RESULT: -8.783751181      1.217      1.434
REMARK  6 active torsions:
REMARK  status: ('A' for Active; 'I' for Inactive)
REMARK    1  A    between atoms: N1_2  and  C3_4
REMARK    2  A    between atoms: C3_4  and  C4_5
REMARK    3  A    between atoms: C8_10  and  C9_11
REMARK    4  A    between atoms: C9_11  and  O2_12
REMARK       I    between atoms: N2_14  and  C10_16
REMARK    5  A    between atoms: C10_16  and  C11_18
REMARK    6  A    between atoms: C22_31  and  C23_32
ROOT
HETATM    1  C4  UNL     1     -19.689   9.158 -41.391  1.00  0.00     0.042 C
HETATM    2  C5  UNL     1     -20.417   7.941 -41.928  1.00  0.00     0.182 C
HETATM    3  O1  UNL     1     -20.985   8.341 -43.207  1.00  0.00    -0.349 OA
HETATM    4  C6  UNL     1     -22.058   9.234 -43.071  1.00  0.00     0.089 A
HETATM    5  C7  UNL     1     -21.728  10.355 -42.258  1.00  0.00    -0.009 A
HETATM    6  C8  UNL     1     -22.658  11.283 -42.024  1.00  0.00     0.027 A
HETATM    7  C20 UNL     1     -23.934  11.099 -42.619  1.00  0.00     0.059 A
HETATM    8  C21 UNL     1     -24.266  10.029 -43.409  1.00  0.00     0.130 A
HETATM    9  F1  UNL     1     -25.513   9.995 -43.997  1.00  0.00    -0.205 F
HETATM   10  C22 UNL     1     -23.299   9.059 -43.641  1.00  0.00     0.039 A
HETATM   11  C29 UNL     1     -20.373  10.470 -41.698  1.00  0.00     0.051 C
ENDROOT
BRANCH   6  12
HETATM   12  C9  UNL     1     -22.595  12.420 -41.148  1.00  0.00     0.153 C
HETATM   13  N2  UNL     1     -22.156  13.692 -41.048  1.00  0.00    -0.303 N
HETATM   14  C10 UNL     1     -21.521  14.608 -41.894  1.00  0.00     0.258 C
ATOM     15  H2  UNL     1     -22.330  14.084 -40.123  1.00  0.00     0.171 HD
HETATM   16  O3  UNL     1     -21.128  14.317 -43.032  1.00  0.00    -0.267 OA
BRANCH  12  17
HETATM   17  O2  UNL     1     -23.237  12.034 -39.947  1.00  0.00    -0.345 OA
ATOM     18  H2  UNL     1     -24.052  11.616 -40.201  1.00  0.00     0.219 HD
ENDBRANCH  12  17
BRANCH  14  19
HETATM   19  C11 UNL     1     -21.335  16.020 -41.340  1.00  0.00     0.046 A
HETATM   20  C12 UNL     1     -20.632  16.159 -40.195  1.00  0.00     0.067 A
HETATM   21  S1  UNL     1     -20.786  17.821 -39.846  1.00  0.00    -0.105 SA
HETATM   22  C13 UNL     1     -21.739  18.310 -41.154  1.00  0.00    -0.009 A
HETATM   23  C14 UNL     1     -21.916  17.140 -41.856  1.00  0.00    -0.028 A
HETATM   24  C19 UNL     1     -22.484  19.452 -41.834  1.00  0.00     0.055 C
HETATM   25  C15 UNL     1     -22.641  17.513 -43.139  1.00  0.00     0.049 C
HETATM   26  C16 UNL     1     -22.404  19.018 -43.291  1.00  0.00    -0.039 C
HETATM   27  C17 UNL     1     -23.496  19.573 -44.135  1.00  0.00     0.015 C
HETATM   28  C18 UNL     1     -21.045  19.341 -43.822  1.00  0.00     0.015 C
ENDBRANCH  14  19
ENDBRANCH   6  12
BRANCH  10  29
HETATM   29  C23 UNL     1     -23.569   7.927 -44.540  1.00  0.00    -0.064 C
HETATM   30  C24 UNL     1     -24.106   8.347 -45.887  1.00  0.00     0.035 C
HETATM   31  C25 UNL     1     -24.220   7.158 -46.781  1.00  0.00     0.004 C
HETATM   32  C26 UNL     1     -23.304   6.029 -46.394  1.00  0.00     0.001 C
HETATM   33  C27 UNL     1     -23.592   5.539 -45.000  1.00  0.00     0.004 C
HETATM   34  C28 UNL     1     -24.036   6.649 -44.037  1.00  0.00     0.035 C
ENDBRANCH  10  29
BRANCH   1  35
HETATM   35  C3  UNL     1     -18.334   9.081 -42.109  1.00  0.00     0.278 C
BRANCH  35  36
HETATM   36  N1  UNL     1     -18.587   8.721 -43.495  1.00  0.00     0.080 N
HETATM   37  C1  UNL     1     -18.409   9.883 -44.359  1.00  0.00     0.309 C
HETATM   38  C2  UNL     1     -17.641   7.733 -43.927  1.00  0.00     0.309 C
ENDBRANCH  35  36
ENDBRANCH   1  35
TORSDOF 6
ENDMDL