MODEL 3
REMARK VINA RESULT: -9.417688731      2.185      3.025
REMARK  8 active torsions:
REMARK  status: ('A' for Active; 'I' for Inactive)
REMARK    1  A    between atoms: C2_2  and  O1_3
REMARK    2  A    between atoms: O1_3  and  C3_4
REMARK    3  A    between atoms: C3_4  and  C4_6
REMARK    4  A    between atoms: C4_6  and  C5_7
REMARK    5  A    between atoms: C5_7  and  C6_8
REMARK    6  A    between atoms: C6_8  and  C8_10
REMARK    7  A    between atoms: C20_24  and  O5_25
REMARK    8  A    between atoms: C20_24  and  C21_27
ROOT
HETATM    1  C8  UNL     1     -23.197  10.659 -41.940  1.00  0.00     0.068 C
HETATM    2  C9  UNL     1     -21.882  10.429 -41.243  1.00  0.00     0.132 C
HETATM    3  O3  UNL     1     -21.644  10.668 -40.091  1.00  0.00    -0.298 OA
HETATM    4  C10 UNL     1     -20.732   9.842 -42.035  1.00  0.00     0.079 C
HETATM    5  C11 UNL     1     -21.423   9.162 -43.180  1.00  0.00     0.018 C
HETATM    6  C12 UNL     1     -22.673   8.376 -42.721  1.00  0.00    -0.028 C
HETATM    7  C13 UNL     1     -22.218   7.613 -41.495  1.00  0.00     0.016 C
HETATM    8  C14 UNL     1     -22.906   7.384 -43.778  1.00  0.00     0.024 C
HETATM    9  C15 UNL     1     -23.597   6.104 -43.463  1.00  0.00     0.014 C
HETATM   10  C16 UNL     1     -24.118   5.547 -44.807  1.00  0.00     0.036 C
HETATM   11  C17 UNL     1     -23.172   5.850 -45.920  1.00  0.00    -0.064 C
HETATM   12  C18 UNL     1     -22.437   4.961 -46.530  1.00  0.00     0.057 C
HETATM   13  C19 UNL     1     -21.551   5.361 -47.599  1.00  0.00     0.184 C
HETATM   14  O4  UNL     1     -21.073   4.494 -48.390  1.00  0.00    -0.290 OA
HETATM   15  C20 UNL     1     -21.191   6.758 -47.791  1.00  0.00     0.135 C
HETATM   16  C22 UNL     1     -21.774   7.703 -46.776  1.00  0.00     0.065 C
HETATM   17  C23 UNL     1     -23.125   7.319 -46.300  1.00  0.00     0.006 C
HETATM   18  C24 UNL     1     -24.229   7.616 -47.266  1.00  0.00     0.025 C
HETATM   19  C25 UNL     1     -23.464   7.998 -45.000  1.00  0.00    -0.066 C
HETATM   20  C26 UNL     1     -24.237   9.034 -44.873  1.00  0.00    -0.022 C
HETATM   21  C27 UNL     1     -24.636   9.685 -43.624  1.00  0.00     0.038 C
HETATM   22  C28 UNL     1     -23.791   9.360 -42.414  1.00  0.00    -0.022 C
HETATM   23  C29 UNL     1     -24.694   8.707 -41.375  1.00  0.00     0.017 C
ENDROOT
BRANCH   1  24
HETATM   24  C6  UNL     1     -23.976  11.571 -41.104  1.00  0.00    -0.003 C
HETATM   25  C7  UNL     1     -24.809  11.113 -40.004  1.00  0.00     0.011 C
BRANCH  24  26
HETATM   26  C5  UNL     1     -24.747  12.491 -42.010  1.00  0.00     0.038 C
BRANCH  26  27
HETATM   27  C4  UNL     1     -24.098  13.196 -43.092  1.00  0.00     0.056 C
BRANCH  27  28
HETATM   28  C3  UNL     1     -23.115  14.238 -42.970  1.00  0.00     0.279 C
HETATM   29  O2  UNL     1     -23.220  15.482 -42.966  1.00  0.00    -0.261 OA
BRANCH  28  30
HETATM   30  O1  UNL     1     -21.740  13.831 -42.821  1.00  0.00    -0.319 OA
BRANCH  30  31
HETATM   31  C2  UNL     1     -20.854  14.492 -41.967  1.00  0.00     0.174 C
HETATM   32  C1  UNL     1     -21.289  14.102 -40.543  1.00  0.00     0.034 C
ENDBRANCH  30  31
ENDBRANCH  28  30
ENDBRANCH  27  28
ENDBRANCH  26  27
ENDBRANCH  24  26
ENDBRANCH   1  24
BRANCH  15  33
HETATM   33  O5  UNL     1     -19.785   6.847 -47.680  1.00  0.00    -0.381 OA
ATOM     34  H5  UNL     1     -19.415   6.223 -48.293  1.00  0.00     0.211 HD
ENDBRANCH  15  33
BRANCH  15  35
HETATM   35  C21 UNL     1     -21.511   7.159 -49.214  1.00  0.00     0.161 C
HETATM   36 CL1  UNL     1     -19.965   7.469 -50.040  1.00  0.00    -0.127 Cl
ENDBRANCH  15  35
TORSDOF 8
ENDMDL