MODEL 5
REMARK VINA RESULT: -9.281339201      1.555      2.315
REMARK  9 active torsions:
REMARK  status: ('A' for Active; 'I' for Inactive)
REMARK    1  A    between atoms: C2_2  and  C3_4
REMARK    2  A    between atoms: C11_12  and  O1_13
REMARK    3  A    between atoms: O1_13  and  C12_14
REMARK    4  A    between atoms: C12_14  and  C13_16
REMARK    5  A    between atoms: C13_16  and  C14_17
REMARK    6  A    between atoms: C14_17  and  C17_20
REMARK    7  A    between atoms: C17_20  and  O4_22
REMARK    8  A    between atoms: C19_24  and  C20_25
REMARK    9  A    between atoms: C28_33  and  O5_34
ROOT
HETATM    1  C3  UNL     1     -23.135  12.394 -40.362  1.00  0.00     0.040 C
HETATM    2  C4  UNL     1     -23.844  11.525 -39.325  1.00  0.00     0.011 C
HETATM    3  C5  UNL     1     -25.033  11.024 -40.108  1.00  0.00     0.007 C
HETATM    4  C6  UNL     1     -24.745  11.233 -41.574  1.00  0.00     0.002 C
HETATM    5  C7  UNL     1     -24.726   9.870 -42.222  1.00  0.00     0.001 C
HETATM    6  C8  UNL     1     -24.830   9.960 -43.705  1.00  0.00     0.033 C
HETATM    7  C9  UNL     1     -24.391   8.641 -44.282  1.00  0.00    -0.020 C
HETATM    8  C10 UNL     1     -23.610   7.805 -43.694  1.00  0.00    -0.045 C
HETATM    9  C11 UNL     1     -23.226   6.515 -44.344  1.00  0.00     0.166 C
HETATM   10  C19 UNL     1     -24.099   5.523 -43.639  1.00  0.00     0.023 C
HETATM   11  C23 UNL     1     -24.106   5.712 -42.161  1.00  0.00     0.009 C
HETATM   12  C24 UNL     1     -23.341   6.788 -41.543  1.00  0.00     0.014 C
HETATM   13  C25 UNL     1     -23.037   8.023 -42.356  1.00  0.00    -0.012 C
HETATM   14  C26 UNL     1     -21.508   8.004 -42.530  1.00  0.00     0.021 C
HETATM   15  C27 UNL     1     -23.434   9.293 -41.717  1.00  0.00     0.032 C
HETATM   16  C28 UNL     1     -22.493  10.460 -41.909  1.00  0.00     0.133 C
HETATM   17  C29 UNL     1     -23.279  11.694 -41.651  1.00  0.00    -0.005 C
HETATM   18  C30 UNL     1     -23.135  12.733 -42.755  1.00  0.00     0.019 C
ENDROOT
BRANCH   9  19
HETATM   19  O1  UNL     1     -23.335   6.573 -45.727  1.00  0.00    -0.311 OA
BRANCH  19  20
HETATM   20  C12 UNL     1     -22.202   6.484 -46.552  1.00  0.00     0.263 C
HETATM   21  O2  UNL     1     -21.328   5.654 -46.234  1.00  0.00    -0.265 OA
BRANCH  20  22
HETATM   22  C13 UNL     1     -22.026   7.325 -47.742  1.00  0.00     0.155 C
BRANCH  22  23
HETATM   23  C14 UNL     1     -21.085   8.444 -47.578  1.00  0.00     0.022 C
HETATM   24  C15 UNL     1     -20.255   8.675 -48.581  1.00  0.00    -0.017 C
HETATM   25  C16 UNL     1     -19.253   9.750 -48.587  1.00  0.00     0.036 C
BRANCH  23  26
HETATM   26  C17 UNL     1     -21.117   9.250 -46.377  1.00  0.00     0.289 C
HETATM   27  O3  UNL     1     -22.111  10.008 -46.186  1.00  0.00    -0.260 OA
BRANCH  26  28
HETATM   28  O4  UNL     1     -20.155   9.280 -45.388  1.00  0.00    -0.323 OA
HETATM   29  C18 UNL     1     -19.188   8.258 -45.297  1.00  0.00     0.213 C
ENDBRANCH  26  28
ENDBRANCH  23  26
ENDBRANCH  22  23
ENDBRANCH  20  22
ENDBRANCH  19  20
ENDBRANCH   9  19
BRANCH  10  30
HETATM   30  C20 UNL     1     -24.030   4.113 -44.080  1.00  0.00    -0.016 C
HETATM   31  C21 UNL     1     -24.849   3.885 -45.328  1.00  0.00     0.010 C
HETATM   32  C22 UNL     1     -22.646   3.545 -44.197  1.00  0.00     0.010 C
ENDBRANCH  10  30
BRANCH  16  33
HETATM   33  O5  UNL     1     -22.054  10.533 -43.243  1.00  0.00    -0.394 OA
ATOM     34  H5  UNL     1     -21.851  11.430 -43.483  1.00  0.00     0.210 HD
ENDBRANCH  16  33
BRANCH   1  35
HETATM   35  C2  UNL     1     -21.819  12.830 -39.906  1.00  0.00     0.007 C
HETATM   36  C1  UNL     1     -21.104  12.024 -39.122  1.00  0.00     0.032 C
HETATM   37 CL1  UNL     1     -21.109  14.338 -40.395  1.00  0.00    -0.089 Cl
ENDBRANCH   1  35
TORSDOF 9
ENDMDL