MODEL 4
REMARK VINA RESULT: -10.145658063      2.128      3.264
REMARK  7 active torsions:
REMARK  status: ('A' for Active; 'I' for Inactive)
REMARK    1  A    between atoms: C4_4  and  C5_5
REMARK    2  A    between atoms: C5_5  and  C6_6
REMARK    3  A    between atoms: C19_21  and  O3_22
REMARK    4  A    between atoms: C20_24  and  C21_25
REMARK    5  A    between atoms: C21_25  and  C22_26
REMARK    6  A    between atoms: C22_26  and  C23_27
REMARK    7  A    between atoms: C23_27  and  C24_28
ROOT
HETATM    1  C6  UNL     1     -22.708   5.132 -46.036  1.00  0.00    -0.062 C
HETATM    2  C7  UNL     1     -23.574   5.972 -46.550  1.00  0.00    -0.022 C
HETATM    3  C8  UNL     1     -23.590   7.252 -45.809  1.00  0.00     0.037 C
HETATM    4  C9  UNL     1     -22.478   7.231 -44.832  1.00  0.00     0.054 C
HETATM    5  C10 UNL     1     -22.066   5.771 -44.869  1.00  0.00     0.075 C
HETATM    6  C11 UNL     1     -20.566   5.664 -44.875  1.00  0.00     0.031 C
HETATM    7  C12 UNL     1     -22.702   5.112 -43.686  1.00  0.00     0.272 C
HETATM    8  O1  UNL     1     -22.208   4.097 -43.134  1.00  0.00    -0.264 OA
HETATM    9  O2  UNL     1     -23.881   5.674 -43.214  1.00  0.00    -0.312 OA
HETATM   10  C13 UNL     1     -23.973   7.065 -42.856  1.00  0.00     0.172 C
HETATM   11  C14 UNL     1     -23.832   7.127 -41.358  1.00  0.00     0.036 C
HETATM   12  C15 UNL     1     -23.059   8.265 -40.818  1.00  0.00     0.008 C
HETATM   13  C16 UNL     1     -23.047   9.443 -41.742  1.00  0.00     0.006 C
HETATM   14  C17 UNL     1     -22.208  10.575 -41.271  1.00  0.00     0.016 C
HETATM   15  C18 UNL     1     -20.867  10.124 -40.721  1.00  0.00     0.013 C
HETATM   16  C19 UNL     1     -21.947  11.579 -42.324  1.00  0.00     0.133 C
HETATM   17  C20 UNL     1     -22.877  11.594 -43.513  1.00  0.00     0.085 C
HETATM   18  C29 UNL     1     -23.248  10.194 -43.931  1.00  0.00     0.141 C
HETATM   19  O4  UNL     1     -24.022  10.131 -44.837  1.00  0.00    -0.297 OA
HETATM   20  C30 UNL     1     -22.602   9.140 -43.161  1.00  0.00     0.103 C
HETATM   21  C31 UNL     1     -22.746   7.723 -43.460  1.00  0.00     0.146 C
HETATM   22  F1  UNL     1     -21.708   7.149 -42.665  1.00  0.00    -0.239 F
ENDROOT
BRANCH  17  23
HETATM   23  C21 UNL     1     -24.029  12.493 -43.214  1.00  0.00     0.015 C
BRANCH  23  24
HETATM   24  C22 UNL     1     -23.789  13.773 -42.522  1.00  0.00     0.005 C
BRANCH  24  25
HETATM   25  C23 UNL     1     -22.840  14.721 -43.185  1.00  0.00     0.038 C
BRANCH  25  26
HETATM   26  C24 UNL     1     -22.067  15.557 -42.243  1.00  0.00    -0.056 A
HETATM   27  C25 UNL     1     -22.003  16.944 -42.383  1.00  0.00     0.024 A
HETATM   28  C26 UNL     1     -21.265  17.684 -41.490  1.00  0.00     0.088 A
HETATM   29  N1  UNL     1     -20.591  17.130 -40.474  1.00  0.00    -0.375 N
HETATM   30  C27 UNL     1     -20.653  15.813 -40.344  1.00  0.00     0.088 A
ATOM     31  H1  UNL     1     -20.050  17.701 -39.825  1.00  0.00     0.164 HD
HETATM   32  C28 UNL     1     -21.381  15.007 -41.211  1.00  0.00     0.024 A
ENDBRANCH  25  26
ENDBRANCH  24  25
ENDBRANCH  23  24
ENDBRANCH  17  23
BRANCH  16  33
HETATM   33  O3  UNL     1     -20.625  11.604 -42.767  1.00  0.00    -0.394 OA
ATOM     34  H3  UNL     1     -20.356  10.817 -43.225  1.00  0.00     0.210 HD
ENDBRANCH  16  33
BRANCH   1  35
HETATM   35  C5  UNL     1     -22.496   3.792 -46.582  1.00  0.00     0.062 C
BRANCH  35  36
HETATM   36  C4  UNL     1     -22.318   3.689 -48.042  1.00  0.00    -0.020 C
HETATM   37  C2  UNL     1     -21.141   3.490 -48.621  1.00  0.00    -0.091 C
HETATM   38  C1  UNL     1     -19.890   3.354 -47.817  1.00  0.00     0.042 C
HETATM   39  C3  UNL     1     -21.091   3.404 -50.102  1.00  0.00     0.042 C
ENDBRANCH  35  36
ENDBRANCH   1  35
TORSDOF 7
ENDMDL