MODEL 3
REMARK VINA RESULT: -10.104749170      2.149      3.704
REMARK  7 active torsions:
REMARK  status: ('A' for Active; 'I' for Inactive)
REMARK    1  A    between atoms: C2_2  and  C3_3
REMARK    2  A    between atoms: C3_3  and  C4_4
REMARK    3  A    between atoms: C5_5  and  C7_7
REMARK    4  A    between atoms: C7_7  and  C8_9
REMARK    5  A    between atoms: C9_10  and  C10_11
REMARK    6  A    between atoms: C10_11  and  C13_14
REMARK    7  A    between atoms: C14_16  and  O3_17
ROOT
HETATM    1  C13 UNL     1     -22.465  11.561 -43.318  1.00  0.00     0.157 C
HETATM    2  O2  UNL     1     -23.717  11.137 -43.757  1.00  0.00    -0.331 OA
HETATM    3  C14 UNL     1     -24.352  10.012 -44.049  1.00  0.00     0.411 C
HETATM    4  O4  UNL     1     -23.804   9.001 -44.774  1.00  0.00    -0.335 OA
HETATM    5  C15 UNL     1     -23.083   9.041 -45.985  1.00  0.00     0.207 C
HETATM    6  C16 UNL     1     -22.134   7.902 -45.929  1.00  0.00    -0.064 C
HETATM    7  C17 UNL     1     -22.709   6.542 -46.242  1.00  0.00     0.045 C
HETATM    8  C18 UNL     1     -20.866   7.919 -45.644  1.00  0.00    -0.017 C
HETATM    9  C19 UNL     1     -20.023   9.131 -45.293  1.00  0.00     0.020 C
HETATM   10  C20 UNL     1     -18.977   9.182 -46.320  1.00  0.00     0.087 C
HETATM   11  C21 UNL     1     -17.605   9.501 -45.980  1.00  0.00     0.127 C
HETATM   12  O5  UNL     1     -17.386  10.691 -45.831  1.00  0.00    -0.298 OA
HETATM   13  C22 UNL     1     -16.332   8.722 -45.754  1.00  0.00     0.078 C
HETATM   14  C23 UNL     1     -16.288   8.340 -44.320  1.00  0.00     0.008 C
HETATM   15  C24 UNL     1     -17.644   7.756 -43.895  1.00  0.00     0.005 C
HETATM   16  C25 UNL     1     -18.440   8.856 -43.271  1.00  0.00    -0.014 C
HETATM   17  C26 UNL     1     -18.660   8.456 -41.817  1.00  0.00     0.010 C
HETATM   18  C27 UNL     1     -19.774   9.149 -43.871  1.00  0.00    -0.001 C
HETATM   19  C28 UNL     1     -20.188  10.525 -43.298  1.00  0.00     0.028 C
HETATM   20  C29 UNL     1     -21.606  10.514 -42.766  1.00  0.00     0.113 C
HETATM   21 CL1  UNL     1     -21.531  10.291 -41.024  1.00  0.00    -0.122 Cl
ENDROOT
BRANCH   1  22
HETATM   22  C10 UNL     1     -22.725  12.806 -42.415  1.00  0.00    -0.002 C
HETATM   23  C11 UNL     1     -23.375  13.828 -43.305  1.00  0.00     0.021 C
HETATM   24  C12 UNL     1     -23.573  12.384 -41.270  1.00  0.00     0.021 C
BRANCH  22  25
HETATM   25  C9  UNL     1     -21.358  13.167 -41.975  1.00  0.00    -0.011 C
HETATM   26  C8  UNL     1     -20.771  14.468 -41.982  1.00  0.00     0.052 C
BRANCH  26  27
HETATM   27  C7  UNL     1     -21.166  15.584 -41.145  1.00  0.00     0.178 C
HETATM   28  O1  UNL     1     -21.159  15.551 -39.894  1.00  0.00    -0.288 OA
BRANCH  27  29
HETATM   29  C5  UNL     1     -21.617  16.877 -41.693  1.00  0.00    -0.005 C
HETATM   30  C4  UNL     1     -22.426  16.938 -42.743  1.00  0.00     0.061 C
HETATM   31  C6  UNL     1     -21.102  18.121 -41.104  1.00  0.00     0.053 C
BRANCH  30  32
HETATM   32  C3  UNL     1     -22.762  18.271 -43.282  1.00  0.00    -0.155 C
BRANCH  32  33
HETATM   33  C2  UNL     1     -23.023  19.335 -43.712  1.00  0.00     0.080 C
HETATM   34  C1  UNL     1     -22.648  19.793 -45.148  1.00  0.00     0.017 C
ENDBRANCH  32  33
ENDBRANCH  30  32
ENDBRANCH  27  29
ENDBRANCH  26  27
ENDBRANCH  22  25
ENDBRANCH   1  22
BRANCH   3  35
HETATM   35  O3  UNL     1     -25.581   9.769 -43.657  1.00  0.00    -0.349 OA
ATOM     36  H3  UNL     1     -25.782   9.231 -42.900  1.00  0.00     0.215 HD
ENDBRANCH   3  35
TORSDOF 7
ENDMDL