MODEL 5
REMARK VINA RESULT: -7.663635371      1.682      2.284
REMARK  6 active torsions:
REMARK  status: ('A' for Active; 'I' for Inactive)
REMARK    1  A    between atoms: C2_2  and  C3_3
REMARK    2  A    between atoms: C3_3  and  C4_4
REMARK    3  A    between atoms: C4_4  and  N1_5
REMARK    4  A    between atoms: C17_20  and  O2_21
REMARK    5  A    between atoms: C22_26  and  O3_27
REMARK    6  A    between atoms: C23_29  and  O4_30
ROOT
HETATM    1  N1  UNL     1     -22.459  11.501 -42.632  1.00  0.00     0.102 N
HETATM    2  C5  UNL     1     -21.056  11.894 -42.579  1.00  0.00     0.311 C
HETATM    3  C6  UNL     1     -20.720  10.507 -42.922  1.00  0.00    -0.000 C
HETATM    4  C7  UNL     1     -20.010   9.528 -43.419  1.00  0.00     0.022 C
HETATM    5 CL1  UNL     1     -18.469   9.958 -44.202  1.00  0.00    -0.088 Cl
HETATM    6  C8  UNL     1     -20.373   8.088 -43.416  1.00  0.00     0.086 C
HETATM    7  C9  UNL     1     -21.699   7.903 -42.780  1.00  0.00    -0.065 C
HETATM    8  C10 UNL     1     -22.169   6.501 -42.813  1.00  0.00    -0.061 C
HETATM    9  C11 UNL     1     -23.463   6.203 -42.218  1.00  0.00     0.043 C
HETATM   10  C12 UNL     1     -24.050   5.175 -43.184  1.00  0.00     0.084 C
HETATM   11  C13 UNL     1     -22.799   4.569 -43.773  1.00  0.00     0.139 C
HETATM   12  O1  UNL     1     -22.704   3.386 -43.897  1.00  0.00    -0.297 OA
HETATM   13  C14 UNL     1     -21.917   5.691 -44.078  1.00  0.00     0.119 C
HETATM   14  C15 UNL     1     -22.320   6.348 -45.324  1.00  0.00    -0.022 A
HETATM   15  C16 UNL     1     -23.131   7.408 -45.695  1.00  0.00    -0.017 A
HETATM   16  C17 UNL     1     -23.322   7.746 -47.022  1.00  0.00     0.075 A
HETATM   17  C19 UNL     1     -22.716   7.046 -48.010  1.00  0.00     0.049 A
HETATM   18  C20 UNL     1     -21.889   5.975 -47.675  1.00  0.00    -0.020 A
HETATM   19  C21 UNL     1     -21.266   5.287 -48.691  1.00  0.00     0.051 A
HETATM   20  C22 UNL     1     -20.422   4.236 -48.430  1.00  0.00     0.099 A
HETATM   21  C23 UNL     1     -20.207   3.878 -47.133  1.00  0.00     0.102 A
HETATM   22  C25 UNL     1     -20.843   4.581 -46.121  1.00  0.00     0.052 A
HETATM   23  C26 UNL     1     -21.695   5.633 -46.339  1.00  0.00    -0.015 A
HETATM   24  C27 UNL     1     -23.897   8.433 -44.997  1.00  0.00     0.043 C
HETATM   25  C28 UNL     1     -22.968   9.454 -44.347  1.00  0.00     0.016 C
HETATM   26  C29 UNL     1     -22.671   9.008 -42.968  1.00  0.00     0.053 C
HETATM   27  C30 UNL     1     -22.037  10.205 -42.216  1.00  0.00     0.263 C
ENDROOT
BRANCH   1  28
HETATM   28  C4  UNL     1     -23.303  12.194 -41.682  1.00  0.00     0.277 C
BRANCH  28  29
HETATM   29  C3  UNL     1     -24.522  12.739 -42.374  1.00  0.00     0.056 C
BRANCH  29  30
HETATM   30  C2  UNL     1     -24.162  13.815 -43.336  1.00  0.00    -0.035 C
HETATM   31  C1  UNL     1     -23.401  14.845 -42.985  1.00  0.00     0.007 C
ENDBRANCH  29  30
ENDBRANCH  28  29
ENDBRANCH   1  28
BRANCH  16  32
HETATM   32  O2  UNL     1     -24.143   8.814 -47.319  1.00  0.00    -0.355 OA
HETATM   33  C18 UNL     1     -25.536   8.643 -47.481  1.00  0.00     0.210 C
ENDBRANCH  16  32
BRANCH  21  34
HETATM   34  O4  UNL     1     -19.381   2.844 -46.821  1.00  0.00    -0.353 OA
HETATM   35  C24 UNL     1     -18.998   2.259 -45.651  1.00  0.00     0.210 C
ENDBRANCH  21  34
BRANCH  20  36
HETATM   36  O3  UNL     1     -19.787   3.536 -49.480  1.00  0.00    -0.358 OA
ATOM     37  H3  UNL     1     -20.022   2.638 -49.683  1.00  0.00     0.217 HD
ENDBRANCH  20  36
TORSDOF 6
ENDMDL