MODEL 4
REMARK VINA RESULT: -10.701330116      4.336      8.010
REMARK  5 active torsions:
REMARK  status: ('A' for Active; 'I' for Inactive)
REMARK    1  A    between atoms: C3_3  and  C4_4
REMARK    2  A    between atoms: N1_23  and  O1_25
REMARK    3  A    between atoms: O1_25  and  C22_26
REMARK    4  A    between atoms: C22_26  and  C23_27
REMARK    5  A    between atoms: C23_27  and  N2_28
ROOT
HETATM    1  C1  UNL     1     -21.839  11.860 -43.062  1.00  0.00     0.011 C
HETATM    2  C2  UNL     1     -22.030  11.405 -41.684  1.00  0.00    -0.000 C
HETATM    3  C3  UNL     1     -22.518  12.492 -40.699  1.00  0.00     0.024 C
HETATM    4  C10 UNL     1     -23.909  12.121 -40.327  1.00  0.00     0.019 C
HETATM    5  C11 UNL     1     -24.253  10.986 -41.170  1.00  0.00    -0.035 C
HETATM    6  C12 UNL     1     -24.943  11.415 -42.408  1.00  0.00     0.016 C
HETATM    7  C13 UNL     1     -25.036   9.840 -40.638  1.00  0.00     0.010 C
HETATM    8  C14 UNL     1     -24.596   8.745 -41.611  1.00  0.00     0.007 C
HETATM    9  C15 UNL     1     -23.289   9.211 -42.246  1.00  0.00     0.007 C
HETATM   10  C16 UNL     1     -22.295   8.111 -42.472  1.00  0.00    -0.016 C
HETATM   11  C17 UNL     1     -22.689   6.787 -41.886  1.00  0.00     0.020 C
HETATM   12  C18 UNL     1     -22.138   7.877 -43.957  1.00  0.00     0.014 C
HETATM   13  C19 UNL     1     -21.106   6.940 -44.400  1.00  0.00     0.007 C
HETATM   14  C20 UNL     1     -19.850   7.766 -44.729  1.00  0.00     0.059 C
HETATM   15  C21 UNL     1     -19.182   8.173 -43.458  1.00  0.00     0.032 C
HETATM   16  N1  UNL     1     -17.907   8.188 -43.574  1.00  0.00    -0.271 N
ATOM     17  H1  UNL     1     -17.534   7.930 -44.488  1.00  0.00     0.194 HD
HETATM   18  C28 UNL     1     -19.765   8.526 -42.195  1.00  0.00     0.030 C
HETATM   19  C29 UNL     1     -21.036   8.498 -41.801  1.00  0.00    -0.069 C
HETATM   20  C30 UNL     1     -21.098   8.957 -40.401  1.00  0.00     0.036 C
HETATM   21  C31 UNL     1     -22.404   9.694 -40.070  1.00  0.00     0.015 C
HETATM   22  C32 UNL     1     -22.905  10.309 -41.356  1.00  0.00    -0.024 C
ENDROOT
BRANCH  16  23
HETATM   23  O1  UNL     1     -16.997   8.508 -42.622  1.00  0.00    -0.279 OA
BRANCH  23  24
HETATM   24  C22 UNL     1     -15.658   8.085 -42.750  1.00  0.00     0.231 C
BRANCH  24  25
HETATM   25  C23 UNL     1     -14.743   9.283 -42.995  1.00  0.00     0.301 C
BRANCH  25  26
HETATM   26  N2  UNL     1     -14.344   9.245 -44.361  1.00  0.00     0.094 N
HETATM   27  C24 UNL     1     -14.562   7.975 -44.959  1.00  0.00     0.298 C
HETATM   28  C25 UNL     1     -15.188   8.152 -46.334  1.00  0.00     0.198 C
HETATM   29  O2  UNL     1     -16.368   8.877 -46.118  1.00  0.00    -0.388 OA
HETATM   30  C26 UNL     1     -16.031  10.190 -45.887  1.00  0.00     0.198 C
HETATM   31  C27 UNL     1     -14.791  10.389 -45.075  1.00  0.00     0.298 C
ENDBRANCH  25  26
ENDBRANCH  24  25
ENDBRANCH  23  24
ENDBRANCH  16  23
BRANCH   3  32
HETATM   32  C4  UNL     1     -22.249  13.842 -41.161  1.00  0.00    -0.051 A
HETATM   33  C5  UNL     1     -22.947  14.278 -42.262  1.00  0.00     0.007 A
HETATM   34  C6  UNL     1     -22.761  15.533 -42.792  1.00  0.00     0.004 A
HETATM   35  C7  UNL     1     -21.848  16.381 -42.200  1.00  0.00     0.042 A
HETATM   36  C8  UNL     1     -21.153  15.934 -41.096  1.00  0.00     0.116 A
HETATM   37  F1  UNL     1     -20.261  16.814 -40.553  1.00  0.00    -0.206 F
HETATM   38  C9  UNL     1     -21.344  14.676 -40.570  1.00  0.00     0.049 A
ENDBRANCH   3  32
TORSDOF 5
ENDMDL