MODEL 5
REMARK VINA RESULT: -9.094914777      2.842      6.000
REMARK  7 active torsions:
REMARK  status: ('A' for Active; 'I' for Inactive)
REMARK    1  A    between atoms: C9_9  and  O1_10
REMARK    2  A    between atoms: O1_10  and  C10_11
REMARK    3  A    between atoms: C10_11  and  C11_13
REMARK    4  A    between atoms: C20_23  and  O3_24
REMARK    5  A    between atoms: O3_24  and  N1_25
REMARK    6  A    between atoms: C21_27  and  C22_28
REMARK       I    between atoms: C22_28  and  N2_30
REMARK    7  A    between atoms: N2_30  and  C23_32
ROOT
HETATM    1  C1  UNL     1     -24.653   4.281 -44.065  1.00  0.00     0.015 C
HETATM    2  C2  UNL     1     -23.312   4.772 -43.524  1.00  0.00    -0.040 C
HETATM    3  C3  UNL     1     -22.277   3.697 -43.757  1.00  0.00     0.015 C
HETATM    4  C4  UNL     1     -23.475   4.953 -42.031  1.00  0.00     0.010 C
HETATM    5  C5  UNL     1     -23.726   6.420 -41.810  1.00  0.00     0.007 C
HETATM    6  C6  UNL     1     -23.241   7.151 -43.043  1.00  0.00     0.003 C
HETATM    7  C7  UNL     1     -22.018   7.963 -42.691  1.00  0.00     0.024 C
HETATM    8  C8  UNL     1     -22.404   9.065 -41.771  1.00  0.00     0.042 C
HETATM    9  C9  UNL     1     -22.463  10.362 -42.501  1.00  0.00     0.133 C
HETATM   10  C17 UNL     1     -21.037  10.684 -42.966  1.00  0.00     0.037 C
HETATM   11  C18 UNL     1     -20.797   9.764 -44.147  1.00  0.00     0.040 C
HETATM   12  C19 UNL     1     -21.261   8.393 -43.891  1.00  0.00    -0.043 C
HETATM   13  C20 UNL     1     -20.989   7.461 -44.791  1.00  0.00     0.080 C
HETATM   14  C28 UNL     1     -21.479   6.090 -44.489  1.00  0.00     0.077 C
HETATM   15  C29 UNL     1     -22.940   6.100 -44.089  1.00  0.00    -0.027 C
HETATM   16  C30 UNL     1     -23.732   6.426 -45.333  1.00  0.00     0.016 C
ENDROOT
BRANCH  13  17
HETATM   17  O3  UNL     1     -20.301   7.715 -45.938  1.00  0.00    -0.242 OA
BRANCH  17  18
HETATM   18  N1  UNL     1     -20.657   7.433 -47.212  1.00  0.00    -0.267 N
HETATM   19  C21 UNL     1     -20.156   8.076 -48.205  1.00  0.00     0.188 C
ATOM     20  H1  UNL     1     -21.338   6.694 -47.388  1.00  0.00     0.194 HD
BRANCH  19  21
HETATM   21  C22 UNL     1     -19.191   9.124 -47.962  1.00  0.00     0.259 C
HETATM   22  O4  UNL     1     -19.361  10.255 -48.474  1.00  0.00    -0.267 OA
HETATM   23  N2  UNL     1     -18.041   8.879 -47.141  1.00  0.00    -0.352 N
ATOM     24  H2  UNL     1     -17.918   7.952 -46.733  1.00  0.00     0.163 HD
BRANCH  23  25
HETATM   25  C23 UNL     1     -17.060   9.885 -46.873  1.00  0.00     0.084 C
HETATM   26  C24 UNL     1     -16.833  10.149 -45.420  1.00  0.00     0.025 C
HETATM   27  C25 UNL     1     -15.320  10.120 -45.227  1.00  0.00     0.002 C
HETATM   28  C26 UNL     1     -14.803  10.489 -46.623  1.00  0.00     0.002 C
HETATM   29  C27 UNL     1     -15.714   9.629 -47.486  1.00  0.00     0.025 C
ENDBRANCH  23  25
ENDBRANCH  19  21
ENDBRANCH  17  18
ENDBRANCH  13  17
BRANCH   9  30
HETATM   30  O1  UNL     1     -22.868  11.446 -41.683  1.00  0.00    -0.312 OA
BRANCH  30  31
HETATM   31  C10 UNL     1     -23.330  12.646 -42.199  1.00  0.00     0.293 C
HETATM   32  O2  UNL     1     -24.369  12.640 -42.903  1.00  0.00    -0.259 OA
BRANCH  31  33
HETATM   33  C11 UNL     1     -22.670  13.917 -41.967  1.00  0.00     0.039 A
HETATM   34  C12 UNL     1     -22.927  14.969 -42.810  1.00  0.00     0.020 A
HETATM   35  C13 UNL     1     -22.301  16.205 -42.606  1.00  0.00     0.043 A
HETATM   36  C14 UNL     1     -21.429  16.365 -41.561  1.00  0.00     0.116 A
HETATM   37  F1  UNL     1     -20.805  17.566 -41.344  1.00  0.00    -0.206 F
HETATM   38  C15 UNL     1     -21.159  15.322 -40.706  1.00  0.00     0.043 A
HETATM   39  C16 UNL     1     -21.791  14.112 -40.931  1.00  0.00     0.020 A
ENDBRANCH  31  33
ENDBRANCH  30  31
ENDBRANCH   9  30
TORSDOF 7
ENDMDL