MODEL 2
REMARK VINA RESULT: -8.479594199      4.012      6.689
REMARK  10 active torsions:
REMARK  status: ('A' for Active; 'I' for Inactive)
REMARK    1  A    between atoms: C1_2  and  C2_4
REMARK    2  A    between atoms: C4_10  and  N4_11
REMARK    3  A    between atoms: N4_11  and  C5_13
REMARK    4  A    between atoms: C5_13  and  O2_14
REMARK    5  A    between atoms: C5_13  and  C6_16
REMARK    6  A    between atoms: C6_16  and  N5_17
REMARK    7  A    between atoms: C8_19  and  C9_20
REMARK       I    between atoms: C9_20  and  N6_22
REMARK    8  A    between atoms: C13_37  and  O4_38
REMARK    9  A    between atoms: C15_41  and  N13_42
REMARK   10  A    between atoms: N13_42  and  O5_43
ROOT
HETATM    1  N4  UNL     1     -34.638 -20.598  21.281  1.00  0.00    -0.361 N
ATOM      2  H4  UNL     1     -35.305 -20.545  20.510  1.00  0.00     0.162 HD
ENDROOT
BRANCH   1   3
HETATM    3  C4  UNL     1     -33.256 -20.511  20.996  1.00  0.00     0.059 A
HETATM    4  C3  UNL     1     -32.656 -19.298  20.723  1.00  0.00     0.091 A
HETATM    5  N3  UNL     1     -33.340 -18.146  20.719  1.00  0.00    -0.297 N
HETATM    6  C14 UNL     1     -31.313 -19.267  20.443  1.00  0.00     0.073 A
HETATM    7  N2  UNL     1     -32.785 -16.994  20.464  1.00  0.00    -0.292 N
ATOM      8  H3  UNL     1     -34.340 -18.171  20.926  1.00  0.00     0.187 HD
HETATM    9  C2  UNL     1     -31.456 -16.854  20.174  1.00  0.00     0.158 A
ATOM     10  H2  UNL     1     -33.369 -16.158  20.481  1.00  0.00     0.187 HD
HETATM   11  C15 UNL     1     -30.705 -18.011  20.164  1.00  0.00     0.188 A
HETATM   12  C13 UNL     1     -30.566 -20.424  20.435  1.00  0.00     0.081 A
HETATM   13  C12 UNL     1     -31.176 -21.624  20.709  1.00  0.00     0.040 A
HETATM   14  C11 UNL     1     -32.507 -21.699  20.991  1.00  0.00     0.034 A
BRANCH   9  15
HETATM   15  C1  UNL     1     -30.924 -15.543  19.903  1.00  0.00     0.286 C
HETATM   16  N1  UNL     1     -31.101 -14.801  18.742  1.00  0.00    -0.056 NA
HETATM   17  O1  UNL     1     -30.213 -15.007  20.830  1.00  0.00    -0.269 OA
ENDBRANCH   9  15
BRANCH  11  18
HETATM   18  N13 UNL     1     -29.528 -18.038  19.926  1.00  0.00    -0.280 NA
BRANCH  18  19
HETATM   19  O5  UNL     1     -28.369 -17.782  19.522  1.00  0.00    -0.218 OA
ATOM     20  H5  UNL     1     -27.600 -17.372  19.144  1.00  0.00     0.261 HD
ENDBRANCH  18  19
ENDBRANCH  11  18
BRANCH  12  21
HETATM   21  O4  UNL     1     -29.216 -20.347  20.149  1.00  0.00    -0.360 OA
ATOM     22  H4  UNL     1     -28.633 -21.082  20.296  1.00  0.00     0.217 HD
ENDBRANCH  12  21
ENDBRANCH   1   3
BRANCH   1  23
HETATM   23  C5  UNL     1     -35.142 -20.759  22.634  1.00  0.00     0.238 C
BRANCH  23  24
HETATM   24  O2  UNL     1     -34.322 -20.180  23.583  1.00  0.00    -0.375 OA
ATOM     25  H2  UNL     1     -34.137 -20.759  24.313  1.00  0.00     0.212 HD
ENDBRANCH  23  24
BRANCH  23  26
HETATM   26  C6  UNL     1     -36.564 -20.308  22.723  1.00  0.00     0.203 C
BRANCH  26  27
HETATM   27  N5  UNL     1     -36.677 -18.936  22.266  1.00  0.00    -0.283 N
HETATM   28  C7  UNL     1     -37.345 -18.507  21.166  1.00  0.00     0.148 A
HETATM   29  C8  UNL     1     -37.224 -17.138  21.065  1.00  0.00     0.134 A
HETATM   30  N11 UNL     1     -36.474 -16.772  22.125  1.00  0.00    -0.280 N
HETATM   31  N12 UNL     1     -36.164 -17.854  22.820  1.00  0.00    -0.240 N
ATOM     32  H11 UNL     1     -36.192 -15.818  22.353  1.00  0.00     0.189 HD
ATOM     33  H12 UNL     1     -35.602 -17.852  23.671  1.00  0.00     0.208 HD
BRANCH  29  34
HETATM   34  C9  UNL     1     -37.777 -16.253  20.046  1.00  0.00     0.277 C
HETATM   35  O3  UNL     1     -38.832 -15.629  20.326  1.00  0.00    -0.265 OA
HETATM   36  N6  UNL     1     -37.187 -16.072  18.784  1.00  0.00    -0.291 N
HETATM   37  C10 UNL     1     -37.750 -16.389  17.673  1.00  0.00     0.212 C
ATOM     38  H6  UNL     1     -36.253 -15.662  18.747  1.00  0.00     0.172 HD
HETATM   39  N7  UNL     1     -39.023 -16.967  17.424  1.00  0.00    -0.256 N
HETATM   40  N10 UNL     1     -37.163 -16.210  16.394  1.00  0.00    -0.256 N
HETATM   41  N8  UNL     1     -39.151 -17.196  16.053  1.00  0.00    -0.006 NA
ATOM     42  H7  UNL     1     -39.728 -17.179  18.131  1.00  0.00     0.187 HD
HETATM   43  N9  UNL     1     -38.070 -16.636  15.414  1.00  0.00    -0.006 NA
ATOM     44  H10 UNL     1     -36.232 -15.832  16.216  1.00  0.00     0.187 HD
ENDBRANCH  29  34
ENDBRANCH  26  27
ENDBRANCH  23  26
ENDBRANCH   1  23
TORSDOF 10
ENDMDL