MODEL 1
REMARK VINA RESULT: -7.189532214      0.000      0.000
REMARK  11 active torsions:
REMARK  status: ('A' for Active; 'I' for Inactive)
REMARK    1  A    between atoms: N1_2  and  C2_4
REMARK    2  A    between atoms: N2_5  and  C3_6
REMARK    3  A    between atoms: C3_6  and  C4_7
REMARK    4  A    between atoms: C4_7  and  N3_8
REMARK    5  A    between atoms: C6_14  and  C7_15
REMARK    6  A    between atoms: C7_15  and  C8_20
REMARK    7  A    between atoms: N5_16  and  O1_18
REMARK    8  A    between atoms: C9_23  and  C10_24
REMARK    9  A    between atoms: C12_29  and  N9_30
REMARK   10  A    between atoms: N13_43  and  C15_44
REMARK   11  A    between atoms: C15_44  and  O4_45
ROOT
HETATM    1  C7  UNL     1     -31.535 -24.514  18.099  1.00  0.00     0.118 C
HETATM    2  N5  UNL     1     -30.442 -24.667  17.341  1.00  0.00    -0.264 N
ATOM      3  H5  UNL     1     -30.448 -25.328  16.563  1.00  0.00     0.194 HD
ENDROOT
BRANCH   1   4
HETATM    4  C6  UNL     1     -32.656 -25.328  17.724  1.00  0.00     0.107 A
HETATM    5  C5  UNL     1     -33.950 -24.837  17.937  1.00  0.00     0.152 A
HETATM    6  N2  UNL     1     -35.067 -25.468  17.514  1.00  0.00    -0.167 N
HETATM    7  N4  UNL     1     -34.130 -23.608  18.593  1.00  0.00    -0.081 NA
HETATM    8  C2  UNL     1     -34.971 -26.627  16.849  1.00  0.00     0.691 A
HETATM    9  N13 UNL     1     -33.692 -27.118  16.635  1.00  0.00    -0.124 N
HETATM   10  C14 UNL     1     -32.583 -26.503  17.050  1.00  0.00     0.279 A
HETATM   11  O3  UNL     1     -31.486 -27.084  16.764  1.00  0.00    -0.266 OA
BRANCH   6  12
HETATM   12  C3  UNL     1     -36.362 -24.880  17.793  1.00  0.00     0.176 C
BRANCH  12  13
HETATM   13  C4  UNL     1     -36.862 -23.946  16.721  1.00  0.00     0.250 C
BRANCH  13  14
HETATM   14  N3  UNL     1     -36.871 -22.551  17.081  1.00  0.00    -0.078 N
ATOM     15  H33 UNL     1     -37.164 -22.441  18.052  1.00  0.00     0.274 HD
ATOM     16  H32 UNL     1     -35.917 -22.198  17.141  1.00  0.00     0.274 HD
ATOM     17  H31 UNL     1     -37.431 -21.951  16.475  1.00  0.00     0.274 HD
ENDBRANCH  13  14
ENDBRANCH  12  13
ENDBRANCH   6  12
BRANCH   8  18
HETATM   18  N1  UNL     1     -35.893 -27.274  16.354  1.00  0.00    -0.211 N
HETATM   19  C1  UNL     1     -36.756 -27.462  15.355  1.00  0.00     0.137 C
ATOM     20  H1  UNL     1     -36.089 -28.018  17.024  1.00  0.00     0.182 HD
ENDBRANCH   8  18
BRANCH   9  21
HETATM   21  C15 UNL     1     -33.563 -28.389  15.911  1.00  0.00     0.317 C
BRANCH  21  22
HETATM   22  O4  UNL     1     -32.855 -28.223  14.733  1.00  0.00    -0.381 OA
ATOM     23  H4  UNL     1     -31.923 -28.347  14.873  1.00  0.00     0.211 HD
ENDBRANCH  21  22
ENDBRANCH   9  21
ENDBRANCH   1   4
BRANCH   1  24
HETATM   24  C8  UNL     1     -31.370 -23.571  19.186  1.00  0.00     0.151 A
HETATM   25  N6  UNL     1     -31.252 -22.204  18.981  1.00  0.00    -0.324 N
HETATM   26  C9  UNL     1     -31.224 -21.543  20.121  1.00  0.00     0.141 A
ATOM     27  H6  UNL     1     -31.193 -21.765  18.063  1.00  0.00     0.169 HD
HETATM   28  N11 UNL     1     -31.325 -22.446  21.095  1.00  0.00    -0.283 N
HETATM   29  N12 UNL     1     -31.413 -23.656  20.514  1.00  0.00    -0.282 N
ATOM     30  H11 UNL     1     -31.333 -22.255  22.097  1.00  0.00     0.188 HD
ATOM     31  H12 UNL     1     -31.501 -24.533  21.028  1.00  0.00     0.188 HD
BRANCH  26  32
HETATM   32  C10 UNL     1     -31.104 -20.072  20.308  1.00  0.00     0.119 A
HETATM   33  C11 UNL     1     -32.247 -19.350  20.493  1.00  0.00     0.151 A
HETATM   34  N7  UNL     1     -33.521 -19.983  20.507  1.00  0.00    -0.081 NA
HETATM   35  N8  UNL     1     -32.115 -18.015  20.661  1.00  0.00    -0.178 N
HETATM   36  C12 UNL     1     -30.928 -17.388  20.653  1.00  0.00     0.680 A
ATOM     37  H8  UNL     1     -32.958 -17.457  20.801  1.00  0.00     0.185 HD
HETATM   38  N10 UNL     1     -29.831 -18.137  20.468  1.00  0.00    -0.155 N
HETATM   39  C13 UNL     1     -29.849 -19.466  20.292  1.00  0.00     0.277 A
ATOM     40  H10 UNL     1     -28.926 -17.666  20.462  1.00  0.00     0.187 HD
HETATM   41  O2  UNL     1     -28.816 -20.154  20.121  1.00  0.00    -0.267 OA
BRANCH  36  42
HETATM   42  N9  UNL     1     -30.848 -16.090  20.819  1.00  0.00    -0.234 N
ATOM     43  H92 UNL     1     -30.210 -15.680  21.501  1.00  0.00     0.174 HD
ATOM     44  H91 UNL     1     -31.425 -15.454  20.268  1.00  0.00     0.174 HD
ENDBRANCH  36  42
ENDBRANCH  26  32
ENDBRANCH   1  24
BRANCH   2  45
HETATM   45  O1  UNL     1     -29.338 -23.951  17.606  1.00  0.00    -0.289 OA
ATOM     46  H1  UNL     1     -28.538 -24.117  17.121  1.00  0.00     0.244 HD
ENDBRANCH   2  45
TORSDOF 11
ENDMDL