MODEL 2
REMARK VINA RESULT: -7.438131940      1.876      2.523
REMARK  10 active torsions:
REMARK  status: ('A' for Active; 'I' for Inactive)
REMARK    1  A    between atoms: C2_2  and  O1_3
REMARK    2  A    between atoms: C2_2  and  C3_5
REMARK    3  A    between atoms: C3_5  and  N1_6
REMARK    4  A    between atoms: C3_5  and  C15_41
REMARK       I    between atoms: N1_6  and  C4_8
REMARK       I    between atoms: C4_8  and  N2_10
REMARK    5  A    between atoms: C7_13  and  N3_14
REMARK       I    between atoms: N3_14  and  C8_16
REMARK    6  A    between atoms: C8_16  and  C9_18
REMARK    7  A    between atoms: C9_18  and  C10_19
REMARK    8  A    between atoms: C12_31  and  N9_32
REMARK    9  A    between atoms: C15_41  and  O5_42
REMARK   10  A    between atoms: N11_44  and  O6_46
ROOT
HETATM    1  N3  UNL     1     -34.618 -24.458  19.729  1.00  0.00    -0.323 N
ATOM      2  H3  UNL     1     -34.948 -24.875  20.600  1.00  0.00     0.169 HD
HETATM    3  C8  UNL     1     -34.802 -25.144  18.506  1.00  0.00     0.277 C
HETATM    4  O3  UNL     1     -34.454 -24.753  17.389  1.00  0.00    -0.269 OA
ENDROOT
BRANCH   3   5
HETATM    5  C9  UNL     1     -35.488 -26.480  18.562  1.00  0.00     0.348 C
HETATM    6  N8  UNL     1     -34.644 -27.514  19.076  1.00  0.00     0.005 N
HETATM    7  C12 UNL     1     -35.424 -28.353  19.930  1.00  0.00     0.487 C
ATOM      8  H82 UNL     1     -34.170 -28.036  18.339  1.00  0.00     0.284 HD
ATOM      9  H81 UNL     1     -33.813 -27.146  19.541  1.00  0.00     0.284 HD
HETATM   10  N10 UNL     1     -36.751 -27.778  20.000  1.00  0.00    -0.308 N
HETATM   11  C13 UNL     1     -36.621 -26.453  19.517  1.00  0.00     0.275 C
ATOM     12  H10 UNL     1     -37.602 -28.233  20.329  1.00  0.00     0.166 HD
HETATM   13  O4  UNL     1     -37.332 -25.467  19.845  1.00  0.00    -0.270 OA
BRANCH   5  14
HETATM   14  C10 UNL     1     -36.053 -26.829  17.210  1.00  0.00     0.170 A
HETATM   15  N4  UNL     1     -35.433 -27.542  16.255  1.00  0.00    -0.269 N
HETATM   16  N5  UNL     1     -36.261 -27.620  15.239  1.00  0.00    -0.225 N
ATOM     17  H4  UNL     1     -34.497 -27.946  16.310  1.00  0.00     0.190 HD
HETATM   18  N6  UNL     1     -37.386 -26.993  15.491  1.00  0.00    -0.223 N
ATOM     19  H5  UNL     1     -36.056 -28.105  14.366  1.00  0.00     0.210 HD
HETATM   20  C11 UNL     1     -38.517 -26.880  14.591  1.00  0.00     0.202 C
HETATM   21  N7  UNL     1     -37.252 -26.505  16.714  1.00  0.00    -0.267 N
ATOM     22  H7  UNL     1     -37.959 -25.961  17.207  1.00  0.00     0.190 HD
ENDBRANCH   5  14
BRANCH   7  23
HETATM   23  N9  UNL     1     -35.436 -29.714  19.427  1.00  0.00    -0.033 N
ATOM     24  H93 UNL     1     -36.327 -29.950  18.990  1.00  0.00     0.278 HD
ATOM     25  H92 UNL     1     -34.833 -29.823  18.611  1.00  0.00     0.278 HD
ATOM     26  H91 UNL     1     -35.192 -30.370  20.171  1.00  0.00     0.278 HD
ENDBRANCH   7  23
ENDBRANCH   3   5
BRANCH   1  27
HETATM   27  C7  UNL     1     -33.980 -23.195  19.751  1.00  0.00     0.052 A
HETATM   28  C6  UNL     1     -34.513 -22.093  19.069  1.00  0.00     0.048 A
HETATM   29  C5  UNL     1     -33.639 -21.060  19.313  1.00  0.00     0.103 A
HETATM   30  N2  UNL     1     -32.631 -21.437  20.077  1.00  0.00    -0.283 N
HETATM   31  C4  UNL     1     -31.525 -20.654  20.549  1.00  0.00     0.327 C
HETATM   32  C14 UNL     1     -32.839 -22.755  20.349  1.00  0.00     0.130 A
HETATM   33  N1  UNL     1     -31.409 -19.289  20.204  1.00  0.00    -0.328 N
HETATM   34  O2  UNL     1     -30.651 -21.206  21.281  1.00  0.00    -0.246 OA
ATOM     35  H1  UNL     1     -32.117 -18.851  19.614  1.00  0.00     0.165 HD
BRANCH  33  36
HETATM   36  C3  UNL     1     -30.296 -18.518  20.682  1.00  0.00     0.191 C
BRANCH  36  37
HETATM   37  C2  UNL     1     -30.699 -17.398  21.613  1.00  0.00     0.144 C
HETATM   38  C1  UNL     1     -31.220 -16.195  20.882  1.00  0.00     0.042 C
BRANCH  37  39
HETATM   39  O1  UNL     1     -29.596 -17.034  22.379  1.00  0.00    -0.393 OA
ATOM     40  H1  UNL     1     -29.734 -17.301  23.280  1.00  0.00     0.210 HD
ENDBRANCH  37  39
ENDBRANCH  36  37
BRANCH  36  41
HETATM   41  C15 UNL     1     -29.589 -17.958  19.476  1.00  0.00     0.161 C
HETATM   42  N11 UNL     1     -30.203 -17.974  18.349  1.00  0.00    -0.249 N
ATOM     43  H11 UNL     1     -31.145 -18.359  18.278  1.00  0.00     0.196 HD
BRANCH  41  44
HETATM   44  O5  UNL     1     -28.315 -17.438  19.571  1.00  0.00    -0.346 OA
ATOM     45  H5  UNL     1     -28.029 -16.973  20.348  1.00  0.00     0.219 HD
ENDBRANCH  41  44
BRANCH  42  46
HETATM   46  O6  UNL     1     -29.572 -17.468  17.244  1.00  0.00    -0.288 OA
ATOM     47  H6  UNL     1     -29.008 -18.037  16.735  1.00  0.00     0.244 HD
ENDBRANCH  42  46
ENDBRANCH  36  41
ENDBRANCH  33  36
ENDBRANCH   1  27
TORSDOF 10
ENDMDL