MODEL 5
REMARK VINA RESULT: -6.267799633      2.716      4.286
REMARK  13 active torsions:
REMARK  status: ('A' for Active; 'I' for Inactive)
REMARK    1  A    between atoms: C3_4  and  O2_5
REMARK    2  A    between atoms: O2_5  and  C4_6
REMARK    3  A    between atoms: C6_8  and  O3_9
REMARK    4  A    between atoms: O3_9  and  C7_10
REMARK    5  A    between atoms: C8_12  and  C9_13
REMARK    6  A    between atoms: C9_13  and  N1_14
REMARK    7  A    between atoms: C10_18  and  O5_19
REMARK    8  A    between atoms: C12_22  and  N2_23
REMARK    9  A    between atoms: N2_23  and  O6_24
REMARK   10  A    between atoms: C13_26  and  N3_27
REMARK   11  A    between atoms: C15_32  and  N4_33
REMARK   12  A    between atoms: C16_37  and  O7_38
REMARK   13  A    between atoms: C17_41  and  O9_42
ROOT
HETATM    1  C4  UNL     1     -33.999 -18.320  20.959  1.00  0.00     0.157 C
HETATM    2  C5  UNL     1     -33.880 -19.737  20.430  1.00  0.00     0.068 C
HETATM    3  C6  UNL     1     -34.861 -20.651  21.133  1.00  0.00     0.157 C
HETATM    4  C13 UNL     1     -36.269 -20.173  21.029  1.00  0.00     0.214 C
HETATM    5  C14 UNL     1     -36.382 -18.828  20.343  1.00  0.00     0.070 C
HETATM    6  C15 UNL     1     -35.411 -17.814  20.905  1.00  0.00     0.214 C
ENDROOT
BRANCH   3   7
HETATM    7  O3  UNL     1     -34.771 -21.908  20.503  1.00  0.00    -0.352 OA
BRANCH   7   8
HETATM    8  C7  UNL     1     -33.444 -22.245  20.267  1.00  0.00     0.282 C
HETATM    9  O4  UNL     1     -33.099 -23.242  21.188  1.00  0.00    -0.350 OA
HETATM   10  C8  UNL     1     -31.744 -23.582  21.054  1.00  0.00     0.178 C
HETATM   11  C10 UNL     1     -31.413 -24.023  19.670  1.00  0.00     0.150 C
HETATM   12  C11 UNL     1     -32.723 -24.181  18.887  1.00  0.00     0.063 C
HETATM   13  C12 UNL     1     -33.355 -22.786  18.847  1.00  0.00     0.164 C
BRANCH  10  14
HETATM   14  C9  UNL     1     -31.484 -24.701  22.029  1.00  0.00     0.264 C
BRANCH  14  15
HETATM   15  N1  UNL     1     -30.246 -24.553  22.757  1.00  0.00    -0.077 N
ATOM     16  H13 UNL     1     -29.488 -24.283  22.130  1.00  0.00     0.274 HD
ATOM     17  H12 UNL     1     -30.274 -23.726  23.355  1.00  0.00     0.274 HD
ATOM     18  H11 UNL     1     -29.991 -25.380  23.297  1.00  0.00     0.274 HD
ENDBRANCH  14  15
ENDBRANCH  10  14
BRANCH  11  19
HETATM   19  O5  UNL     1     -30.772 -25.254  19.712  1.00  0.00    -0.393 OA
ATOM     20  H5  UNL     1     -31.288 -25.900  19.246  1.00  0.00     0.210 HD
ENDBRANCH  11  19
BRANCH  13  21
HETATM   21  N2  UNL     1     -34.661 -22.849  18.225  1.00  0.00    -0.094 NA
BRANCH  21  22
HETATM   22  O6  UNL     1     -35.021 -21.652  17.749  1.00  0.00    -0.295 OA
ATOM     23  H6  UNL     1     -35.873 -21.396  18.083  1.00  0.00     0.238 HD
ENDBRANCH  21  22
ENDBRANCH  13  21
ENDBRANCH   7   8
ENDBRANCH   3   7
BRANCH   4  24
HETATM   24  N3  UNL     1     -37.115 -21.099  20.272  1.00  0.00    -0.072 N
ATOM     25  H33 UNL     1     -37.123 -20.864  19.279  1.00  0.00     0.274 HD
ATOM     26  H32 UNL     1     -36.690 -22.024  20.215  1.00  0.00     0.274 HD
ATOM     27  H31 UNL     1     -38.062 -21.151  20.647  1.00  0.00     0.274 HD
ENDBRANCH   4  24
BRANCH   1  28
HETATM   28  O2  UNL     1     -33.099 -17.560  20.237  1.00  0.00    -0.349 OA
BRANCH  28  29
HETATM   29  C3  UNL     1     -31.961 -17.336  21.005  1.00  0.00     0.315 C
HETATM   30  O1  UNL     1     -31.081 -18.402  20.970  1.00  0.00    -0.346 OA
HETATM   31  C2  UNL     1     -30.419 -18.550  19.771  1.00  0.00     0.175 C
HETATM   32  C1  UNL     1     -29.137 -19.311  20.056  1.00  0.00     0.044 C
HETATM   33  C17 UNL     1     -30.042 -17.267  19.106  1.00  0.00     0.288 C
HETATM   34  O8  UNL     1     -31.034 -16.299  19.138  1.00  0.00    -0.324 OA
HETATM   35  C16 UNL     1     -31.317 -16.057  20.487  1.00  0.00     0.315 C
BRANCH  33  36
HETATM   36  O9  UNL     1     -29.780 -17.544  17.748  1.00  0.00    -0.369 OA
ATOM     37  H9  UNL     1     -29.559 -16.725  17.320  1.00  0.00     0.212 HD
ENDBRANCH  33  36
BRANCH  35  38
HETATM   38  O7  UNL     1     -30.104 -15.913  21.170  1.00  0.00    -0.367 OA
ATOM     39  H7  UNL     1     -30.301 -15.991  22.096  1.00  0.00     0.212 HD
ENDBRANCH  35  38
ENDBRANCH  28  29
ENDBRANCH   1  28
BRANCH   6  40
HETATM   40  N4  UNL     1     -35.451 -16.667  20.023  1.00  0.00    -0.072 N
ATOM     41  H43 UNL     1     -34.544 -16.209  19.933  1.00  0.00     0.274 HD
ATOM     42  H42 UNL     1     -35.571 -16.929  19.045  1.00  0.00     0.274 HD
ATOM     43  H41 UNL     1     -36.180 -16.033  20.352  1.00  0.00     0.274 HD
ENDBRANCH   6  40
TORSDOF 13
ENDMDL