MODEL 2
REMARK VINA RESULT: -7.154885625      2.645      8.880
REMARK  14 active torsions:
REMARK  status: ('A' for Active; 'I' for Inactive)
REMARK    1  A    between atoms: C2_2  and  O1_3
REMARK    2  A    between atoms: C2_2  and  C3_5
REMARK    3  A    between atoms: C4_7  and  N1_8
REMARK    4  A    between atoms: N1_8  and  C5_10
REMARK    5  A    between atoms: C5_10  and  O2_11
REMARK    6  A    between atoms: C5_10  and  C6_13
REMARK    7  A    between atoms: C9_21  and  N4_22
REMARK       I    between atoms: N4_22  and  C10_23
REMARK       I    between atoms: C10_23  and  N5_24
REMARK       I    between atoms: C10_23  and  N6_28
REMARK    8  A    between atoms: C11_32  and  C12_33
REMARK    9  A    between atoms: C12_33  and  O3_34
REMARK   10  A    between atoms: C12_33  and  O4_36
REMARK   11  A    between atoms: C13_44  and  C14_45
REMARK   12  A    between atoms: C14_45  and  N10_46
REMARK   13  A    between atoms: C14_45  and  C15_50
REMARK   14  A    between atoms: C15_50  and  O5_51
ROOT
HETATM    1  C6  UNL     1     -32.210 -20.749  20.140  1.00  0.00     0.099 C
HETATM    2  C7  UNL     1     -33.233 -20.176  20.885  1.00  0.00     0.123 C
HETATM    3  N2  UNL     1     -33.741 -18.936  20.744  1.00  0.00    -0.348 N
ATOM      4  H2  UNL     1     -34.754 -18.832  20.796  1.00  0.00     0.167 HD
HETATM    5  C8  UNL     1     -33.026 -17.845  20.542  1.00  0.00     0.142 C
HETATM    6  N3  UNL     1     -33.598 -16.739  20.729  1.00  0.00    -0.383 N
ATOM      7  H31 UNL     1     -33.045 -15.896  20.573  1.00  0.00     0.157 HD
ATOM      8  H32 UNL     1     -34.578 -16.848  20.988  1.00  0.00     0.157 HD
HETATM    9  C9  UNL     1     -31.647 -17.690  20.177  1.00  0.00     0.175 C
HETATM   10  C11 UNL     1     -30.869 -18.799  19.841  1.00  0.00     0.109 C
HETATM   11  N7  UNL     1     -31.271 -20.047  19.521  1.00  0.00    -0.348 N
ATOM     12  H7  UNL     1     -30.808 -20.492  18.729  1.00  0.00     0.166 HD
ENDROOT
BRANCH   1  13
HETATM   13  C5  UNL     1     -32.221 -22.157  20.182  1.00  0.00     0.170 C
BRANCH  13  14
HETATM   14  N1  UNL     1     -33.270 -23.198  20.074  1.00  0.00    -0.314 N
ATOM     15  H1  UNL     1     -34.023 -23.374  20.740  1.00  0.00     0.170 HD
BRANCH  14  16
HETATM   16  C4  UNL     1     -33.033 -23.890  18.888  1.00  0.00     0.166 A
HETATM   17  S1  UNL     1     -34.070 -24.913  18.134  1.00  0.00    -0.048 SA
HETATM   18  C3  UNL     1     -33.340 -26.155  17.199  1.00  0.00     0.063 A
HETATM   19  C13 UNL     1     -31.966 -26.082  17.217  1.00  0.00     0.078 A
HETATM   20  N9  UNL     1     -31.331 -25.107  17.921  1.00  0.00    -0.299 N
HETATM   21  N8  UNL     1     -31.728 -24.170  18.662  1.00  0.00    -0.279 N
ATOM     22  H9  UNL     1     -30.316 -25.142  17.829  1.00  0.00     0.186 HD
ATOM     23  H8  UNL     1     -31.025 -23.588  19.118  1.00  0.00     0.189 HD
BRANCH  18  24
HETATM   24  C2  UNL     1     -34.172 -27.206  16.645  1.00  0.00     0.058 C
HETATM   25  C1  UNL     1     -34.804 -28.195  17.660  1.00  0.00     0.077 C
BRANCH  24  26
HETATM   26  O1  UNL     1     -34.746 -27.110  15.423  1.00  0.00    -0.364 OA
ATOM     27  H1  UNL     1     -34.355 -26.509  14.799  1.00  0.00     0.217 HD
ENDBRANCH  24  26
ENDBRANCH  18  24
BRANCH  19  28
HETATM   28  C14 UNL     1     -31.237 -27.167  16.519  1.00  0.00     0.259 C
BRANCH  28  29
HETATM   29  N10 UNL     1     -31.894 -27.684  15.378  1.00  0.00    -0.068 N
ATOM     30 3H10 UNL     1     -32.411 -28.530  15.621  1.00  0.00     0.275 HD
ATOM     31 2H10 UNL     1     -32.667 -27.076  15.109  1.00  0.00     0.275 HD
ATOM     32 1H10 UNL     1     -31.287 -27.859  14.578  1.00  0.00     0.275 HD
ENDBRANCH  28  29
BRANCH  28  33
HETATM   33  C15 UNL     1     -29.933 -26.583  15.980  1.00  0.00     0.203 C
BRANCH  33  34
HETATM   34  O5  UNL     1     -29.121 -27.626  15.443  1.00  0.00    -0.398 OA
ATOM     35  H5  UNL     1     -28.455 -27.256  14.874  1.00  0.00     0.209 HD
ENDBRANCH  33  34
ENDBRANCH  28  33
ENDBRANCH  19  28
ENDBRANCH  14  16
ENDBRANCH  13  14
BRANCH  13  36
HETATM   36  O2  UNL     1     -31.007 -22.716  20.388  1.00  0.00    -0.344 OA
ATOM     37  H2  UNL     1     -30.825 -22.799  21.317  1.00  0.00     0.219 HD
ENDBRANCH  13  36
ENDBRANCH   1  13
BRANCH  10  38
HETATM   38  C12 UNL     1     -29.426 -18.521  19.784  1.00  0.00     0.308 C
BRANCH  38  39
HETATM   39  O3  UNL     1     -29.158 -17.956  18.498  1.00  0.00    -0.366 OA
ATOM     40  H3  UNL     1     -29.116 -17.014  18.610  1.00  0.00     0.213 HD
ENDBRANCH  38  39
BRANCH  38  41
HETATM   41  O4  UNL     1     -28.724 -19.781  19.797  1.00  0.00    -0.366 OA
ATOM     42  H4  UNL     1     -27.819 -19.618  19.557  1.00  0.00     0.213 HD
ENDBRANCH  38  41
ENDBRANCH  10  38
BRANCH   9  43
HETATM   43  N4  UNL     1     -31.248 -16.583  20.208  1.00  0.00    -0.384 NA
HETATM   44  C10 UNL     1     -30.816 -15.301  20.255  1.00  0.00     0.555 C
HETATM   45  N5  UNL     1     -31.419 -14.572  19.077  1.00  0.00    -0.021 N
HETATM   46  N6  UNL     1     -29.382 -15.060  19.985  1.00  0.00    -0.021 N
ATOM     47  H53 UNL     1     -31.220 -15.025  18.185  1.00  0.00     0.280 HD
ATOM     48  H52 UNL     1     -32.436 -14.647  19.042  1.00  0.00     0.280 HD
ATOM     49  H51 UNL     1     -31.095 -13.605  19.112  1.00  0.00     0.280 HD
ATOM     50  H63 UNL     1     -28.818 -15.631  20.615  1.00  0.00     0.280 HD
ATOM     51  H62 UNL     1     -29.133 -15.469  19.084  1.00  0.00     0.280 HD
ATOM     52  H61 UNL     1     -29.057 -14.094  20.019  1.00  0.00     0.280 HD
ENDBRANCH   9  43
TORSDOF 14
ENDMDL