MODEL 4
REMARK VINA RESULT: -6.520577436      2.679      3.559
REMARK  12 active torsions:
REMARK  status: ('A' for Active; 'I' for Inactive)
REMARK    1  A    between atoms: C2_2  and  O2_4
REMARK    2  A    between atoms: O2_4  and  C3_5
REMARK    3  A    between atoms: C3_5  and  C4_6
REMARK    4  A    between atoms: C4_6  and  O3_7
REMARK    5  A    between atoms: C4_6  and  O4_9
REMARK    6  A    between atoms: O4_9  and  C5_10
REMARK    7  A    between atoms: C5_10  and  C6_12
REMARK    8  A    between atoms: C6_12  and  N1_13
REMARK    9  A    between atoms: N1_13  and  C8_15
REMARK   10  A    between atoms: C11_21  and  N4_22
REMARK   11  A    between atoms: C12_25  and  O6_26
REMARK       I    between atoms: N7_35  and  C15_37
REMARK       I    between atoms: C15_37  and  N8_38
REMARK       I    between atoms: C15_37  and  N9_42
REMARK   12  A    between atoms: C16_46  and  N10_47
ROOT
HETATM    1  C6  UNL     1     -32.416 -22.650  20.473  1.00  0.00     0.199 C
HETATM    2  C12 UNL     1     -32.712 -22.124  21.863  1.00  0.00     0.260 C
HETATM    3  N5  UNL     1     -33.928 -22.646  22.440  1.00  0.00    -0.346 N
ATOM      4  H5  UNL     1     -33.960 -23.162  23.320  1.00  0.00     0.163 HD
HETATM    5  C13 UNL     1     -35.101 -22.359  21.635  1.00  0.00     0.121 C
HETATM    6  N6  UNL     1     -36.254 -22.656  22.015  1.00  0.00    -0.384 N
ATOM      7  H61 UNL     1     -37.078 -22.454  21.449  1.00  0.00     0.157 HD
ATOM      8  H62 UNL     1     -36.499 -23.103  22.898  1.00  0.00     0.157 HD
HETATM    9  C14 UNL     1     -34.746 -21.713  20.359  1.00  0.00     0.085 C
HETATM   10  N7  UNL     1     -35.361 -20.718  19.940  1.00  0.00    -0.340 N
ATOM     11  H7  UNL     1     -34.965 -20.430  19.046  1.00  0.00     0.163 HD
HETATM   12  C15 UNL     1     -36.398 -19.869  20.271  1.00  0.00     0.480 C
HETATM   13  N8  UNL     1     -36.600 -19.594  21.694  1.00  0.00    -0.033 N
ATOM     14  H81 UNL     1     -37.366 -18.966  21.938  1.00  0.00     0.278 HD
ATOM     15  H82 UNL     1     -35.732 -19.246  22.100  1.00  0.00     0.278 HD
ATOM     16  H83 UNL     1     -36.705 -20.474  22.199  1.00  0.00     0.278 HD
HETATM   17  N9  UNL     1     -37.697 -20.309  19.740  1.00  0.00    -0.033 N
ATOM     18  H91 UNL     1     -38.463 -19.681  19.984  1.00  0.00     0.278 HD
ATOM     19  H92 UNL     1     -37.903 -21.264  20.029  1.00  0.00     0.278 HD
ATOM     20  H93 UNL     1     -37.649 -20.446  18.730  1.00  0.00     0.278 HD
HETATM   21  C16 UNL     1     -33.587 -22.302  19.566  1.00  0.00     0.279 C
ENDROOT
BRANCH   1  22
HETATM   22  C5  UNL     1     -31.281 -21.859  19.962  1.00  0.00     0.297 C
HETATM   23  O5  UNL     1     -30.419 -22.378  19.164  1.00  0.00    -0.262 OA
BRANCH  22  24
HETATM   24  O4  UNL     1     -31.036 -20.545  20.274  1.00  0.00    -0.285 OA
BRANCH  24  25
HETATM   25  C4  UNL     1     -29.864 -20.093  20.915  1.00  0.00     0.290 C
BRANCH  25  26
HETATM   26  C3  UNL     1     -29.812 -18.587  21.008  1.00  0.00     0.239 C
BRANCH  26  27
HETATM   27  O2  UNL     1     -29.138 -18.078  19.857  1.00  0.00    -0.317 OA
BRANCH  27  28
HETATM   28  C2  UNL     1     -29.764 -17.236  18.961  1.00  0.00     0.254 C
HETATM   29  C1  UNL     1     -30.506 -16.029  19.394  1.00  0.00     0.126 C
HETATM   30  O1  UNL     1     -29.688 -17.527  17.742  1.00  0.00    -0.266 OA
ENDBRANCH  27  28
ENDBRANCH  26  27
ENDBRANCH  25  26
BRANCH  25  31
HETATM   31  O3  UNL     1     -28.760 -20.495  20.130  1.00  0.00    -0.369 OA
ATOM     32  H3  UNL     1     -29.031 -21.267  19.647  1.00  0.00     0.212 HD
ENDBRANCH  25  31
ENDBRANCH  24  25
ENDBRANCH  22  24
ENDBRANCH   1  22
BRANCH   1  33
HETATM   33  N1  UNL     1     -32.123 -24.057  20.433  1.00  0.00    -0.357 N
HETATM   34  C7  UNL     1     -31.358 -24.680  21.549  1.00  0.00     0.151 C
BRANCH  33  35
HETATM   35  C8  UNL     1     -32.439 -24.997  19.425  1.00  0.00     0.093 A
HETATM   36  C9  UNL     1     -33.645 -25.716  19.306  1.00  0.00     0.140 A
HETATM   37  N2  UNL     1     -33.576 -26.508  18.231  1.00  0.00    -0.306 N
HETATM   38  N3  UNL     1     -32.408 -26.350  17.650  1.00  0.00    -0.280 N
ATOM     39  H2  UNL     1     -34.313 -27.137  17.913  1.00  0.00     0.186 HD
HETATM   40  C10 UNL     1     -31.896 -27.007  16.454  1.00  0.00     0.179 C
HETATM   41  C11 UNL     1     -31.687 -25.431  18.356  1.00  0.00     0.144 A
BRANCH  41  42
HETATM   42  N4  UNL     1     -30.515 -25.099  18.022  1.00  0.00    -0.382 N
ATOM     43  H42 UNL     1     -29.903 -24.575  18.647  1.00  0.00     0.157 HD
ATOM     44  H41 UNL     1     -30.026 -25.269  17.143  1.00  0.00     0.157 HD
ENDBRANCH  41  42
ENDBRANCH  33  35
ENDBRANCH   1  33
BRANCH   2  45
HETATM   45  O6  UNL     1     -32.944 -20.745  21.723  1.00  0.00    -0.374 OA
ATOM     46  H6  UNL     1     -32.099 -20.322  21.814  1.00  0.00     0.212 HD
ENDBRANCH   2  45
BRANCH  21  47
HETATM   47  N10 UNL     1     -33.237 -21.300  18.582  1.00  0.00    -0.066 N
ATOM     48 3H10 UNL     1     -32.815 -21.725  17.756  1.00  0.00     0.275 HD
ATOM     49 2H10 UNL     1     -34.070 -20.899  18.150  1.00  0.00     0.275 HD
ATOM     50 1H10 UNL     1     -32.636 -20.573  18.970  1.00  0.00     0.275 HD
ENDBRANCH  21  47
TORSDOF 12
ENDMDL