MODEL 4
REMARK VINA RESULT: -6.067769321      1.880      2.559
REMARK  15 active torsions:
REMARK  status: ('A' for Active; 'I' for Inactive)
REMARK    1  A    between atoms: N1_1  and  C1_5
REMARK    2  A    between atoms: C3_7  and  N2_8
REMARK    3  A    between atoms: C4_12  and  O1_13
REMARK    4  A    between atoms: O1_13  and  C5_14
REMARK    5  A    between atoms: C6_15  and  N3_16
REMARK    6  A    between atoms: C8_21  and  N4_22
REMARK    7  A    between atoms: C9_26  and  O2_27
REMARK    8  A    between atoms: O2_27  and  C10_28
REMARK    9  A    between atoms: C10_28  and  C11_29
REMARK   10  A    between atoms: C11_29  and  O3_30
REMARK   11  A    between atoms: C12_33  and  O5_34
REMARK   12  A    between atoms: C13_36  and  C14_37
REMARK   13  A    between atoms: C14_37  and  O6_38
REMARK   14  A    between atoms: C16_42  and  N5_43
REMARK   15  A    between atoms: C17_48  and  O9_49
ROOT
HETATM    1  C5  UNL     1     -34.448 -23.452  19.077  1.00  0.00     0.185 C
HETATM    2  C6  UNL     1     -35.293 -22.968  20.192  1.00  0.00     0.216 C
HETATM    3  C7  UNL     1     -34.591 -22.403  21.384  1.00  0.00     0.070 C
HETATM    4  C8  UNL     1     -34.356 -20.944  21.116  1.00  0.00     0.214 C
HETATM    5  C9  UNL     1     -32.926 -20.861  20.539  1.00  0.00     0.160 C
HETATM    6  C15 UNL     1     -33.091 -21.304  19.115  1.00  0.00     0.069 C
HETATM    7  C16 UNL     1     -33.160 -22.744  18.828  1.00  0.00     0.216 C
ENDROOT
BRANCH   1   8
HETATM    8  O1  UNL     1     -34.231 -24.819  19.220  1.00  0.00    -0.350 OA
BRANCH   8   9
HETATM    9  C4  UNL     1     -34.424 -25.549  18.081  1.00  0.00     0.293 C
HETATM   10  C3  UNL     1     -35.228 -26.787  18.401  1.00  0.00     0.240 C
HETATM   11  C2  UNL     1     -36.686 -26.622  18.043  1.00  0.00     0.075 C
HETATM   12  C1  UNL     1     -36.812 -26.313  16.567  1.00  0.00     0.240 C
HETATM   13  C17 UNL     1     -35.588 -25.591  16.079  1.00  0.00     0.290 C
HETATM   14  O8  UNL     1     -34.976 -24.824  17.033  1.00  0.00    -0.328 OA
BRANCH  10  15
HETATM   15  N2  UNL     1     -34.698 -27.964  17.695  1.00  0.00    -0.070 N
ATOM     16  H23 UNL     1     -35.282 -28.242  16.907  1.00  0.00     0.274 HD
ATOM     17  H22 UNL     1     -33.846 -27.755  17.174  1.00  0.00     0.274 HD
ATOM     18  H21 UNL     1     -34.567 -28.720  18.369  1.00  0.00     0.274 HD
ENDBRANCH  10  15
BRANCH  12  19
HETATM   19  N1  UNL     1     -38.033 -25.608  16.311  1.00  0.00    -0.070 N
ATOM     20  H13 UNL     1     -38.118 -24.771  16.888  1.00  0.00     0.274 HD
ATOM     21  H12 UNL     1     -38.030 -25.158  15.396  1.00  0.00     0.274 HD
ATOM     22  H11 UNL     1     -38.831 -26.232  16.427  1.00  0.00     0.274 HD
ENDBRANCH  12  19
BRANCH  13  23
HETATM   23  O9  UNL     1     -36.016 -24.717  15.061  1.00  0.00    -0.369 OA
ATOM     24  H9  UNL     1     -35.255 -24.214  14.797  1.00  0.00     0.212 HD
ENDBRANCH  13  23
ENDBRANCH   8   9
ENDBRANCH   1   8
BRANCH   2  25
HETATM   25  N3  UNL     1     -36.080 -24.111  20.687  1.00  0.00    -0.072 N
ATOM     26  H33 UNL     1     -36.167 -24.859  20.000  1.00  0.00     0.274 HD
ATOM     27  H32 UNL     1     -35.593 -24.645  21.407  1.00  0.00     0.274 HD
ATOM     28  H31 UNL     1     -36.982 -23.754  21.001  1.00  0.00     0.274 HD
ENDBRANCH   2  25
BRANCH   7  29
HETATM   29  N5  UNL     1     -32.043 -23.538  19.299  1.00  0.00    -0.072 N
ATOM     30  H53 UNL     1     -31.863 -24.337  18.690  1.00  0.00     0.274 HD
ATOM     31  H52 UNL     1     -31.154 -23.051  19.178  1.00  0.00     0.274 HD
ATOM     32  H51 UNL     1     -32.188 -23.825  20.267  1.00  0.00     0.274 HD
ENDBRANCH   7  29
BRANCH   4  33
HETATM   33  N4  UNL     1     -34.545 -20.111  22.253  1.00  0.00    -0.072 N
ATOM     34  H43 UNL     1     -34.834 -19.175  21.967  1.00  0.00     0.274 HD
ATOM     35  H42 UNL     1     -35.376 -20.395  22.771  1.00  0.00     0.274 HD
ATOM     36  H41 UNL     1     -33.736 -20.063  22.872  1.00  0.00     0.274 HD
ENDBRANCH   4  33
BRANCH   5  37
HETATM   37  O2  UNL     1     -32.458 -19.580  20.593  1.00  0.00    -0.323 OA
BRANCH  37  38
HETATM   38  C10 UNL     1     -31.180 -19.320  20.924  1.00  0.00     0.308 C
HETATM   39  O4  UNL     1     -30.994 -18.184  21.709  1.00  0.00    -0.298 OA
HETATM   40  C12 UNL     1     -30.212 -17.289  21.019  1.00  0.00     0.294 C
HETATM   41  C13 UNL     1     -30.568 -17.677  19.577  1.00  0.00     0.206 C
HETATM   42  O7  UNL     1     -30.523 -19.040  19.684  1.00  0.00    -0.318 OA
BRANCH  38  43
HETATM   43  C11 UNL     1     -30.366 -20.418  21.523  1.00  0.00     0.266 C
BRANCH  43  44
HETATM   44  O3  UNL     1     -29.153 -20.646  20.897  1.00  0.00    -0.393 OA
ATOM     45  H3  UNL     1     -28.486 -19.993  21.073  1.00  0.00     0.209 HD
ENDBRANCH  43  44
ENDBRANCH  38  43
BRANCH  40  46
HETATM   46  O5  UNL     1     -30.579 -15.973  21.183  1.00  0.00    -0.368 OA
ATOM     47  H5  UNL     1     -30.267 -15.578  21.989  1.00  0.00     0.212 HD
ENDBRANCH  40  46
BRANCH  41  48
HETATM   48  C14 UNL     1     -29.479 -17.106  18.700  1.00  0.00     0.201 C
BRANCH  48  49
HETATM   49  O6  UNL     1     -29.628 -17.473  17.372  1.00  0.00    -0.398 OA
ATOM     50  H6  UNL     1     -29.182 -16.877  16.782  1.00  0.00     0.209 HD
ENDBRANCH  48  49
ENDBRANCH  41  48
ENDBRANCH  37  38
ENDBRANCH   5  37
TORSDOF 15
ENDMDL