MODEL 1
REMARK VINA RESULT: -8.246313689      0.000      0.000
REMARK  12 active torsions:
REMARK  status: ('A' for Active; 'I' for Inactive)
REMARK       I    between atoms: N1_1  and  C1_4
REMARK       I    between atoms: C1_4  and  N2_5
REMARK       I    between atoms: C1_4  and  N9_42
REMARK    1  A    between atoms: N2_5  and  C2_7
REMARK    2  A    between atoms: C3_9  and  C4_10
REMARK    3  A    between atoms: C4_10  and  N3_11
REMARK    4  A    between atoms: N3_11  and  C5_14
REMARK    5  A    between atoms: C5_14  and  O2_15
REMARK    6  A    between atoms: C5_14  and  O3_17
REMARK    7  A    between atoms: C7_22  and  C8_23
REMARK    8  A    between atoms: C8_23  and  C9_25
REMARK       I    between atoms: C9_25  and  N5_27
REMARK    9  A    between atoms: N5_27  and  C10_29
REMARK   10  A    between atoms: C11_34  and  S1_35
REMARK   11  A    between atoms: S1_35  and  N8_36
REMARK   12  A    between atoms: N9_42  and  O9_44
ROOT
HETATM    1  C2  UNL     1     -32.640 -26.153  17.932  1.00  0.00     0.194 A
HETATM    2  O1  UNL     1     -33.480 -27.133  17.749  1.00  0.00    -0.292 OA
HETATM    3  C3  UNL     1     -34.409 -27.491  18.602  1.00  0.00     0.096 A
HETATM    4  C6  UNL     1     -34.536 -26.807  19.790  1.00  0.00     0.123 A
HETATM    5  N4  UNL     1     -33.692 -25.789  20.020  1.00  0.00    -0.357 N
ATOM      6  H4  UNL     1     -33.769 -25.267  20.893  1.00  0.00     0.165 HD
HETATM    7  C7  UNL     1     -32.731 -25.434  19.115  1.00  0.00     0.141 A
ENDROOT
BRANCH   7   8
HETATM    8  C8  UNL     1     -31.845 -24.329  19.413  1.00  0.00     0.270 C
HETATM    9  O4  UNL     1     -30.616 -24.475  19.247  1.00  0.00    -0.280 OA
BRANCH   8  10
HETATM   10  C9  UNL     1     -32.380 -23.081  19.894  1.00  0.00     0.301 C
HETATM   11  O5  UNL     1     -32.958 -23.046  21.006  1.00  0.00    -0.264 OA
HETATM   12  N5  UNL     1     -32.280 -21.874  19.154  1.00  0.00    -0.284 N
ATOM     13  H5  UNL     1     -32.981 -21.654  18.446  1.00  0.00     0.172 HD
BRANCH  12  14
HETATM   14  C10 UNL     1     -31.300 -21.050  19.373  1.00  0.00     0.248 A
HETATM   15  N6  UNL     1     -30.194 -21.271  20.100  1.00  0.00    -0.262 N
HETATM   16  N7  UNL     1     -29.454 -20.176  20.069  1.00  0.00    -0.265 N
ATOM     17  H6  UNL     1     -29.963 -22.135  20.590  1.00  0.00     0.190 HD
HETATM   18  C11 UNL     1     -30.094 -19.277  19.329  1.00  0.00     0.284 A
ATOM     19  H7  UNL     1     -28.554 -20.046  20.530  1.00  0.00     0.190 HD
HETATM   20  O8  UNL     1     -31.210 -19.829  18.919  1.00  0.00    -0.248 OA
BRANCH  18  21
HETATM   21  S1  UNL     1     -29.640 -17.641  18.910  1.00  0.00     0.297 S
HETATM   22  O6  UNL     1     -28.267 -17.328  19.426  1.00  0.00    -0.197 OA
HETATM   23  O7  UNL     1     -29.731 -17.453  17.427  1.00  0.00    -0.197 OA
BRANCH  21  24
HETATM   24  N8  UNL     1     -30.827 -16.596  19.641  1.00  0.00    -0.321 N
ATOM     25  H82 UNL     1     -31.394 -16.814  20.461  1.00  0.00     0.169 HD
ATOM     26  H81 UNL     1     -30.838 -15.739  19.089  1.00  0.00     0.169 HD
ENDBRANCH  21  24
ENDBRANCH  18  21
ENDBRANCH  12  14
ENDBRANCH   8  10
ENDBRANCH   7   8
BRANCH   1  27
HETATM   27  N2  UNL     1     -31.728 -25.801  17.091  1.00  0.00    -0.166 N
HETATM   28  C1  UNL     1     -31.090 -26.695  16.190  1.00  0.00     0.697 C
HETATM   29  N1  UNL     1     -31.784 -27.588  15.570  1.00  0.00    -0.233 N
HETATM   30  N9  UNL     1     -29.704 -26.656  15.932  1.00  0.00    -0.099 N
ATOM     31  H12 UNL     1     -32.787 -27.616  15.757  1.00  0.00     0.174 HD
ATOM     32  H11 UNL     1     -31.326 -28.229  14.922  1.00  0.00     0.174 HD
ATOM     33  H9  UNL     1     -29.200 -25.770  15.976  1.00  0.00     0.213 HD
ATOM     34  H2  UNL     1     -31.448 -24.821  17.072  1.00  0.00     0.186 HD
BRANCH  30  35
HETATM   35  O9  UNL     1     -29.052 -27.785  15.629  1.00  0.00    -0.276 OA
ATOM     36  H9  UNL     1     -28.249 -27.745  15.123  1.00  0.00     0.245 HD
ENDBRANCH  30  35
ENDBRANCH   1  27
BRANCH   3  37
HETATM   37  C4  UNL     1     -35.336 -28.637  18.309  1.00  0.00     0.304 C
BRANCH  37  38
HETATM   38  N3  UNL     1     -34.898 -29.330  17.113  1.00  0.00    -0.019 N
ATOM     39  H32 UNL     1     -35.487 -29.127  16.305  1.00  0.00     0.283 HD
ATOM     40  H31 UNL     1     -34.022 -28.960  16.744  1.00  0.00     0.283 HD
BRANCH  38  41
HETATM   41  C5  UNL     1     -34.825 -30.742  17.406  1.00  0.00     0.464 C
BRANCH  41  42
HETATM   42  O2  UNL     1     -33.608 -31.311  17.113  1.00  0.00    -0.350 OA
ATOM     43  H2  UNL     1     -33.648 -32.247  16.957  1.00  0.00     0.214 HD
ENDBRANCH  41  42
BRANCH  41  44
HETATM   44  O3  UNL     1     -35.133 -31.003  18.739  1.00  0.00    -0.350 OA
ATOM     45  H3  UNL     1     -34.431 -30.733  19.318  1.00  0.00     0.214 HD
ENDBRANCH  41  44
ENDBRANCH  38  41
ENDBRANCH  37  38
ENDBRANCH   3  37
TORSDOF 12
ENDMDL