MODEL 5
REMARK VINA RESULT: -6.202617421      3.047      3.906
REMARK  11 active torsions:
REMARK  status: ('A' for Active; 'I' for Inactive)
REMARK    1  A    between atoms: C3_4  and  O1_5
REMARK    2  A    between atoms: O1_5  and  C4_6
REMARK    3  A    between atoms: C4_6  and  C5_7
REMARK    4  A    between atoms: C5_7  and  C6_8
REMARK    5  A    between atoms: C6_8  and  C7_9
REMARK    6  A    between atoms: N2_10  and  N3_12
REMARK    7  A    between atoms: N3_12  and  C8_14
REMARK    8  A    between atoms: C12_27  and  N9_28
REMARK    9  A    between atoms: N9_28  and  N10_29
REMARK   10  A    between atoms: C13_33  and  O3_34
REMARK   11  A    between atoms: C14_36  and  O4_37
ROOT
HETATM    1  C1  UNL     1     -33.403 -23.073  18.712  1.00  0.00     0.313 C
HETATM    2  N1  UNL     1     -33.868 -21.976  19.518  1.00  0.00     0.117 N
HETATM    3  C2  UNL     1     -35.093 -22.340  20.250  1.00  0.00     0.340 C
HETATM    4  C3  UNL     1     -35.633 -21.026  20.736  1.00  0.00     0.091 C
HETATM    5  C9  UNL     1     -34.769 -20.083  21.114  1.00  0.00     0.146 C
HETATM    6  N5  UNL     1     -33.351 -20.303  21.065  1.00  0.00    -0.267 N
HETATM    7  N6  UNL     1     -32.560 -19.288  21.550  1.00  0.00    -0.294 N
ATOM      8  H6  UNL     1     -32.943 -18.540  22.126  1.00  0.00     0.184 HD
HETATM    9  C10 UNL     1     -31.179 -19.334  21.206  1.00  0.00     0.197 C
HETATM   10  C11 UNL     1     -30.920 -18.644  19.885  1.00  0.00     0.204 C
HETATM   11  N7  UNL     1     -30.735 -17.236  19.988  1.00  0.00    -0.333 N
ATOM     12  H7  UNL     1     -30.434 -16.675  19.192  1.00  0.00     0.180 HD
HETATM   13  N8  UNL     1     -30.981 -16.675  21.208  1.00  0.00    -0.296 N
ATOM     14  H8  UNL     1     -31.429 -15.763  21.292  1.00  0.00     0.184 HD
HETATM   15  C12 UNL     1     -30.587 -17.413  22.355  1.00  0.00     0.356 C
HETATM   16  O2  UNL     1     -30.347 -18.751  22.149  1.00  0.00    -0.313 OA
HETATM   17  C13 UNL     1     -30.675 -20.769  21.041  1.00  0.00     0.209 C
HETATM   18  C14 UNL     1     -31.515 -21.457  19.986  1.00  0.00     0.206 C
HETATM   19  C15 UNL     1     -32.907 -21.561  20.514  1.00  0.00     0.374 C
ENDROOT
BRANCH   4  20
HETATM   20  O1  UNL     1     -36.985 -20.850  20.771  1.00  0.00    -0.352 OA
BRANCH  20  21
HETATM   21  C4  UNL     1     -37.838 -20.816  19.666  1.00  0.00     0.175 C
BRANCH  21  22
HETATM   22  C5  UNL     1     -37.995 -19.389  19.129  1.00  0.00     0.032 C
BRANCH  22  23
HETATM   23  C6  UNL     1     -38.487 -19.423  17.695  1.00  0.00     0.048 C
BRANCH  23  24
HETATM   24  C7  UNL     1     -37.692 -20.330  16.844  1.00  0.00     0.080 C
HETATM   25  N2  UNL     1     -37.388 -20.018  15.635  1.00  0.00    -0.314 N
ATOM     26  H2  UNL     1     -37.698 -19.129  15.245  1.00  0.00     0.185 HD
BRANCH  25  27
HETATM   27  N3  UNL     1     -36.634 -20.898  14.856  1.00  0.00    -0.279 N
ATOM     28  H3  UNL     1     -35.644 -20.706  14.708  1.00  0.00     0.189 HD
BRANCH  27  29
HETATM   29  C8  UNL     1     -37.209 -22.054  14.264  1.00  0.00     0.199 C
HETATM   30  N4  UNL     1     -36.580 -23.304  14.464  1.00  0.00    -0.068 NA
HETATM   31  S1  UNL     1     -38.586 -21.913  13.363  1.00  0.00    -0.043 SA
ENDBRANCH  27  29
ENDBRANCH  25  27
ENDBRANCH  23  24
ENDBRANCH  22  23
ENDBRANCH  21  22
ENDBRANCH  20  21
ENDBRANCH   4  20
BRANCH  18  32
HETATM   32  O4  UNL     1     -30.929 -22.733  19.812  1.00  0.00    -0.389 OA
ATOM     33  H4  UNL     1     -30.801 -23.073  20.691  1.00  0.00     0.210 HD
ENDBRANCH  18  32
BRANCH  17  34
HETATM   34  O3  UNL     1     -29.340 -20.759  20.684  1.00  0.00    -0.388 OA
ATOM     35  H3  UNL     1     -28.802 -20.621  21.455  1.00  0.00     0.210 HD
ENDBRANCH  17  34
BRANCH  15  36
HETATM   36  N9  UNL     1     -29.379 -16.834  22.923  1.00  0.00    -0.093 NA
BRANCH  36  37
HETATM   37  N10 UNL     1     -29.310 -17.059  24.308  1.00  0.00    -0.344 N
ATOM     38 2H10 UNL     1     -29.620 -17.921  24.755  1.00  0.00     0.172 HD
ATOM     39 1H10 UNL     1     -28.913 -16.253  24.793  1.00  0.00     0.172 HD
ENDBRANCH  36  37
ENDBRANCH  15  36
TORSDOF 11
ENDMDL