MODEL 2
REMARK VINA RESULT: -7.021117614      1.255      1.709
REMARK  12 active torsions:
REMARK  status: ('A' for Active; 'I' for Inactive)
REMARK    1  A    between atoms: N1_2  and  O1_3
REMARK    2  A    between atoms: N1_2  and  C2_5
REMARK    3  A    between atoms: C2_5  and  C3_6
REMARK    4  A    between atoms: C2_5  and  C8_33
REMARK    5  A    between atoms: C3_6  and  N2_7
REMARK    6  A    between atoms: C3_6  and  N3_10
REMARK    7  A    between atoms: N3_10  and  C4_12
REMARK    8  A    between atoms: C5_18  and  N6_19
REMARK    9  A    between atoms: N6_19  and  C6_21
REMARK   10  A    between atoms: C6_21  and  N7_22
REMARK       I    between atoms: N7_22  and  C7_24
REMARK       I    between atoms: C7_24  and  N8_25
REMARK       I    between atoms: C7_24  and  N9_29
REMARK   11  A    between atoms: C9_36  and  N11_37
REMARK   12  A    between atoms: N11_37  and  C10_39
ROOT
HETATM    1  C3  UNL     1     -31.803 -24.247  19.336  1.00  0.00     0.105 C
ENDROOT
BRANCH   1   2
HETATM    2  C2  UNL     1     -32.901 -25.224  19.042  1.00  0.00     0.227 C
BRANCH   2   3
HETATM    3  N1  UNL     1     -34.124 -24.512  18.981  1.00  0.00    -0.184 NA
HETATM    4  C1  UNL     1     -35.215 -25.074  19.692  1.00  0.00     0.145 C
BRANCH   3   5
HETATM    5  O1  UNL     1     -34.449 -24.306  17.687  1.00  0.00    -0.312 OA
ATOM      6  H1  UNL     1     -33.678 -24.345  17.134  1.00  0.00     0.237 HD
ENDBRANCH   3   5
ENDBRANCH   2   3
BRANCH   2   7
HETATM    7  C8  UNL     1     -32.534 -25.979  17.849  1.00  0.00     0.170 C
HETATM    8  N10 UNL     1     -33.337 -26.860  17.361  1.00  0.00    -0.170 N
HETATM    9  C9  UNL     1     -33.219 -27.718  16.225  1.00  0.00     0.700 C
ATOM     10  H10 UNL     1     -34.212 -26.963  17.877  1.00  0.00     0.186 HD
HETATM   11  N13 UNL     1     -32.130 -27.905  15.558  1.00  0.00    -0.129 N
HETATM   12  N14 UNL     1     -30.829 -27.396  15.695  1.00  0.00    -0.253 N
ATOM     13  H13 UNL     1     -32.236 -28.552  14.776  1.00  0.00     0.205 HD
HETATM   14  C13 UNL     1     -30.466 -26.422  16.462  1.00  0.00     0.253 C
ATOM     15  H14 UNL     1     -30.100 -27.837  15.134  1.00  0.00     0.190 HD
HETATM   16  N15 UNL     1     -29.090 -26.095  16.419  1.00  0.00    -0.054 NA
HETATM   17  O3  UNL     1     -31.289 -25.664  17.323  1.00  0.00    -0.265 OA
BRANCH   9  18
HETATM   18  N11 UNL     1     -34.374 -28.417  15.792  1.00  0.00    -0.169 N
ATOM     19  H11 UNL     1     -34.307 -29.352  15.390  1.00  0.00     0.186 HD
BRANCH  18  20
HETATM   20  C10 UNL     1     -35.537 -27.814  15.928  1.00  0.00     0.163 A
HETATM   21  N12 UNL     1     -36.022 -26.784  15.232  1.00  0.00    -0.346 N
HETATM   22  C11 UNL     1     -37.206 -26.333  15.527  1.00  0.00     0.097 A
ATOM     23  H12 UNL     1     -35.475 -26.358  14.483  1.00  0.00     0.167 HD
HETATM   24  C12 UNL     1     -37.894 -26.944  16.541  1.00  0.00     0.070 A
HETATM   25  S1  UNL     1     -36.795 -28.154  17.032  1.00  0.00    -0.064 SA
ENDBRANCH  18  20
ENDBRANCH   9  18
ENDBRANCH   2   7
ENDBRANCH   1   2
BRANCH   1  26
HETATM   26  N2  UNL     1     -30.941 -24.491  20.252  1.00  0.00    -0.387 N
ATOM     27  H22 UNL     1     -30.958 -23.929  21.103  1.00  0.00     0.157 HD
ATOM     28  H21 UNL     1     -30.250 -25.231  20.131  1.00  0.00     0.157 HD
ENDBRANCH   1  26
BRANCH   1  29
HETATM   29  N3  UNL     1     -31.695 -23.024  18.596  1.00  0.00    -0.326 N
ATOM     30  H3  UNL     1     -31.199 -22.995  17.706  1.00  0.00     0.169 HD
BRANCH  29  31
HETATM   31  C4  UNL     1     -32.247 -21.946  19.090  1.00  0.00     0.177 A
HETATM   32  N4  UNL     1     -33.535 -21.583  19.080  1.00  0.00    -0.262 N
HETATM   33  N5  UNL     1     -33.616 -20.419  19.693  1.00  0.00    -0.198 N
ATOM     34  H4  UNL     1     -34.310 -22.109  18.675  1.00  0.00     0.190 HD
HETATM   35  O2  UNL     1     -32.415 -20.037  20.088  1.00  0.00    -0.201 OA
ATOM     36  H5  UNL     1     -34.476 -19.892  19.841  1.00  0.00     0.216 HD
HETATM   37  C5  UNL     1     -31.538 -20.956  19.733  1.00  0.00     0.215 A
BRANCH  37  38
HETATM   38  N6  UNL     1     -30.256 -20.937  19.946  1.00  0.00    -0.350 N
ATOM     39  H6  UNL     1     -29.723 -21.806  19.914  1.00  0.00     0.163 HD
BRANCH  38  40
HETATM   40  C6  UNL     1     -29.573 -19.672  20.234  1.00  0.00     0.244 C
BRANCH  40  41
HETATM   41  N7  UNL     1     -29.802 -19.352  21.609  1.00  0.00    -0.359 N
HETATM   42  C7  UNL     1     -30.172 -18.000  21.878  1.00  0.00     0.477 C
HETATM   43  N8  UNL     1     -30.349 -17.839  23.314  1.00  0.00    -0.033 N
HETATM   44  N9  UNL     1     -31.353 -17.534  21.221  1.00  0.00    -0.033 N
ATOM     45  H83 UNL     1     -31.012 -18.509  23.703  1.00  0.00     0.278 HD
ATOM     46  H82 UNL     1     -29.526 -18.131  23.843  1.00  0.00     0.278 HD
ATOM     47  H81 UNL     1     -30.613 -16.873  23.507  1.00  0.00     0.278 HD
ATOM     48  H93 UNL     1     -31.270 -17.677  20.215  1.00  0.00     0.278 HD
ATOM     49  H92 UNL     1     -32.134 -18.156  21.430  1.00  0.00     0.278 HD
ATOM     50  H91 UNL     1     -31.617 -16.568  21.414  1.00  0.00     0.278 HD
ATOM     51  H7  UNL     1     -29.707 -20.045  22.350  1.00  0.00     0.158 HD
ENDBRANCH  40  41
ENDBRANCH  38  40
ENDBRANCH  37  38
ENDBRANCH  29  31
ENDBRANCH   1  29
TORSDOF 12
ENDMDL