MODEL 2
REMARK VINA RESULT: -6.452459027      2.470      4.398
REMARK  14 active torsions:
REMARK  status: ('A' for Active; 'I' for Inactive)
REMARK    1  A    between atoms: C2_2  and  O1_3
REMARK    2  A    between atoms: C4_6  and  N1_7
REMARK    3  A    between atoms: N1_7  and  N2_8
REMARK    4  A    between atoms: C6_14  and  S1_15
REMARK    5  A    between atoms: S1_15  and  C7_16
REMARK    6  A    between atoms: C7_16  and  C8_17
REMARK    7  A    between atoms: C8_17  and  O2_18
REMARK    8  A    between atoms: C8_17  and  C9_20
REMARK    9  A    between atoms: C9_20  and  O3_21
REMARK   10  A    between atoms: C9_20  and  C10_23
REMARK   11  A    between atoms: C10_23  and  O4_24
REMARK   12  A    between atoms: C12_33  and  C13_34
REMARK   13  A    between atoms: C13_34  and  O5_35
REMARK   14  A    between atoms: C13_34  and  O6_37
ROOT
HETATM    1  C1  UNL     1     -35.285 -26.739  19.891  1.00  0.00     0.052 C
HETATM    2  C2  UNL     1     -34.840 -25.374  19.645  1.00  0.00     0.121 C
HETATM    3  C3  UNL     1     -35.932 -24.470  19.062  1.00  0.00     0.118 C
HETATM    4  C4  UNL     1     -35.502 -23.045  19.103  1.00  0.00     0.179 C
HETATM    5  C5  UNL     1     -34.022 -22.881  19.258  1.00  0.00     0.127 A
HETATM    6  N3  UNL     1     -33.597 -21.674  19.654  1.00  0.00    -0.324 N
ATOM      7  H3  UNL     1     -34.271 -20.926  19.813  1.00  0.00     0.169 HD
HETATM    8  C6  UNL     1     -32.282 -21.443  19.842  1.00  0.00     0.161 A
HETATM    9  N4  UNL     1     -31.428 -22.459  19.621  1.00  0.00    -0.170 N
ATOM     10  H4  UNL     1     -30.428 -22.307  19.758  1.00  0.00     0.186 HD
HETATM   11  C11 UNL     1     -31.867 -23.687  19.218  1.00  0.00     0.684 A
HETATM   12  N5  UNL     1     -30.968 -24.592  19.051  1.00  0.00    -0.234 N
ATOM     13  H51 UNL     1     -31.295 -25.510  18.750  1.00  0.00     0.174 HD
ATOM     14  H52 UNL     1     -29.972 -24.424  19.194  1.00  0.00     0.174 HD
HETATM   15  N6  UNL     1     -33.166 -23.907  19.032  1.00  0.00    -0.129 N
HETATM   16  C12 UNL     1     -33.781 -25.129  18.609  1.00  0.00     0.242 C
HETATM   17  O7  UNL     1     -34.474 -24.758  17.415  1.00  0.00    -0.313 OA
HETATM   18  C14 UNL     1     -35.803 -24.934  17.622  1.00  0.00     0.197 A
HETATM   19  C15 UNL     1     -36.716 -25.824  17.095  1.00  0.00     0.240 A
HETATM   20  O8  UNL     1     -36.636 -24.437  16.640  1.00  0.00    -0.347 OA
ENDROOT
BRANCH   8  21
HETATM   21  S1  UNL     1     -31.776 -19.833  20.367  1.00  0.00    -0.091 SA
BRANCH  21  22
HETATM   22  C7  UNL     1     -30.031 -19.525  20.092  1.00  0.00     0.116 C
BRANCH  22  23
HETATM   23  C8  UNL     1     -29.731 -18.066  19.955  1.00  0.00     0.158 C
BRANCH  23  24
HETATM   24  O2  UNL     1     -29.854 -17.372  21.154  1.00  0.00    -0.392 OA
ATOM     25  H2  UNL     1     -29.837 -16.429  21.040  1.00  0.00     0.210 HD
ENDBRANCH  23  24
BRANCH  23  26
HETATM   26  C9  UNL     1     -30.586 -17.385  18.924  1.00  0.00     0.171 C
BRANCH  26  27
HETATM   27  O3  UNL     1     -29.993 -17.362  17.670  1.00  0.00    -0.391 OA
ATOM     28  H3  UNL     1     -30.048 -16.509  17.255  1.00  0.00     0.210 HD
ENDBRANCH  26  27
BRANCH  26  29
HETATM   29  C10 UNL     1     -30.797 -15.938  19.391  1.00  0.00     0.198 C
BRANCH  29  30
HETATM   30  O4  UNL     1     -32.097 -15.804  19.874  1.00  0.00    -0.398 OA
ATOM     31  H4  UNL     1     -32.344 -16.606  20.319  1.00  0.00     0.209 HD
ENDBRANCH  29  30
ENDBRANCH  26  29
ENDBRANCH  23  26
ENDBRANCH  22  23
ENDBRANCH  21  22
ENDBRANCH   8  21
BRANCH   4  32
HETATM   32  N1  UNL     1     -35.901 -22.302  17.935  1.00  0.00    -0.135 NA
BRANCH  32  33
HETATM   33  N2  UNL     1     -37.142 -21.669  18.122  1.00  0.00    -0.348 N
ATOM     34  H22 UNL     1     -37.259 -20.656  18.131  1.00  0.00     0.172 HD
ATOM     35  H21 UNL     1     -37.894 -22.346  18.246  1.00  0.00     0.172 HD
ENDBRANCH  32  33
ENDBRANCH   4  32
BRANCH  16  36
HETATM   36  C13 UNL     1     -32.971 -26.265  18.199  1.00  0.00     0.314 C
BRANCH  36  37
HETATM   37  O5  UNL     1     -33.859 -27.271  17.718  1.00  0.00    -0.367 OA
ATOM     38  H5  UNL     1     -34.476 -26.849  17.132  1.00  0.00     0.212 HD
ENDBRANCH  36  37
BRANCH  36  39
HETATM   39  O6  UNL     1     -32.292 -25.944  16.988  1.00  0.00    -0.367 OA
ATOM     40  H6  UNL     1     -31.365 -25.840  17.167  1.00  0.00     0.212 HD
ENDBRANCH  36  39
ENDBRANCH  16  36
BRANCH   2  41
HETATM   41  O1  UNL     1     -34.522 -24.785  20.883  1.00  0.00    -0.384 OA
ATOM     42  H1  UNL     1     -35.179 -25.051  21.516  1.00  0.00     0.210 HD
ENDBRANCH   2  41
TORSDOF 14
ENDMDL