MODEL 5
REMARK VINA RESULT: -7.526583845      1.912      2.921
REMARK  12 active torsions:
REMARK  status: ('A' for Active; 'I' for Inactive)
REMARK    1  A    between atoms: C3_11  and  N5_12
REMARK    2  A    between atoms: N5_12  and  N6_14
REMARK    3  A    between atoms: N6_14  and  C4_16
REMARK    4  A    between atoms: C4_16  and  C14_41
REMARK    5  A    between atoms: C6_20  and  N8_21
REMARK    6  A    between atoms: C9_31  and  O2_32
REMARK    7  A    between atoms: O2_32  and  C10_33
REMARK    8  A    between atoms: C10_33  and  C11_35
REMARK    9  A    between atoms: C11_35  and  O4_36
REMARK   10  A    between atoms: C14_41  and  O5_42
REMARK   11  A    between atoms: C14_41  and  C15_44
REMARK   12  A    between atoms: C15_44  and  O6_45
ROOT
HETATM    1  C4  UNL     1     -31.929 -22.847  19.912  1.00  0.00     0.109 C
HETATM    2  C5  UNL     1     -31.975 -22.616  21.331  1.00  0.00     0.109 A
HETATM    3  N7  UNL     1     -32.623 -23.635  22.040  1.00  0.00    -0.187 N
ATOM      4  H7  UNL     1     -32.690 -24.567  21.630  1.00  0.00     0.184 HD
HETATM    5  C6  UNL     1     -33.150 -23.410  23.233  1.00  0.00     0.677 A
HETATM    6  N9  UNL     1     -33.074 -22.204  23.791  1.00  0.00    -0.184 N
ATOM      7  H9  UNL     1     -33.490 -22.041  24.708  1.00  0.00     0.184 HD
HETATM    8  C7  UNL     1     -32.442 -21.182  23.140  1.00  0.00     0.146 A
HETATM    9  C8  UNL     1     -32.288 -19.976  23.769  1.00  0.00     0.278 A
HETATM   10  O1  UNL     1     -32.828 -19.807  24.905  1.00  0.00    -0.265 OA
HETATM   11  N10 UNL     1     -31.575 -19.036  23.156  1.00  0.00    -0.287 N
ATOM     12  H10 UNL     1     -31.448 -18.128  23.603  1.00  0.00     0.172 HD
HETATM   13  C9  UNL     1     -31.020 -19.266  21.955  1.00  0.00     0.236 A
HETATM   14  N11 UNL     1     -31.139 -20.444  21.278  1.00  0.00    -0.313 N
HETATM   15  C12 UNL     1     -30.311 -20.668  20.113  1.00  0.00     0.160 C
HETATM   16  C13 UNL     1     -31.883 -21.403  21.896  1.00  0.00     0.100 A
ENDROOT
BRANCH   1  17
HETATM   17  N6  UNL     1     -31.480 -23.909  19.403  1.00  0.00    -0.282 N
ATOM     18  H6  UNL     1     -31.105 -24.550  20.103  1.00  0.00     0.187 HD
BRANCH  17  19
HETATM   19  N5  UNL     1     -31.379 -24.395  18.154  1.00  0.00    -0.129 N
ATOM     20  H5  UNL     1     -30.738 -23.897  17.536  1.00  0.00     0.205 HD
BRANCH  19  21
HETATM   21  C3  UNL     1     -31.994 -25.419  17.630  1.00  0.00     0.728 A
HETATM   22  N1  UNL     1     -31.437 -26.310  16.800  1.00  0.00    -0.112 N
HETATM   23  C1  UNL     1     -30.057 -26.326  16.314  1.00  0.00     0.198 C
HETATM   24  N2  UNL     1     -32.358 -27.196  16.483  1.00  0.00    -0.116 N
HETATM   25  C2  UNL     1     -33.500 -26.876  17.105  1.00  0.00     0.705 A
ATOM     26  H2  UNL     1     -32.223 -27.996  15.865  1.00  0.00     0.206 HD
HETATM   27  N3  UNL     1     -34.623 -27.547  17.012  1.00  0.00    -0.233 N
HETATM   28  N4  UNL     1     -33.264 -25.768  17.817  1.00  0.00    -0.018 N
ATOM     29  H32 UNL     1     -34.802 -28.392  16.470  1.00  0.00     0.174 HD
ATOM     30  H31 UNL     1     -35.493 -27.304  17.485  1.00  0.00     0.174 HD
ATOM     31  H4  UNL     1     -33.941 -25.276  18.402  1.00  0.00     0.203 HD
ENDBRANCH  19  21
ENDBRANCH  17  19
ENDBRANCH   1  17
BRANCH   1  32
HETATM   32  C14 UNL     1     -32.837 -22.108  19.012  1.00  0.00     0.097 C
BRANCH  32  33
HETATM   33  O5  UNL     1     -32.411 -21.694  17.790  1.00  0.00    -0.360 OA
ATOM     34  H5  UNL     1     -31.911 -22.277  17.231  1.00  0.00     0.217 HD
ENDBRANCH  32  33
BRANCH  32  35
HETATM   35  C15 UNL     1     -34.281 -22.469  19.059  1.00  0.00     0.230 C
BRANCH  35  36
HETATM   36  O6  UNL     1     -34.592 -23.737  19.446  1.00  0.00    -0.394 OA
ATOM     37  H6  UNL     1     -33.955 -24.195  19.982  1.00  0.00     0.209 HD
ENDBRANCH  35  36
ENDBRANCH  32  35
ENDBRANCH   1  32
BRANCH   5  38
HETATM   38  N8  UNL     1     -33.752 -24.401  23.864  1.00  0.00    -0.234 N
ATOM     39  H82 UNL     1     -34.422 -24.993  23.373  1.00  0.00     0.174 HD
ATOM     40  H81 UNL     1     -33.537 -24.564  24.848  1.00  0.00     0.174 HD
ENDBRANCH   5  38
BRANCH  13  41
HETATM   41  O2  UNL     1     -30.284 -18.228  21.388  1.00  0.00    -0.244 OA
BRANCH  41  42
HETATM   42  C10 UNL     1     -30.500 -16.927  21.849  1.00  0.00     0.289 C
HETATM   43  O3  UNL     1     -29.907 -16.567  22.897  1.00  0.00    -0.262 OA
BRANCH  42  44
HETATM   44  C11 UNL     1     -31.380 -15.971  21.167  1.00  0.00     0.275 C
BRANCH  44  45
HETATM   45  O4  UNL     1     -30.685 -14.824  20.834  1.00  0.00    -0.391 OA
ATOM     46  H4  UNL     1     -29.784 -14.883  21.129  1.00  0.00     0.210 HD
ENDBRANCH  44  45
ENDBRANCH  42  44
ENDBRANCH  41  42
ENDBRANCH  13  41
TORSDOF 12
ENDMDL