MODEL 4
REMARK VINA RESULT: -7.024023036      2.884      7.087
REMARK  9 active torsions:
REMARK  status: ('A' for Active; 'I' for Inactive)
REMARK    1  A    between atoms: C2_3  and  N2_4
REMARK    2  A    between atoms: C2_3  and  C3_7
REMARK    3  A    between atoms: N2_4  and  O1_5
REMARK    4  A    between atoms: C4_8  and  C5_9
REMARK    5  A    between atoms: C5_9  and  O2_10
REMARK    6  A    between atoms: C5_9  and  C6_12
REMARK       I    between atoms: N3_13  and  C7_15
REMARK    7  A    between atoms: C8_22  and  N7_23
REMARK    8  A    between atoms: N10_33  and  N11_34
REMARK       I    between atoms: N11_34  and  C12_36
REMARK       I    between atoms: C12_36  and  N13_40
REMARK    9  A    between atoms: N13_40  and  N14_42
ROOT
HETATM    1  N1  UNL     1     -37.274 -21.028  21.237  1.00  0.00    -0.195 NA
HETATM    2  C1  UNL     1     -36.400 -21.524  21.875  1.00  0.00     0.089 C
HETATM    3  C2  UNL     1     -35.340 -22.182  22.697  1.00  0.00     0.267 C
ENDROOT
BRANCH   3   4
HETATM    4  N2  UNL     1     -36.014 -23.519  22.909  1.00  0.00    -0.078 NA
BRANCH   4   5
HETATM    5  O1  UNL     1     -37.100 -23.604  22.140  1.00  0.00    -0.294 OA
ATOM      6  H1  UNL     1     -37.549 -24.424  22.307  1.00  0.00     0.238 HD
ENDBRANCH   4   5
ENDBRANCH   3   4
BRANCH   3   7
HETATM    7  C3  UNL     1     -34.118 -22.378  21.920  1.00  0.00     0.114 A
HETATM    8  C4  UNL     1     -32.989 -21.616  22.232  1.00  0.00     0.088 A
HETATM    9  N6  UNL     1     -32.016 -22.066  21.432  1.00  0.00    -0.187 N
HETATM   10  C8  UNL     1     -32.512 -23.074  20.634  1.00  0.00     0.730 A
ATOM     11  H6  UNL     1     -31.058 -21.718  21.416  1.00  0.00     0.184 HD
HETATM   12  N10 UNL     1     -33.799 -23.265  20.926  1.00  0.00    -0.069 N
BRANCH   8  13
HETATM   13  C5  UNL     1     -32.761 -20.467  23.119  1.00  0.00     0.209 C
BRANCH  13  14
HETATM   14  O2  UNL     1     -33.812 -19.558  23.198  1.00  0.00    -0.384 OA
ATOM     15  H2  UNL     1     -33.748 -18.922  23.901  1.00  0.00     0.211 HD
ENDBRANCH  13  14
BRANCH  13  16
HETATM   16  C6  UNL     1     -31.644 -19.598  22.548  1.00  0.00     0.101 C
HETATM   17  N3  UNL     1     -31.864 -18.404  22.158  1.00  0.00    -0.342 N
HETATM   18  C7  UNL     1     -30.812 -17.627  21.635  1.00  0.00     0.185 C
ATOM     19  H3  UNL     1     -32.803 -18.011  22.225  1.00  0.00     0.167 HD
HETATM   20  N4  UNL     1     -30.557 -17.660  20.384  1.00  0.00    -0.374 N
HETATM   21  N5  UNL     1     -30.021 -16.801  22.474  1.00  0.00    -0.064 NA
ATOM     22  H42 UNL     1     -31.126 -18.254  19.780  1.00  0.00     0.158 HD
ATOM     23  H41 UNL     1     -29.796 -17.098  20.006  1.00  0.00     0.158 HD
ENDBRANCH  13  16
ENDBRANCH   8  13
BRANCH  10  24
HETATM   24  N7  UNL     1     -31.714 -23.737  19.675  1.00  0.00    -0.030 N
HETATM   25  N8  UNL     1     -31.146 -24.886  19.978  1.00  0.00    -0.281 N
HETATM   26  C9  UNL     1     -30.411 -25.551  19.045  1.00  0.00     0.182 A
ATOM     27  H8  UNL     1     -31.257 -25.277  20.912  1.00  0.00     0.187 HD
HETATM   28  C10 UNL     1     -30.254 -25.031  17.778  1.00  0.00     0.266 A
HETATM   29  O3  UNL     1     -29.563 -25.654  16.900  1.00  0.00    -0.267 OA
HETATM   30  N9  UNL     1     -30.842 -23.857  17.489  1.00  0.00    -0.272 N
HETATM   31  C11 UNL     1     -31.557 -23.242  18.450  1.00  0.00     0.363 A
ATOM     32  H9  UNL     1     -30.748 -23.441  16.563  1.00  0.00     0.173 HD
HETATM   33  O4  UNL     1     -32.092 -22.135  18.123  1.00  0.00    -0.244 OA
ENDBRANCH  10  24
BRANCH  12  34
HETATM   34  N11 UNL     1     -34.746 -24.051  20.296  1.00  0.00    -0.110 N
HETATM   35  C12 UNL     1     -34.844 -25.444  20.238  1.00  0.00     0.710 C
HETATM   36  N12 UNL     1     -35.452 -26.066  21.196  1.00  0.00    -0.232 N
HETATM   37  N13 UNL     1     -34.350 -26.186  19.159  1.00  0.00    -0.071 N
ATOM     38 2H12 UNL     1     -35.813 -25.525  21.982  1.00  0.00     0.174 HD
ATOM     39 1H12 UNL     1     -35.524 -27.083  21.154  1.00  0.00     0.174 HD
ATOM     40  H13 UNL     1     -34.026 -27.142  19.308  1.00  0.00     0.212 HD
ATOM     41  H11 UNL     1     -35.478 -23.542  19.802  1.00  0.00     0.207 HD
BRANCH  37  42
HETATM   42  N14 UNL     1     -34.296 -25.631  17.890  1.00  0.00    -0.024 N
HETATM   43  O5  UNL     1     -35.152 -24.805  17.474  1.00  0.00    -0.516 OA
HETATM   44  O6  UNL     1     -33.293 -25.951  16.989  1.00  0.00    -0.516 OA
ENDBRANCH  37  42
ENDBRANCH  12  34
ENDBRANCH   3   7
TORSDOF 9
ENDMDL