MODEL 5
REMARK VINA RESULT: -7.026142301      3.632      6.738
REMARK  13 active torsions:
REMARK  status: ('A' for Active; 'I' for Inactive)
REMARK    1  A    between atoms: C3_3  and  C4_4
REMARK    2  A    between atoms: C5_5  and  C6_6
REMARK    3  A    between atoms: C6_6  and  N1_7
REMARK    4  A    between atoms: C6_6  and  C7_11
REMARK    5  A    between atoms: C7_11  and  O1_12
REMARK    6  A    between atoms: N3_21  and  O4_22
REMARK    7  A    between atoms: N6_30  and  C13_31
REMARK    8  A    between atoms: C13_31  and  O5_32
REMARK    9  A    between atoms: C13_31  and  C14_34
REMARK   10  A    between atoms: C14_34  and  N7_35
REMARK   11  A    between atoms: C14_34  and  C15_39
REMARK       I    between atoms: C15_39  and  N8_41
REMARK   12  A    between atoms: N8_41  and  N9_43
REMARK   13  A    between atoms: C16_46  and  O7_47
ROOT
HETATM    1  C1  UNL     1     -35.193 -27.462  19.778  1.00  0.00     0.055 C
HETATM    2  C2  UNL     1     -35.688 -26.878  18.465  1.00  0.00     0.019 A
HETATM    3  C3  UNL     1     -35.045 -25.956  17.689  1.00  0.00     0.071 A
HETATM    4  N5  UNL     1     -35.874 -25.763  16.651  1.00  0.00    -0.293 N
ATOM      5  H5  UNL     1     -35.680 -25.115  15.888  1.00  0.00     0.187 HD
HETATM    6  N6  UNL     1     -36.967 -26.501  16.725  1.00  0.00    -0.238 N
HETATM    7  C16 UNL     1     -36.884 -27.209  17.860  1.00  0.00     0.168 A
ENDROOT
BRANCH   3   8
HETATM    8  C4  UNL     1     -33.753 -25.352  17.947  1.00  0.00     0.030 A
HETATM    9  C5  UNL     1     -33.667 -24.208  18.696  1.00  0.00     0.058 A
HETATM   10  N2  UNL     1     -32.439 -23.656  18.860  1.00  0.00    -0.323 N
HETATM   11  C8  UNL     1     -31.351 -24.233  18.290  1.00  0.00     0.262 A
ATOM     12  H2  UNL     1     -32.333 -22.806  19.413  1.00  0.00     0.169 HD
HETATM   13  O2  UNL     1     -30.213 -23.693  18.463  1.00  0.00    -0.267 OA
HETATM   14  C9  UNL     1     -31.410 -25.373  17.533  1.00  0.00     0.116 A
HETATM   15  C10 UNL     1     -30.323 -25.952  16.888  1.00  0.00     0.303 A
HETATM   16  C12 UNL     1     -32.671 -25.962  17.356  1.00  0.00     0.017 A
HETATM   17  O3  UNL     1     -29.221 -25.366  17.085  1.00  0.00    -0.263 OA
HETATM   18  N3  UNL     1     -30.445 -27.038  16.115  1.00  0.00    -0.122 N
HETATM   19  N4  UNL     1     -31.641 -27.582  15.961  1.00  0.00    -0.282 N
HETATM   20  C11 UNL     1     -32.746 -27.077  16.559  1.00  0.00     0.123 A
ATOM     21  H4  UNL     1     -31.733 -28.410  15.372  1.00  0.00     0.188 HD
BRANCH   9  22
HETATM   22  C6  UNL     1     -34.919 -23.701  19.346  1.00  0.00     0.257 C
BRANCH  22  23
HETATM   23  N1  UNL     1     -34.857 -23.994  20.795  1.00  0.00    -0.068 N
ATOM     24  H13 UNL     1     -34.148 -23.440  21.274  1.00  0.00     0.275 HD
ATOM     25  H12 UNL     1     -35.673 -23.646  21.298  1.00  0.00     0.275 HD
ATOM     26  H11 UNL     1     -34.720 -24.997  20.921  1.00  0.00     0.275 HD
ENDBRANCH  22  23
BRANCH  22  27
HETATM   27  C7  UNL     1     -34.817 -22.154  19.304  1.00  0.00     0.203 C
BRANCH  27  28
HETATM   28  O1  UNL     1     -34.682 -21.590  18.083  1.00  0.00    -0.398 OA
ATOM     29  H1  UNL     1     -34.706 -22.179  17.338  1.00  0.00     0.209 HD
ENDBRANCH  27  28
ENDBRANCH  22  27
ENDBRANCH   9  22
BRANCH  18  30
HETATM   30  O4  UNL     1     -29.315 -27.542  15.491  1.00  0.00    -0.265 OA
ATOM     31  H4  UNL     1     -29.309 -28.454  15.225  1.00  0.00     0.247 HD
ENDBRANCH  18  30
ENDBRANCH   3   8
BRANCH   7  32
HETATM   32  O7  UNL     1     -37.881 -28.104  18.280  1.00  0.00    -0.344 OA
ATOM     33  H7  UNL     1     -37.911 -29.051  18.215  1.00  0.00     0.219 HD
ENDBRANCH   7  32
BRANCH   6  34
HETATM   34  C13 UNL     1     -37.963 -26.493  15.706  1.00  0.00     0.283 C
BRANCH  34  35
HETATM   35  O5  UNL     1     -37.303 -26.773  14.448  1.00  0.00    -0.372 OA
ATOM     36  H5  UNL     1     -37.280 -27.717  14.341  1.00  0.00     0.212 HD
ENDBRANCH  34  35
BRANCH  34  37
HETATM   37  C14 UNL     1     -38.709 -25.242  15.415  1.00  0.00     0.326 C
BRANCH  37  38
HETATM   38  N7  UNL     1     -39.644 -25.056  16.620  1.00  0.00    -0.062 N
ATOM     39  H73 UNL     1     -39.556 -25.784  17.329  1.00  0.00     0.275 HD
ATOM     40  H72 UNL     1     -39.390 -24.276  17.225  1.00  0.00     0.275 HD
ATOM     41  H71 UNL     1     -40.576 -24.982  16.214  1.00  0.00     0.275 HD
ENDBRANCH  37  38
BRANCH  37  42
HETATM   42  C15 UNL     1     -37.953 -23.978  15.498  1.00  0.00     0.270 C
HETATM   43  O6  UNL     1     -37.036 -23.721  14.653  1.00  0.00    -0.269 OA
HETATM   44  N8  UNL     1     -38.207 -23.015  16.500  1.00  0.00    -0.275 N
ATOM     45  H8  UNL     1     -38.945 -23.194  17.181  1.00  0.00     0.189 HD
BRANCH  44  46
HETATM   46  N9  UNL     1     -37.485 -21.834  16.587  1.00  0.00    -0.343 N
ATOM     47  H92 UNL     1     -37.330 -21.306  15.729  1.00  0.00     0.176 HD
ATOM     48  H91 UNL     1     -37.114 -21.491  17.472  1.00  0.00     0.176 HD
ENDBRANCH  44  46
ENDBRANCH  37  42
ENDBRANCH  34  37
ENDBRANCH   6  34
TORSDOF 13
ENDMDL