MODEL 4
REMARK VINA RESULT: -7.867904023      2.064      2.891
REMARK  11 active torsions:
REMARK  status: ('A' for Active; 'I' for Inactive)
REMARK    1  A    between atoms: C1_2  and  C2_4
REMARK    2  A    between atoms: C3_7  and  C4_8
REMARK    3  A    between atoms: C4_8  and  N3_9
REMARK    4  A    between atoms: C4_8  and  N4_13
REMARK    5  A    between atoms: C5_19  and  N6_20
REMARK       I    between atoms: N6_20  and  C6_22
REMARK       I    between atoms: C6_22  and  N7_23
REMARK       I    between atoms: C6_22  and  N8_27
REMARK    6  A    between atoms: C7_31  and  C8_32
REMARK    7  A    between atoms: C8_32  and  N9_33
REMARK    8  A    between atoms: C10_35  and  C11_36
REMARK    9  A    between atoms: C15_41  and  C16_42
REMARK   10  A    between atoms: C16_42  and  O3_43
REMARK   11  A    between atoms: C16_42  and  O4_45
ROOT
HETATM    1  C2  UNL     1     -33.491 -20.449  20.696  1.00  0.00     0.111 A
HETATM    2  N2  UNL     1     -32.858 -19.223  20.617  1.00  0.00    -0.338 N
ATOM      3  H2  UNL     1     -33.023 -18.654  19.787  1.00  0.00     0.167 HD
HETATM    4  C3  UNL     1     -32.052 -18.739  21.551  1.00  0.00     0.142 A
HETATM    5  N5  UNL     1     -31.853 -19.502  22.631  1.00  0.00    -0.329 N
ATOM      6  H5  UNL     1     -31.238 -19.152  23.366  1.00  0.00     0.168 HD
HETATM    7  C5  UNL     1     -32.421 -20.703  22.794  1.00  0.00     0.115 A
HETATM    8  C7  UNL     1     -33.260 -21.206  21.815  1.00  0.00     0.037 A
ENDROOT
BRANCH   8   9
HETATM    9  C8  UNL     1     -33.761 -22.574  22.003  1.00  0.00     0.194 C
BRANCH   9  10
HETATM   10  N9  UNL     1     -32.969 -23.544  21.242  1.00  0.00    -0.282 N
HETATM   11  C9  UNL     1     -33.360 -24.140  20.072  1.00  0.00     0.145 A
HETATM   12  C10 UNL     1     -32.367 -25.013  19.628  1.00  0.00     0.100 A
HETATM   13  N10 UNL     1     -31.401 -24.909  20.558  1.00  0.00    -0.282 N
HETATM   14  N11 UNL     1     -31.788 -24.050  21.471  1.00  0.00    -0.240 N
ATOM     15  H10 UNL     1     -30.515 -25.413  20.554  1.00  0.00     0.188 HD
ATOM     16  H11 UNL     1     -31.221 -23.802  22.282  1.00  0.00     0.208 HD
BRANCH  12  17
HETATM   17  C11 UNL     1     -32.386 -25.842  18.429  1.00  0.00     0.109 A
HETATM   18  C12 UNL     1     -33.527 -26.525  18.067  1.00  0.00     0.094 A
HETATM   19  C13 UNL     1     -33.580 -27.320  16.936  1.00  0.00     0.177 A
HETATM   20  O2  UNL     1     -34.600 -27.948  16.588  1.00  0.00    -0.288 OA
HETATM   21  C14 UNL     1     -32.395 -27.377  16.192  1.00  0.00     0.092 A
HETATM   22  C15 UNL     1     -31.274 -26.680  16.584  1.00  0.00     0.112 A
HETATM   23  O5  UNL     1     -31.344 -25.958  17.677  1.00  0.00    -0.307 OA
BRANCH  22  24
HETATM   24  C16 UNL     1     -30.020 -26.754  15.777  1.00  0.00     0.312 C
BRANCH  24  25
HETATM   25  O3  UNL     1     -29.576 -28.054  15.728  1.00  0.00    -0.365 OA
ATOM     26  H3  UNL     1     -29.293 -28.329  16.592  1.00  0.00     0.213 HD
ENDBRANCH  24  25
BRANCH  24  27
HETATM   27  O4  UNL     1     -29.064 -25.991  16.458  1.00  0.00    -0.365 OA
ATOM     28  H4  UNL     1     -28.986 -26.368  17.327  1.00  0.00     0.213 HD
ENDBRANCH  24  27
ENDBRANCH  22  24
ENDBRANCH  12  17
ENDBRANCH   9  10
ENDBRANCH   8   9
BRANCH   1  29
HETATM   29  C1  UNL     1     -34.383 -20.814  19.607  1.00  0.00     0.282 C
HETATM   30  N1  UNL     1     -35.778 -20.777  19.561  1.00  0.00    -0.056 NA
HETATM   31  O1  UNL     1     -33.814 -21.223  18.534  1.00  0.00    -0.269 OA
ENDBRANCH   1  29
BRANCH   7  32
HETATM   32  N6  UNL     1     -32.183 -21.358  23.884  1.00  0.00    -0.327 N
HETATM   33  C6  UNL     1     -32.935 -21.257  25.093  1.00  0.00     0.481 C
HETATM   34  N7  UNL     1     -32.582 -22.305  26.045  1.00  0.00    -0.033 N
HETATM   35  N8  UNL     1     -32.595 -20.000  25.750  1.00  0.00    -0.033 N
ATOM     36  H73 UNL     1     -32.675 -23.231  25.627  1.00  0.00     0.278 HD
ATOM     37  H72 UNL     1     -31.580 -22.314  26.232  1.00  0.00     0.278 HD
ATOM     38  H71 UNL     1     -33.119 -22.233  26.909  1.00  0.00     0.278 HD
ATOM     39  H83 UNL     1     -31.592 -19.899  25.904  1.00  0.00     0.278 HD
ATOM     40  H82 UNL     1     -32.726 -19.193  25.140  1.00  0.00     0.278 HD
ATOM     41  H81 UNL     1     -33.132 -19.928  26.614  1.00  0.00     0.278 HD
ATOM     42  H6  UNL     1     -31.391 -22.000  23.879  1.00  0.00     0.164 HD
ENDBRANCH   7  32
BRANCH   4  43
HETATM   43  C4  UNL     1     -31.380 -17.414  21.441  1.00  0.00     0.444 C
BRANCH  43  44
HETATM   44  N3  UNL     1     -30.627 -17.093  22.636  1.00  0.00    -0.043 N
ATOM     45  H33 UNL     1     -30.524 -17.908  23.241  1.00  0.00     0.277 HD
ATOM     46  H32 UNL     1     -29.643 -16.927  22.422  1.00  0.00     0.277 HD
ATOM     47  H31 UNL     1     -31.034 -16.306  23.140  1.00  0.00     0.277 HD
ENDBRANCH  43  44
BRANCH  43  48
HETATM   48  N4  UNL     1     -32.280 -16.376  21.045  1.00  0.00    -0.043 N
ATOM     49  H43 UNL     1     -31.795 -15.483  20.959  1.00  0.00     0.277 HD
ATOM     50  H42 UNL     1     -32.575 -16.496  20.076  1.00  0.00     0.277 HD
ATOM     51  H41 UNL     1     -33.084 -16.299  21.667  1.00  0.00     0.277 HD
ENDBRANCH  43  48
ENDBRANCH   4  43
TORSDOF 11
ENDMDL