MODEL 3
REMARK VINA RESULT: -5.096783008      1.877      2.659
REMARK  15 active torsions:
REMARK  status: ('A' for Active; 'I' for Inactive)
REMARK    1  A    between atoms: O1_2  and  C2_3
REMARK    2  A    between atoms: C3_4  and  N1_5
REMARK    3  A    between atoms: C5_10  and  N2_11
REMARK    4  A    between atoms: C7_16  and  O2_17
REMARK    5  A    between atoms: O2_17  and  C8_18
REMARK    6  A    between atoms: C9_19  and  N3_20
REMARK    7  A    between atoms: C11_25  and  N4_26
REMARK    8  A    between atoms: C12_30  and  N5_31
REMARK    9  A    between atoms: N5_31  and  C13_34
REMARK   10  A    between atoms: C13_34  and  C14_35
REMARK   11  A    between atoms: C14_35  and  N6_36
REMARK   12  A    between atoms: C15_40  and  N7_41
REMARK   13  A    between atoms: C17_45  and  N9_46
REMARK   14  A    between atoms: N10_49  and  N11_50
REMARK   15  A    between atoms: C18_53  and  O3_54
ROOT
HETATM    1  C8  UNL     1     -32.853 -23.082  22.580  1.00  0.00     0.202 C
HETATM    2  C9  UNL     1     -33.059 -23.328  24.034  1.00  0.00     0.220 C
HETATM    3  C10 UNL     1     -32.824 -22.174  24.955  1.00  0.00     0.071 C
HETATM    4  C11 UNL     1     -33.484 -20.892  24.512  1.00  0.00     0.222 C
HETATM    5  C12 UNL     1     -34.057 -20.957  23.152  1.00  0.00     0.266 C
HETATM    6  C15 UNL     1     -33.221 -21.707  22.122  1.00  0.00     0.079 C
ENDROOT
BRANCH   1   7
HETATM    7  O2  UNL     1     -33.663 -24.077  21.956  1.00  0.00    -0.370 OA
BRANCH   7   8
HETATM    8  C7  UNL     1     -32.953 -25.135  21.454  1.00  0.00     0.155 C
HETATM    9  C6  UNL     1     -31.790 -24.562  20.674  1.00  0.00     0.067 C
HETATM   10  C5  UNL     1     -32.156 -24.158  19.270  1.00  0.00     0.188 C
HETATM   11  C4  UNL     1     -32.226 -25.300  18.318  1.00  0.00     0.068 C
HETATM   12  C3  UNL     1     -33.526 -26.019  18.282  1.00  0.00     0.216 C
HETATM   13  C2  UNL     1     -34.381 -25.614  19.439  1.00  0.00     0.182 C
HETATM   14  C18 UNL     1     -33.728 -26.148  20.690  1.00  0.00     0.178 C
BRANCH  10  15
HETATM   15  N2  UNL     1     -31.020 -23.324  18.816  1.00  0.00    -0.075 N
ATOM     16  H23 UNL     1     -30.444 -22.968  19.579  1.00  0.00     0.274 HD
ATOM     17  H22 UNL     1     -30.285 -23.854  18.347  1.00  0.00     0.274 HD
ATOM     18  H21 UNL     1     -31.428 -22.591  18.235  1.00  0.00     0.274 HD
ENDBRANCH  10  15
BRANCH  12  19
HETATM   19  N1  UNL     1     -34.204 -25.919  17.009  1.00  0.00    -0.072 N
ATOM     20  H13 UNL     1     -35.155 -26.280  17.075  1.00  0.00     0.274 HD
ATOM     21  H12 UNL     1     -34.408 -24.945  16.783  1.00  0.00     0.274 HD
ATOM     22  H11 UNL     1     -33.698 -26.370  16.246  1.00  0.00     0.274 HD
ENDBRANCH  12  19
BRANCH  13  23
HETATM   23  O1  UNL     1     -35.606 -26.306  19.255  1.00  0.00    -0.386 OA
HETATM   24  C1  UNL     1     -36.691 -25.463  19.246  1.00  0.00     0.202 C
ENDBRANCH  13  23
BRANCH  14  25
HETATM   25  O3  UNL     1     -34.701 -26.713  21.482  1.00  0.00    -0.390 OA
ATOM     26  H3  UNL     1     -35.015 -26.053  22.089  1.00  0.00     0.210 HD
ENDBRANCH  14  25
ENDBRANCH   7   8
ENDBRANCH   1   7
BRANCH   2  27
HETATM   27  N3  UNL     1     -34.390 -23.830  24.330  1.00  0.00    -0.072 N
ATOM     28  H33 UNL     1     -34.839 -24.199  23.491  1.00  0.00     0.274 HD
ATOM     29  H32 UNL     1     -34.346 -24.686  24.882  1.00  0.00     0.274 HD
ATOM     30  H31 UNL     1     -34.979 -23.131  24.783  1.00  0.00     0.274 HD
ENDBRANCH   2  27
BRANCH   6  31
HETATM   31  N7  UNL     1     -32.230 -20.922  21.472  1.00  0.00    -0.219 N
HETATM   32  C16 UNL     1     -30.979 -20.736  22.013  1.00  0.00     0.226 A
HETATM   33  N8  UNL     1     -30.235 -19.962  21.216  1.00  0.00    -0.183 N
HETATM   34  C17 UNL     1     -30.980 -19.645  20.169  1.00  0.00     0.713 A
ATOM     35  H8  UNL     1     -29.272 -19.671  21.384  1.00  0.00     0.185 HD
HETATM   36  N10 UNL     1     -32.180 -20.240  20.354  1.00  0.00    -0.020 N
BRANCH  34  37
HETATM   37  N9  UNL     1     -30.663 -18.909  19.142  1.00  0.00    -0.231 N
ATOM     38  H92 UNL     1     -30.440 -19.268  18.214  1.00  0.00     0.174 HD
ATOM     39  H91 UNL     1     -30.586 -17.894  19.089  1.00  0.00     0.174 HD
ENDBRANCH  34  37
BRANCH  36  40
HETATM   40  N11 UNL     1     -33.206 -20.122  19.446  1.00  0.00    -0.309 N
ATOM     41 2H11 UNL     1     -34.169 -20.367  19.677  1.00  0.00     0.179 HD
ATOM     42 1H11 UNL     1     -33.112 -19.788  18.487  1.00  0.00     0.179 HD
ENDBRANCH  36  40
ENDBRANCH   6  31
BRANCH   5  43
HETATM   43  N5  UNL     1     -34.412 -19.658  22.676  1.00  0.00    -0.062 N
ATOM     44  H52 UNL     1     -34.375 -18.966  23.424  1.00  0.00     0.278 HD
ATOM     45  H51 UNL     1     -33.689 -19.276  22.067  1.00  0.00     0.278 HD
BRANCH  43  46
HETATM   46  C13 UNL     1     -35.720 -19.661  22.015  1.00  0.00     0.260 C
BRANCH  46  47
HETATM   47  C14 UNL     1     -36.630 -18.615  22.577  1.00  0.00     0.257 C
BRANCH  47  48
HETATM   48  N6  UNL     1     -36.291 -17.321  22.063  1.00  0.00    -0.078 N
ATOM     49  H63 UNL     1     -35.409 -16.981  22.446  1.00  0.00     0.274 HD
ATOM     50  H62 UNL     1     -36.023 -17.363  21.080  1.00  0.00     0.274 HD
ATOM     51  H61 UNL     1     -37.052 -16.661  22.220  1.00  0.00     0.274 HD
ENDBRANCH  47  48
ENDBRANCH  46  47
ENDBRANCH  43  46
ENDBRANCH   5  43
BRANCH   4  52
HETATM   52  N4  UNL     1     -32.621 -19.743  24.751  1.00  0.00    -0.073 N
ATOM     53  H43 UNL     1     -33.161 -18.915  25.003  1.00  0.00     0.274 HD
ATOM     54  H42 UNL     1     -32.084 -19.850  25.612  1.00  0.00     0.274 HD
ATOM     55  H41 UNL     1     -32.013 -19.565  23.952  1.00  0.00     0.274 HD
ENDBRANCH   4  52
TORSDOF 15
ENDMDL