MODEL 1
REMARK VINA RESULT: -6.101916125      0.000      0.000
REMARK  14 active torsions:
REMARK  status: ('A' for Active; 'I' for Inactive)
REMARK    1  A    between atoms: C3_4  and  O2_5
REMARK    2  A    between atoms: O2_5  and  C4_6
REMARK    3  A    between atoms: C5_7  and  O3_8
REMARK    4  A    between atoms: C6_10  and  N1_11
REMARK    5  A    between atoms: C8_16  and  N2_17
REMARK    6  A    between atoms: C9_21  and  O4_22
REMARK    7  A    between atoms: O4_22  and  C10_23
REMARK    8  A    between atoms: C11_25  and  C12_26
REMARK    9  A    between atoms: C12_26  and  N3_27
REMARK   10  A    between atoms: C13_31  and  O6_32
REMARK   11  A    between atoms: C15_35  and  N4_36
REMARK   12  A    between atoms: C16_41  and  C17_42
REMARK   13  A    between atoms: C17_42  and  O8_43
REMARK   14  A    between atoms: C18_45  and  N5_46
ROOT
HETATM    1  C4  UNL     1     -31.795 -21.997  22.935  1.00  0.00     0.188 C
HETATM    2  C5  UNL     1     -32.395 -22.401  24.259  1.00  0.00     0.180 C
HETATM    3  C6  UNL     1     -32.591 -21.117  25.047  1.00  0.00     0.216 C
HETATM    4  C7  UNL     1     -33.774 -20.432  24.424  1.00  0.00     0.071 C
HETATM    5  C8  UNL     1     -33.713 -20.356  22.936  1.00  0.00     0.217 C
HETATM    6  C9  UNL     1     -32.462 -20.822  22.307  1.00  0.00     0.186 C
ENDROOT
BRANCH   6   7
HETATM    7  O4  UNL     1     -31.545 -19.767  22.201  1.00  0.00    -0.349 OA
BRANCH   7   8
HETATM    8  C10 UNL     1     -31.743 -18.967  21.104  1.00  0.00     0.291 C
HETATM    9  O5  UNL     1     -31.364 -17.686  21.388  1.00  0.00    -0.350 OA
HETATM   10  C11 UNL     1     -31.471 -16.840  20.265  1.00  0.00     0.178 C
HETATM   11  C13 UNL     1     -30.329 -17.255  19.354  1.00  0.00     0.151 C
HETATM   12  C14 UNL     1     -30.665 -18.639  18.853  1.00  0.00     0.072 C
HETATM   13  C15 UNL     1     -31.039 -19.593  19.935  1.00  0.00     0.240 C
BRANCH  10  14
HETATM   14  C12 UNL     1     -31.359 -15.395  20.697  1.00  0.00     0.264 C
BRANCH  14  15
HETATM   15  N3  UNL     1     -30.728 -14.614  19.679  1.00  0.00    -0.077 N
ATOM     16  H33 UNL     1     -30.201 -13.835  20.072  1.00  0.00     0.274 HD
ATOM     17  H32 UNL     1     -29.955 -15.116  19.241  1.00  0.00     0.274 HD
ATOM     18  H31 UNL     1     -31.413 -14.301  18.991  1.00  0.00     0.274 HD
ENDBRANCH  14  15
ENDBRANCH  10  14
BRANCH  11  19
HETATM   19  O6  UNL     1     -29.202 -17.387  20.164  1.00  0.00    -0.393 OA
ATOM     20  H6  UNL     1     -28.761 -18.181  19.887  1.00  0.00     0.210 HD
ENDBRANCH  11  19
BRANCH  13  21
HETATM   21  N4  UNL     1     -29.858 -20.327  20.379  1.00  0.00    -0.070 N
ATOM     22  H43 UNL     1     -29.072 -19.704  20.564  1.00  0.00     0.274 HD
ATOM     23  H42 UNL     1     -29.978 -20.704  21.319  1.00  0.00     0.274 HD
ATOM     24  H41 UNL     1     -29.614 -21.055  19.707  1.00  0.00     0.274 HD
ENDBRANCH  13  21
ENDBRANCH   7   8
ENDBRANCH   6   7
BRANCH   1  25
HETATM   25  O2  UNL     1     -31.837 -23.117  22.113  1.00  0.00    -0.328 OA
BRANCH  25  26
HETATM   26  C3  UNL     1     -32.545 -22.873  20.915  1.00  0.00     0.414 C
HETATM   27  O1  UNL     1     -33.742 -23.486  21.021  1.00  0.00    -0.332 OA
HETATM   28  C2  UNL     1     -34.172 -24.339  20.062  1.00  0.00     0.156 C
HETATM   29  C1  UNL     1     -34.817 -23.515  18.955  1.00  0.00     0.042 C
HETATM   30  C18 UNL     1     -33.102 -25.259  19.521  1.00  0.00     0.243 C
HETATM   31  C16 UNL     1     -31.717 -24.707  19.827  1.00  0.00     0.183 C
HETATM   32  O7  UNL     1     -31.727 -23.338  19.917  1.00  0.00    -0.329 OA
BRANCH  30  33
HETATM   33  N5  UNL     1     -33.209 -25.519  18.110  1.00  0.00    -0.070 N
ATOM     34  H53 UNL     1     -33.285 -26.521  17.936  1.00  0.00     0.274 HD
ATOM     35  H52 UNL     1     -34.116 -25.213  17.758  1.00  0.00     0.274 HD
ATOM     36  H51 UNL     1     -32.455 -25.116  17.553  1.00  0.00     0.274 HD
ENDBRANCH  30  33
BRANCH  31  37
HETATM   37  C17 UNL     1     -30.714 -25.176  18.799  1.00  0.00     0.198 C
BRANCH  37  38
HETATM   38  O8  UNL     1     -30.461 -24.108  17.942  1.00  0.00    -0.398 OA
ATOM     39  H8  UNL     1     -29.524 -24.078  17.792  1.00  0.00     0.209 HD
ENDBRANCH  37  38
ENDBRANCH  31  37
ENDBRANCH  25  26
ENDBRANCH   1  25
BRANCH   5  40
HETATM   40  N2  UNL     1     -34.893 -21.011  22.379  1.00  0.00    -0.072 N
ATOM     41  H23 UNL     1     -34.672 -21.907  21.947  1.00  0.00     0.274 HD
ATOM     42  H22 UNL     1     -35.525 -21.354  23.103  1.00  0.00     0.274 HD
ATOM     43  H21 UNL     1     -35.352 -20.370  21.733  1.00  0.00     0.274 HD
ENDBRANCH   5  40
BRANCH   2  44
HETATM   44  O3  UNL     1     -33.588 -23.070  24.151  1.00  0.00    -0.391 OA
ATOM     45  H3  UNL     1     -33.693 -23.776  24.777  1.00  0.00     0.210 HD
ENDBRANCH   2  44
BRANCH   3  46
HETATM   46  N1  UNL     1     -32.918 -21.488  26.402  1.00  0.00    -0.072 N
ATOM     47  H13 UNL     1     -33.920 -21.613  26.550  1.00  0.00     0.274 HD
ATOM     48  H12 UNL     1     -32.629 -22.437  26.636  1.00  0.00     0.274 HD
ATOM     49  H11 UNL     1     -32.510 -20.785  27.018  1.00  0.00     0.274 HD
ENDBRANCH   3  46
TORSDOF 14
ENDMDL