MODEL 4
REMARK VINA RESULT: -8.284246036      2.739      9.774
REMARK  11 active torsions:
REMARK  status: ('A' for Active; 'I' for Inactive)
REMARK    1  A    between atoms: C2_2  and  O1_3
REMARK    2  A    between atoms: C2_2  and  C3_5
REMARK    3  A    between atoms: C3_5  and  O2_6
REMARK    4  A    between atoms: C3_5  and  C4_8
REMARK    5  A    between atoms: C4_8  and  O3_9
REMARK    6  A    between atoms: C4_8  and  O4_11
REMARK    7  A    between atoms: O4_11  and  C5_12
REMARK    8  A    between atoms: C5_12  and  N1_13
REMARK    9  A    between atoms: C8_21  and  C9_22
REMARK   10  A    between atoms: N7_34  and  N8_35
REMARK   11  A    between atoms: C14_40  and  N10_41
ROOT
HETATM    1  N1  UNL     1     -31.970 -25.871  17.355  1.00  0.00    -0.219 N
HETATM    2  C6  UNL     1     -30.688 -25.399  17.277  1.00  0.00     0.336 A
HETATM    3  O5  UNL     1     -29.801 -26.090  16.690  1.00  0.00    -0.246 OA
HETATM    4  N2  UNL     1     -30.379 -24.224  17.817  1.00  0.00    -0.293 N
ATOM      5  H2  UNL     1     -29.422 -23.878  17.755  1.00  0.00     0.172 HD
HETATM    6  C7  UNL     1     -31.317 -23.482  18.445  1.00  0.00     0.130 A
HETATM    7  N3  UNL     1     -31.035 -22.291  18.999  1.00  0.00    -0.324 N
ATOM      8  H3  UNL     1     -30.074 -21.955  18.930  1.00  0.00     0.169 HD
HETATM    9  C8  UNL     1     -31.923 -21.510  19.636  1.00  0.00     0.155 A
HETATM   10  N9  UNL     1     -33.190 -21.949  19.729  1.00  0.00    -0.325 N
ATOM     11  H9  UNL     1     -33.889 -21.380  20.206  1.00  0.00     0.169 HD
HETATM   12  C14 UNL     1     -33.546 -23.140  19.194  1.00  0.00     0.120 A
HETATM   13  C15 UNL     1     -32.625 -23.928  18.545  1.00  0.00     0.120 A
HETATM   14  C16 UNL     1     -32.918 -25.153  17.976  1.00  0.00     0.274 A
HETATM   15  O7  UNL     1     -34.115 -25.525  18.093  1.00  0.00    -0.266 OA
ENDROOT
BRANCH   9  16
HETATM   16  C9  UNL     1     -31.492 -20.232  20.197  1.00  0.00     0.176 A
HETATM   17  N4  UNL     1     -31.232 -19.197  19.382  1.00  0.00    -0.303 N
HETATM   18  C10 UNL     1     -30.827 -17.985  19.855  1.00  0.00     0.277 A
ATOM     19  H4  UNL     1     -31.341 -19.322  18.376  1.00  0.00     0.171 HD
HETATM   20  O6  UNL     1     -30.584 -17.020  19.085  1.00  0.00    -0.265 OA
HETATM   21  C11 UNL     1     -30.674 -17.798  21.213  1.00  0.00     0.148 A
HETATM   22  N5  UNL     1     -30.301 -16.758  21.983  1.00  0.00    -0.345 N
HETATM   23  C13 UNL     1     -30.940 -18.858  22.047  1.00  0.00     0.162 A
HETATM   24  C12 UNL     1     -30.321 -17.124  23.285  1.00  0.00     0.182 A
ATOM     25  H5  UNL     1     -30.041 -15.834  21.637  1.00  0.00     0.167 HD
HETATM   26  N6  UNL     1     -30.714 -18.409  23.295  1.00  0.00    -0.335 N
ATOM     27  H6  UNL     1     -30.827 -18.972  24.138  1.00  0.00     0.168 HD
HETATM   28  N7  UNL     1     -31.339 -20.039  21.517  1.00  0.00    -0.224 N
BRANCH  28  29
HETATM   29  N8  UNL     1     -31.610 -21.112  22.358  1.00  0.00    -0.335 N
ATOM     30  H82 UNL     1     -32.460 -21.110  22.921  1.00  0.00     0.177 HD
ATOM     31  H81 UNL     1     -30.933 -21.876  22.379  1.00  0.00     0.177 HD
ENDBRANCH  28  29
ENDBRANCH   9  16
BRANCH  12  32
HETATM   32  N10 UNL     1     -34.773 -23.585  19.273  1.00  0.00    -0.384 N
ATOM     33 2H10 UNL     1     -35.488 -22.941  19.610  1.00  0.00     0.157 HD
ATOM     34 1H10 UNL     1     -35.011 -24.541  19.009  1.00  0.00     0.157 HD
ENDBRANCH  12  32
BRANCH   1  35
HETATM   35  C5  UNL     1     -32.198 -27.158  16.782  1.00  0.00     0.245 C
BRANCH  35  36
HETATM   36  O4  UNL     1     -33.072 -27.202  15.782  1.00  0.00    -0.312 OA
BRANCH  36  37
HETATM   37  C4  UNL     1     -34.254 -27.789  15.763  1.00  0.00     0.295 C
BRANCH  37  38
HETATM   38  C3  UNL     1     -34.496 -28.552  17.062  1.00  0.00     0.201 C
BRANCH  38  39
HETATM   39  C2  UNL     1     -35.861 -28.356  17.628  1.00  0.00     0.147 C
HETATM   40  C1  UNL     1     -35.973 -28.604  19.110  1.00  0.00     0.042 C
BRANCH  39  41
HETATM   41  O1  UNL     1     -36.704 -29.301  16.995  1.00  0.00    -0.393 OA
ATOM     42  H1  UNL     1     -36.316 -29.485  16.147  1.00  0.00     0.210 HD
ENDBRANCH  39  41
ENDBRANCH  38  39
BRANCH  38  43
HETATM   43  O2  UNL     1     -34.249 -29.904  16.801  1.00  0.00    -0.388 OA
ATOM     44  H2  UNL     1     -33.385 -30.158  17.103  1.00  0.00     0.210 HD
ENDBRANCH  38  43
ENDBRANCH  37  38
BRANCH  37  45
HETATM   45  O3  UNL     1     -35.343 -26.924  15.515  1.00  0.00    -0.368 OA
ATOM     46  H3  UNL     1     -35.020 -26.046  15.348  1.00  0.00     0.212 HD
ENDBRANCH  37  45
ENDBRANCH  36  37
ENDBRANCH  35  36
ENDBRANCH   1  35
TORSDOF 11
ENDMDL