MODEL 2
REMARK VINA RESULT: -6.956910158      1.995      2.965
REMARK  12 active torsions:
REMARK  status: ('A' for Active; 'I' for Inactive)
REMARK    1  A    between atoms: N1_1  and  C1_4
REMARK    2  A    between atoms: C2_7  and  S1_8
REMARK    3  A    between atoms: S1_8  and  N3_9
REMARK    4  A    between atoms: C5_16  and  C6_17
REMARK    5  A    between atoms: C6_17  and  O1_18
REMARK    6  A    between atoms: C6_17  and  C7_20
REMARK    7  A    between atoms: C7_20  and  N5_21
REMARK    8  A    between atoms: C7_20  and  C8_25
REMARK    9  A    between atoms: C8_25  and  C9_27
REMARK   10  A    between atoms: C10_30  and  N6_31
REMARK   11  A    between atoms: C13_42  and  N9_43
REMARK   12  A    between atoms: N9_43  and  N10_45
ROOT
HETATM    1  C1  UNL     1     -35.716 -18.771  22.519  1.00  0.00     0.677 A
HETATM    2  N2  UNL     1     -36.210 -19.301  23.634  1.00  0.00    -0.183 N
ATOM      3  H2  UNL     1     -37.104 -18.981  24.006  1.00  0.00     0.185 HD
HETATM    4  C2  UNL     1     -35.495 -20.291  24.282  1.00  0.00     0.122 A
HETATM    5  C3  UNL     1     -34.308 -20.725  23.800  1.00  0.00     0.069 A
HETATM    6  C4  UNL     1     -33.808 -20.143  22.613  1.00  0.00     0.052 A
HETATM    7  N4  UNL     1     -34.526 -19.192  22.019  1.00  0.00    -0.194 N
ATOM      8  H4  UNL     1     -34.172 -18.766  21.163  1.00  0.00     0.184 HD
HETATM    9  C5  UNL     1     -32.555 -20.565  21.996  1.00  0.00     0.103 C
HETATM   10  C10 UNL     1     -32.696 -22.064  21.655  1.00  0.00     0.254 C
HETATM   11  C11 UNL     1     -32.387 -22.962  22.795  1.00  0.00     0.252 A
HETATM   12  C12 UNL     1     -32.296 -24.425  22.412  1.00  0.00     0.299 A
HETATM   13  N7  UNL     1     -31.130 -23.697  22.811  1.00  0.00    -0.041 N
ATOM     14  H71 UNL     1     -30.422 -23.853  23.528  1.00  0.00     0.280 HD
ATOM     15  H72 UNL     1     -30.223 -23.537  22.371  1.00  0.00     0.280 HD
HETATM   16  N8  UNL     1     -32.928 -22.681  24.045  1.00  0.00    -0.339 N
ATOM     17  H8  UNL     1     -32.613 -23.357  24.741  1.00  0.00     0.163 HD
HETATM   18  C13 UNL     1     -33.738 -21.779  24.587  1.00  0.00     0.138 C
ENDROOT
BRANCH   9  19
HETATM   19  C6  UNL     1     -32.026 -19.926  20.806  1.00  0.00     0.168 C
BRANCH  19  20
HETATM   20  O1  UNL     1     -32.953 -19.744  19.761  1.00  0.00    -0.392 OA
ATOM     21  H1  UNL     1     -33.708 -19.211  19.978  1.00  0.00     0.210 HD
ENDBRANCH  19  20
BRANCH  19  22
HETATM   22  C7  UNL     1     -31.114 -18.739  20.937  1.00  0.00     0.293 C
BRANCH  22  23
HETATM   23  N5  UNL     1     -31.890 -17.519  20.593  1.00  0.00    -0.065 N
ATOM     24  H53 UNL     1     -32.874 -17.591  20.855  1.00  0.00     0.275 HD
ATOM     25  H52 UNL     1     -31.650 -16.720  21.181  1.00  0.00     0.275 HD
ATOM     26  H51 UNL     1     -31.761 -17.330  19.599  1.00  0.00     0.275 HD
ENDBRANCH  22  23
BRANCH  22  27
HETATM   27  C8  UNL     1     -29.963 -18.811  20.025  1.00  0.00     0.257 C
HETATM   28  O2  UNL     1     -29.221 -19.854  20.007  1.00  0.00    -0.283 OA
BRANCH  27  29
HETATM   29  C9  UNL     1     -29.591 -17.760  19.115  1.00  0.00     0.249 C
HETATM   30  O3  UNL     1     -28.717 -16.892  19.401  1.00  0.00    -0.642 OA
HETATM   31  O4  UNL     1     -30.171 -17.622  17.847  1.00  0.00    -0.642 OA
ENDBRANCH  27  29
ENDBRANCH  22  27
ENDBRANCH  19  22
ENDBRANCH   9  19
BRANCH  10  32
HETATM   32  N6  UNL     1     -34.019 -22.308  21.151  1.00  0.00    -0.070 N
ATOM     33  H63 UNL     1     -34.497 -23.053  21.659  1.00  0.00     0.274 HD
ATOM     34  H62 UNL     1     -34.663 -21.549  21.371  1.00  0.00     0.274 HD
ATOM     35  H61 UNL     1     -33.963 -22.493  20.150  1.00  0.00     0.274 HD
ENDBRANCH  10  32
BRANCH   4  36
HETATM   36  S1  UNL     1     -36.275 -20.970  25.700  1.00  0.00    -0.002 SA
BRANCH  36  37
HETATM   37  N3  UNL     1     -36.334 -19.865  27.062  1.00  0.00    -0.369 N
ATOM     38  H32 UNL     1     -36.292 -20.188  28.029  1.00  0.00     0.164 HD
ATOM     39  H31 UNL     1     -36.413 -18.885  26.789  1.00  0.00     0.164 HD
ENDBRANCH  36  37
ENDBRANCH   4  36
BRANCH  18  40
HETATM   40  N9  UNL     1     -33.950 -21.945  25.961  1.00  0.00    -0.225 N
ATOM     41  H9  UNL     1     -34.757 -22.439  26.342  1.00  0.00     0.195 HD
BRANCH  40  42
HETATM   42  N10 UNL     1     -32.960 -21.374  26.763  1.00  0.00    -0.037 N
HETATM   43  O5  UNL     1     -31.809 -21.843  26.890  1.00  0.00    -0.516 OA
HETATM   44  O6  UNL     1     -33.176 -20.214  27.506  1.00  0.00    -0.516 OA
ENDBRANCH  40  42
ENDBRANCH  18  40
BRANCH   1  45
HETATM   45  N1  UNL     1     -36.353 -17.861  21.905  1.00  0.00    -0.234 N
ATOM     46  H12 UNL     1     -37.053 -18.129  21.214  1.00  0.00     0.174 HD
ATOM     47  H11 UNL     1     -36.165 -16.877  22.103  1.00  0.00     0.174 HD
ENDBRANCH   1  45
TORSDOF 12
ENDMDL