MODEL 3
REMARK VINA RESULT: -8.298142267      1.706      2.342
REMARK  11 active torsions:
REMARK  status: ('A' for Active; 'I' for Inactive)
REMARK    1  A    between atoms: C3_8  and  N4_9
REMARK       I    between atoms: N4_9  and  C4_11
REMARK       I    between atoms: C4_11  and  N5_13
REMARK    2  A    between atoms: N5_13  and  N6_14
REMARK    3  A    between atoms: N5_13  and  N7_17
REMARK    4  A    between atoms: N8_19  and  C5_21
REMARK    5  A    between atoms: C6_24  and  N10_25
REMARK       I    between atoms: N10_25  and  C7_27
REMARK    6  A    between atoms: C7_27  and  C8_29
REMARK    7  A    between atoms: C8_29  and  O3_30
REMARK    8  A    between atoms: C8_29  and  C9_32
REMARK    9  A    between atoms: C9_32  and  O4_33
REMARK   10  A    between atoms: C9_32  and  O5_35
REMARK   11  A    between atoms: C11_41  and  N12_42
ROOT
HETATM    1  C5  UNL     1     -32.189 -21.649  21.868  1.00  0.00     0.175 A
HETATM    2  N9  UNL     1     -31.359 -20.740  21.322  1.00  0.00    -0.172 N
ATOM      3  H9  UNL     1     -30.957 -20.927  20.404  1.00  0.00     0.186 HD
HETATM    4  C6  UNL     1     -31.043 -19.594  21.947  1.00  0.00     0.689 A
HETATM    5  N11 UNL     1     -31.591 -19.380  23.161  1.00  0.00    -0.154 N
ATOM      6  H11 UNL     1     -31.363 -18.516  23.652  1.00  0.00     0.187 HD
HETATM    7  C10 UNL     1     -32.426 -20.253  23.753  1.00  0.00     0.296 A
HETATM    8  O6  UNL     1     -32.936 -20.044  24.893  1.00  0.00    -0.265 OA
HETATM    9  C11 UNL     1     -32.756 -21.441  23.107  1.00  0.00     0.216 A
ENDROOT
BRANCH   1  10
HETATM   10  N8  UNL     1     -32.525 -22.864  21.192  1.00  0.00    -0.267 N
HETATM   11  N7  UNL     1     -31.882 -23.246  20.168  1.00  0.00    -0.216 N
ATOM     12  H7  UNL     1     -31.118 -22.650  19.849  1.00  0.00     0.210 HD
ATOM     13  H8  UNL     1     -33.296 -23.434  21.539  1.00  0.00     0.190 HD
BRANCH  11  14
HETATM   14  N5  UNL     1     -32.125 -24.399  19.444  1.00  0.00    -0.134 N
HETATM   15  C4  UNL     1     -33.265 -24.574  18.585  1.00  0.00     0.362 C
HETATM   16  N4  UNL     1     -33.419 -25.795  17.897  1.00  0.00    -0.302 N
HETATM   17  O1  UNL     1     -34.096 -23.661  18.458  1.00  0.00    -0.243 OA
ATOM     18  H4  UNL     1     -32.701 -26.504  18.044  1.00  0.00     0.171 HD
BRANCH  16  19
HETATM   19  C3  UNL     1     -34.476 -26.123  17.022  1.00  0.00     0.096 A
HETATM   20  C1  UNL     1     -34.363 -27.001  15.928  1.00  0.00     0.159 A
HETATM   21  N1  UNL     1     -33.201 -27.704  15.508  1.00  0.00    -0.079 NA
HETATM   22  N2  UNL     1     -35.566 -27.038  15.371  1.00  0.00    -0.286 N
HETATM   23  N3  UNL     1     -36.412 -26.257  16.026  1.00  0.00    -0.308 N
ATOM     24  H2  UNL     1     -35.807 -27.593  14.549  1.00  0.00     0.188 HD
HETATM   25  C2  UNL     1     -35.767 -25.669  17.063  1.00  0.00     0.140 A
ATOM     26  H3  UNL     1     -37.394 -26.119  15.787  1.00  0.00     0.186 HD
ENDBRANCH  16  19
BRANCH  14  27
HETATM   27  N6  UNL     1     -31.179 -25.439  19.584  1.00  0.00    -0.319 N
ATOM     28  H62 UNL     1     -30.566 -25.388  20.398  1.00  0.00     0.179 HD
ATOM     29  H61 UNL     1     -31.137 -26.186  18.891  1.00  0.00     0.179 HD
ENDBRANCH  14  27
ENDBRANCH  11  14
ENDBRANCH   1  10
BRANCH   9  30
HETATM   30  N12 UNL     1     -33.624 -22.398  23.672  1.00  0.00    -0.106 N
HETATM   31  O7  UNL     1     -34.840 -22.308  23.445  1.00  0.00    -0.531 OA
HETATM   32  O8  UNL     1     -33.188 -23.428  24.462  1.00  0.00    -0.531 OA
ENDBRANCH   9  30
BRANCH   4  33
HETATM   33  N10 UNL     1     -30.240 -18.705  21.430  1.00  0.00    -0.157 N
HETATM   34  C7  UNL     1     -30.695 -17.404  21.101  1.00  0.00     0.269 C
HETATM   35  O2  UNL     1     -30.765 -16.544  22.008  1.00  0.00    -0.270 OA
ATOM     36  H10 UNL     1     -29.265 -18.952  21.260  1.00  0.00     0.187 HD
BRANCH  34  37
HETATM   37  C8  UNL     1     -31.096 -17.002  19.731  1.00  0.00     0.265 C
BRANCH  37  38
HETATM   38  O3  UNL     1     -31.854 -15.848  19.720  1.00  0.00    -0.381 OA
ATOM     39  H3  UNL     1     -31.494 -15.171  20.280  1.00  0.00     0.210 HD
ENDBRANCH  37  38
BRANCH  37  40
HETATM   40  C9  UNL     1     -29.876 -16.697  18.850  1.00  0.00     0.291 C
BRANCH  40  41
HETATM   41  O4  UNL     1     -28.787 -17.252  19.520  1.00  0.00    -0.368 OA
ATOM     42  H4  UNL     1     -28.328 -16.516  19.908  1.00  0.00     0.212 HD
ENDBRANCH  40  41
BRANCH  40  43
HETATM   43  O5  UNL     1     -30.041 -17.425  17.657  1.00  0.00    -0.368 OA
ATOM     44  H5  UNL     1     -30.441 -16.836  17.028  1.00  0.00     0.212 HD
ENDBRANCH  40  43
ENDBRANCH  37  40
ENDBRANCH  34  37
ENDBRANCH   4  33
TORSDOF 11
ENDMDL