MODEL 1
REMARK VINA RESULT: -6.944793076      0.000      0.000
REMARK  12 active torsions:
REMARK  status: ('A' for Active; 'I' for Inactive)
REMARK    1  A    between atoms: O1_2  and  C2_3
REMARK    2  A    between atoms: C2_3  and  C3_4
REMARK    3  A    between atoms: C2_3  and  C5_10
REMARK    4  A    between atoms: C3_4  and  O2_5
REMARK    5  A    between atoms: C3_4  and  C4_7
REMARK    6  A    between atoms: C4_7  and  O3_8
REMARK    7  A    between atoms: C5_10  and  O4_11
REMARK    8  A    between atoms: C5_10  and  C6_13
REMARK    9  A    between atoms: N3_18  and  C7_19
REMARK   10  A    between atoms: C7_19  and  O5_20
REMARK   11  A    between atoms: C13_35  and  N8_36
REMARK   12  A    between atoms: C15_44  and  O7_45
ROOT
HETATM    1  C7  UNL     1      -5.879  32.944  -0.797  1.00  0.00     0.195 C
HETATM    2  C8  UNL     1      -5.443  34.069  -0.261  1.00  0.00     0.118 A
HETATM    3  N4  UNL     1      -4.115  34.245   0.181  1.00  0.00    -0.347 N
ATOM      4  H4  UNL     1      -3.445  33.481   0.099  1.00  0.00     0.167 HD
HETATM    5  C9  UNL     1      -3.704  35.503   0.746  1.00  0.00     0.182 A
HETATM    6  N5  UNL     1      -4.533  36.473   0.854  1.00  0.00    -0.336 N
ATOM      7  H5  UNL     1      -4.216  37.354   1.257  1.00  0.00     0.168 HD
HETATM    8  C10 UNL     1      -5.880  36.353   0.429  1.00  0.00     0.164 A
HETATM    9  C11 UNL     1      -6.365  35.189  -0.124  1.00  0.00     0.125 A
HETATM   10  N6  UNL     1      -7.665  35.354  -0.436  1.00  0.00    -0.184 N
ATOM     11  H6  UNL     1      -8.275  34.653  -0.858  1.00  0.00     0.184 HD
HETATM   12  C12 UNL     1      -8.015  36.605  -0.090  1.00  0.00     0.709 A
HETATM   13  N7  UNL     1      -9.201  37.267  -0.194  1.00  0.00    -0.022 N
ATOM     14  H7  UNL     1     -10.020  36.807  -0.591  1.00  0.00     0.203 HD
HETATM   15  C13 UNL     1      -9.273  38.538   0.237  1.00  0.00     0.694 A
HETATM   16  N9  UNL     1      -8.171  39.132   0.763  1.00  0.00    -0.140 N
ATOM     17  H9  UNL     1      -8.233  40.098   1.088  1.00  0.00     0.189 HD
HETATM   18  C14 UNL     1      -7.000  38.480   0.866  1.00  0.00     0.361 A
HETATM   19  O6  UNL     1      -5.971  39.011   1.348  1.00  0.00    -0.245 OA
HETATM   20  N10 UNL     1      -6.939  37.211   0.432  1.00  0.00    -0.077 N
ENDROOT
BRANCH   1  21
HETATM   21  N3  UNL     1      -4.955  31.873  -0.930  1.00  0.00    -0.193 N
HETATM   22  N2  UNL     1      -3.716  32.099  -1.395  1.00  0.00    -0.232 N
HETATM   23  N1  UNL     1      -3.092  30.938  -1.403  1.00  0.00    -0.283 N
ATOM     24  H2  UNL     1      -3.331  32.998  -1.686  1.00  0.00     0.209 HD
HETATM   25  C6  UNL     1      -3.911  29.973  -0.952  1.00  0.00     0.111 A
ATOM     26  H1  UNL     1      -2.128  30.793  -1.707  1.00  0.00     0.188 HD
HETATM   27  C15 UNL     1      -5.123  30.571  -0.644  1.00  0.00     0.192 A
BRANCH  25  28
HETATM   28  C5  UNL     1      -3.614  28.509  -0.822  1.00  0.00     0.205 C
BRANCH  28  29
HETATM   29  C2  UNL     1      -4.164  27.729  -2.011  1.00  0.00     0.186 C
BRANCH  29  30
HETATM   30  O1  UNL     1      -4.341  28.559  -3.108  1.00  0.00    -0.385 OA
HETATM   31  C1  UNL     1      -3.689  28.163  -4.251  1.00  0.00     0.202 C
ENDBRANCH  29  30
BRANCH  29  32
HETATM   32  C3  UNL     1      -5.427  26.992  -1.650  1.00  0.00     0.173 C
BRANCH  32  33
HETATM   33  O2  UNL     1      -6.595  27.707  -1.907  1.00  0.00    -0.391 OA
ATOM     34  H2  UNL     1      -7.388  27.268  -1.625  1.00  0.00     0.210 HD
ENDBRANCH  32  33
BRANCH  32  35
HETATM   35  C4  UNL     1      -5.453  25.618  -2.230  1.00  0.00     0.198 C
BRANCH  35  36
HETATM   36  O3  UNL     1      -6.715  25.218  -2.634  1.00  0.00    -0.398 OA
ATOM     37  H3  UNL     1      -6.830  25.228  -3.578  1.00  0.00     0.209 HD
ENDBRANCH  35  36
ENDBRANCH  32  35
ENDBRANCH  29  32
ENDBRANCH  28  29
BRANCH  28  38
HETATM   38  O4  UNL     1      -4.425  28.077   0.272  1.00  0.00    -0.387 OA
ATOM     39  H4  UNL     1      -4.509  28.855   0.811  1.00  0.00     0.210 HD
ENDBRANCH  28  38
ENDBRANCH  25  28
BRANCH  27  40
HETATM   40  O7  UNL     1      -6.287  30.002  -0.145  1.00  0.00    -0.343 OA
ATOM     41  H7  UNL     1      -7.157  30.375  -0.068  1.00  0.00     0.219 HD
ENDBRANCH  27  40
ENDBRANCH   1  21
BRANCH   1  42
HETATM   42  O5  UNL     1      -7.200  32.814  -1.219  1.00  0.00    -0.343 OA
ATOM     43  H5  UNL     1      -7.763  32.136  -0.866  1.00  0.00     0.219 HD
ENDBRANCH   1  42
BRANCH  15  44
HETATM   44  N8  UNL     1     -10.360  39.229   0.174  1.00  0.00    -0.234 N
ATOM     45  H82 UNL     1     -11.011  39.028  -0.586  1.00  0.00     0.174 HD
ATOM     46  H81 UNL     1     -10.585  39.959   0.850  1.00  0.00     0.174 HD
ENDBRANCH  15  44
TORSDOF 12
ENDMDL