MODEL 4
REMARK VINA RESULT: -5.777865690      4.168      7.328
REMARK  14 active torsions:
REMARK  status: ('A' for Active; 'I' for Inactive)
REMARK    1  A    between atoms: N1_1  and  C1_5
REMARK    2  A    between atoms: C1_5  and  C2_6
REMARK    3  A    between atoms: C4_11  and  N3_12
REMARK    4  A    between atoms: N3_12  and  N4_14
REMARK    5  A    between atoms: N6_19  and  N7_21
REMARK    6  A    between atoms: C6_24  and  C7_25
REMARK    7  A    between atoms: C9_28  and  O3_29
REMARK    8  A    between atoms: C11_33  and  O5_34
REMARK    9  A    between atoms: C12_36  and  O6_37
REMARK   10  A    between atoms: O6_37  and  C13_38
REMARK   11  A    between atoms: C13_38  and  C14_39
REMARK   12  A    between atoms: C14_39  and  O7_40
REMARK   13  A    between atoms: C14_39  and  C15_42
REMARK   14  A    between atoms: C15_42  and  O8_43
ROOT
HETATM    1  C2  UNL     1      -3.819  27.742   3.133  1.00  0.00     0.088 A
HETATM    2  C3  UNL     1      -3.983  26.438   3.517  1.00  0.00     0.272 A
HETATM    3  O1  UNL     1      -3.882  26.117   4.755  1.00  0.00    -0.267 OA
HETATM    4  N2  UNL     1      -4.249  25.406   2.709  1.00  0.00    -0.153 N
ATOM      5  H2  UNL     1      -4.361  24.452   3.052  1.00  0.00     0.187 HD
HETATM    6  C4  UNL     1      -4.358  25.730   1.403  1.00  0.00     0.709 A
HETATM    7  N5  UNL     1      -4.212  26.984   0.951  1.00  0.00    -0.106 N
HETATM    8  C5  UNL     1      -4.376  27.184  -0.410  1.00  0.00     0.163 A
HETATM    9  N6  UNL     1      -4.456  26.188  -1.136  1.00  0.00    -0.290 N
ATOM     10  H6  UNL     1      -4.387  25.378  -0.520  1.00  0.00     0.188 HD
HETATM   11  C6  UNL     1      -4.256  28.510  -0.832  1.00  0.00     0.106 A
HETATM   12  C12 UNL     1      -3.967  29.574   0.013  1.00  0.00     0.204 A
HETATM   13  O9  UNL     1      -3.823  29.239   1.314  1.00  0.00    -0.268 OA
HETATM   14  C16 UNL     1      -3.944  28.020   1.761  1.00  0.00     0.188 A
ENDROOT
BRANCH  11  15
HETATM   15  C7  UNL     1      -4.736  28.802  -2.200  1.00  0.00     0.131 A
HETATM   16  O2  UNL     1      -4.055  28.619  -3.267  1.00  0.00    -0.316 OA
HETATM   17  C8  UNL     1      -4.561  28.883  -4.451  1.00  0.00     0.183 A
HETATM   18  C9  UNL     1      -5.844  29.373  -4.652  1.00  0.00     0.141 A
HETATM   19  C10 UNL     1      -6.616  29.601  -3.525  1.00  0.00     0.242 A
HETATM   20  O4  UNL     1      -7.783  30.056  -3.638  1.00  0.00    -0.282 OA
HETATM   21  C11 UNL     1      -6.050  29.312  -2.303  1.00  0.00     0.154 A
BRANCH  18  22
HETATM   22  O3  UNL     1      -6.358  29.617  -5.915  1.00  0.00    -0.355 OA
ATOM     23  H3  UNL     1      -7.206  29.291  -6.192  1.00  0.00     0.218 HD
ENDBRANCH  18  22
BRANCH  21  24
HETATM   24  O5  UNL     1      -6.836  29.552  -1.174  1.00  0.00    -0.355 OA
ATOM     25  H5  UNL     1      -7.141  28.846  -0.616  1.00  0.00     0.218 HD
ENDBRANCH  21  24
ENDBRANCH  11  15
BRANCH  12  26
HETATM   26  O6  UNL     1      -3.845  30.805  -0.432  1.00  0.00    -0.327 OA
BRANCH  26  27
HETATM   27  C13 UNL     1      -4.028  32.095  -0.510  1.00  0.00     0.211 C
BRANCH  27  28
HETATM   28  C14 UNL     1      -4.607  32.730  -1.782  1.00  0.00     0.166 C
BRANCH  28  29
HETATM   29  O7  UNL     1      -4.080  34.050  -1.840  1.00  0.00    -0.391 OA
ATOM     30  H7  UNL     1      -4.818  34.635  -1.712  1.00  0.00     0.210 HD
ENDBRANCH  28  29
BRANCH  28  31
HETATM   31  C15 UNL     1      -6.114  33.011  -1.507  1.00  0.00     0.198 C
BRANCH  31  32
HETATM   32  O8  UNL     1      -6.524  32.279  -0.392  1.00  0.00    -0.398 OA
ATOM     33  H8  UNL     1      -6.704  32.876   0.325  1.00  0.00     0.209 HD
ENDBRANCH  31  32
ENDBRANCH  28  31
ENDBRANCH  27  28
ENDBRANCH  26  27
ENDBRANCH  12  26
BRANCH   9  34
HETATM   34  N7  UNL     1      -4.593  25.710  -2.369  1.00  0.00    -0.344 N
ATOM     35  H72 UNL     1      -5.561  25.391  -2.411  1.00  0.00     0.176 HD
ATOM     36  H71 UNL     1      -4.157  25.528  -3.272  1.00  0.00     0.176 HD
ENDBRANCH   9  34
BRANCH   6  37
HETATM   37  N3  UNL     1      -4.636  24.772   0.553  1.00  0.00    -0.138 N
ATOM     38  H3  UNL     1      -4.970  25.012  -0.381  1.00  0.00     0.205 HD
BRANCH  37  39
HETATM   39  N4  UNL     1      -4.483  23.445   0.899  1.00  0.00    -0.331 N
ATOM     40  H42 UNL     1      -5.305  22.924   1.202  1.00  0.00     0.177 HD
ATOM     41  H41 UNL     1      -3.570  22.991   0.854  1.00  0.00     0.177 HD
ENDBRANCH  37  39
ENDBRANCH   6  37
BRANCH   1  42
HETATM   42  C1  UNL     1      -3.678  28.759   4.172  1.00  0.00     0.278 C
BRANCH  42  43
HETATM   43  N1  UNL     1      -4.769  29.750   4.188  1.00  0.00    -0.075 N
ATOM     44  H13 UNL     1      -4.460  30.632   3.778  1.00  0.00     0.274 HD
ATOM     45  H12 UNL     1      -5.495  29.495   3.519  1.00  0.00     0.274 HD
ATOM     46  H11 UNL     1      -5.172  29.905   5.113  1.00  0.00     0.274 HD
ENDBRANCH  42  43
ENDBRANCH   1  42
TORSDOF 14
ENDMDL