MODEL 1
REMARK VINA RESULT: -6.510578699      0.000      0.000
REMARK  11 active torsions:
REMARK  status: ('A' for Active; 'I' for Inactive)
REMARK    1  A    between atoms: C2_2  and  C4_4
REMARK    2  A    between atoms: C2_2  and  C5_8
REMARK    3  A    between atoms: C5_8  and  O2_10
REMARK    4  A    between atoms: O2_10  and  C6_11
REMARK    5  A    between atoms: C6_11  and  O3_12
REMARK    6  A    between atoms: C8_17  and  C9_18
REMARK    7  A    between atoms: C8_17  and  C10_21
REMARK    8  A    between atoms: C11_25  and  C12_26
REMARK    9  A    between atoms: C13_29  and  O13_30
REMARK   10  A    between atoms: C14_32  and  N2_33
REMARK   11  A    between atoms: C15_37  and  O14_38
ROOT
HETATM    1  C6  UNL     1      -5.729  28.165  -5.637  1.00  0.00     0.319 C
HETATM    2  O4  UNL     1      -5.353  27.333  -4.561  1.00  0.00    -0.288 OA
HETATM    3  C7  UNL     1      -4.440  26.419  -5.000  1.00  0.00     0.233 C
HETATM    4  O5  UNL     1      -3.199  26.744  -4.545  1.00  0.00    -0.295 OA
HETATM    5  C8  UNL     1      -2.797  26.249  -3.352  1.00  0.00     0.351 C
HETATM    6  O10 UNL     1      -3.405  25.201  -2.795  1.00  0.00    -0.319 OA
HETATM    7  C11 UNL     1      -4.618  24.767  -3.159  1.00  0.00     0.261 C
HETATM    8  C13 UNL     1      -4.906  25.041  -4.616  1.00  0.00     0.222 C
HETATM    9  C14 UNL     1      -4.418  26.478  -6.510  1.00  0.00     0.284 C
HETATM   10  C15 UNL     1      -4.759  27.958  -6.723  1.00  0.00     0.247 C
ENDROOT
BRANCH   8  11
HETATM   11  O13 UNL     1      -6.283  24.923  -4.795  1.00  0.00    -0.387 OA
ATOM     12  H13 UNL     1      -6.600  24.110  -4.418  1.00  0.00     0.210 HD
ENDBRANCH   8  11
BRANCH   9  13
HETATM   13  N2  UNL     1      -3.181  26.105  -7.106  1.00  0.00    -0.067 N
ATOM     14  H23 UNL     1      -2.464  25.990  -6.389  1.00  0.00     0.275 HD
ATOM     15  H22 UNL     1      -3.233  25.149  -7.458  1.00  0.00     0.275 HD
ATOM     16  H21 UNL     1      -2.850  26.733  -7.837  1.00  0.00     0.275 HD
ENDBRANCH   9  13
BRANCH   1  17
HETATM   17  O2  UNL     1      -5.834  29.426  -5.089  1.00  0.00    -0.255 OA
BRANCH  17  18
HETATM   18  C5  UNL     1      -6.764  29.720  -4.121  1.00  0.00     0.276 C
HETATM   19  O1  UNL     1      -7.951  29.625  -4.467  1.00  0.00    -0.264 OA
BRANCH  18  20
HETATM   20  C2  UNL     1      -6.438  30.130  -2.739  1.00  0.00     0.072 C
HETATM   21  C1  UNL     1      -7.636  30.817  -2.134  1.00  0.00     0.031 C
HETATM   22  C3  UNL     1      -6.160  28.907  -1.854  1.00  0.00     0.031 C
BRANCH  20  23
HETATM   23  C4  UNL     1      -5.293  31.052  -2.687  1.00  0.00     0.072 C
HETATM   24  N1  UNL     1      -4.326  30.803  -1.892  1.00  0.00    -0.410 N
ATOM     25  H12 UNL     1      -4.362  29.969  -1.306  1.00  0.00     0.155 HD
ATOM     26  H11 UNL     1      -3.532  31.442  -1.857  1.00  0.00     0.155 HD
ENDBRANCH  20  23
ENDBRANCH  18  20
ENDBRANCH  17  18
ENDBRANCH   1  17
BRANCH   1  27
HETATM   27  O3  UNL     1      -6.978  27.637  -6.042  1.00  0.00    -0.341 OA
ATOM     28  H3  UNL     1      -7.702  27.961  -5.520  1.00  0.00     0.215 HD
ENDBRANCH   1  27
BRANCH   5  29
HETATM   29  C9  UNL     1      -1.337  25.875  -3.512  1.00  0.00     0.251 C
HETATM   30  O6  UNL     1      -0.618  25.517  -2.566  1.00  0.00    -0.643 OA
HETATM   31  O7  UNL     1      -0.769  25.935  -4.778  1.00  0.00    -0.643 OA
ENDBRANCH   5  29
BRANCH   5  32
HETATM   32  C10 UNL     1      -2.778  27.377  -2.382  1.00  0.00     0.251 C
HETATM   33  O8  UNL     1      -2.692  28.540  -2.839  1.00  0.00    -0.643 OA
HETATM   34  O9  UNL     1      -2.848  27.211  -1.012  1.00  0.00    -0.643 OA
ENDBRANCH   5  32
BRANCH   7  35
HETATM   35  C12 UNL     1      -5.740  25.203  -2.281  1.00  0.00     0.206 C
HETATM   36  O11 UNL     1      -6.945  25.212  -2.639  1.00  0.00    -0.646 OA
HETATM   37  O12 UNL     1      -5.501  25.633  -0.982  1.00  0.00    -0.646 OA
ENDBRANCH   7  35
BRANCH  10  38
HETATM   38  O14 UNL     1      -5.311  27.972  -8.026  1.00  0.00    -0.385 OA
ATOM     39  H14 UNL     1      -4.730  27.661  -8.710  1.00  0.00     0.210 HD
ENDBRANCH  10  38
TORSDOF 11
ENDMDL