MODEL 4
REMARK VINA RESULT: -8.718817030      2.326      3.840
REMARK  9 active torsions:
REMARK  status: ('A' for Active; 'I' for Inactive)
REMARK    1  A    between atoms: C1_4  and  O1_6
REMARK    2  A    between atoms: O1_6  and  N3_7
REMARK    3  A    between atoms: C2_9  and  C3_10
REMARK    4  A    between atoms: C2_9  and  C9_26
REMARK    5  A    between atoms: C3_10  and  C4_11
REMARK    6  A    between atoms: C4_11  and  C5_13
REMARK    7  A    between atoms: C6_16  and  N5_17
REMARK    8  A    between atoms: C10_31  and  N10_32
REMARK    9  A    between atoms: N10_32  and  C11_34
ROOT
HETATM    1  N3  UNL     1      -7.215  33.514   2.550  1.00  0.00    -0.257 N
ATOM      2  H3  UNL     1      -7.823  34.282   2.837  1.00  0.00     0.194 HD
HETATM    3  C2  UNL     1      -6.225  33.843   1.845  1.00  0.00     0.092 C
ENDROOT
BRANCH   3   4
HETATM    4  C3  UNL     1      -6.003  35.254   1.487  1.00  0.00     0.149 C
BRANCH   4   5
HETATM    5  C4  UNL     1      -6.904  35.729   0.412  1.00  0.00     0.184 C
HETATM    6  O2  UNL     1      -7.173  34.966  -0.560  1.00  0.00    -0.290 OA
BRANCH   5   7
HETATM    7  C5  UNL     1      -7.460  37.067   0.496  1.00  0.00     0.125 A
HETATM    8  N4  UNL     1      -6.676  38.110   0.794  1.00  0.00    -0.186 N
HETATM    9  C6  UNL     1      -7.171  39.359   0.879  1.00  0.00     0.679 A
ATOM     10  H4  UNL     1      -5.681  37.955   0.960  1.00  0.00     0.184 HD
HETATM   11  N6  UNL     1      -8.468  39.618   0.670  1.00  0.00    -0.155 N
HETATM   12  C7  UNL     1      -9.291  38.601   0.369  1.00  0.00     0.286 A
ATOM     13  H6  UNL     1      -8.824  40.571   0.740  1.00  0.00     0.187 HD
HETATM   14  O3  UNL     1     -10.508  38.856   0.176  1.00  0.00    -0.266 OA
HETATM   15  C8  UNL     1      -8.796  37.313   0.279  1.00  0.00     0.145 A
HETATM   16  N7  UNL     1      -9.662  36.233  -0.040  1.00  0.00    -0.094 NA
BRANCH   9  17
HETATM   17  N5  UNL     1      -6.379  40.327   1.167  1.00  0.00    -0.234 N
ATOM     18  H52 UNL     1      -6.726  41.285   1.116  1.00  0.00     0.174 HD
ATOM     19  H51 UNL     1      -5.419  40.118   1.442  1.00  0.00     0.174 HD
ENDBRANCH   9  17
ENDBRANCH   5   7
ENDBRANCH   4   5
ENDBRANCH   3   4
BRANCH   3  20
HETATM   20  C9  UNL     1      -5.288  32.845   1.365  1.00  0.00     0.191 A
HETATM   21  N8  UNL     1      -4.366  32.136   2.059  1.00  0.00    -0.275 N
HETATM   22  N9  UNL     1      -3.709  31.326   1.251  1.00  0.00    -0.262 N
ATOM     23  H8  UNL     1      -4.202  32.217   3.063  1.00  0.00     0.189 HD
HETATM   24  C10 UNL     1      -4.205  31.508   0.032  1.00  0.00     0.259 A
ATOM     25  H9  UNL     1      -2.962  30.681   1.512  1.00  0.00     0.190 HD
HETATM   26  O5  UNL     1      -5.141  32.412   0.114  1.00  0.00    -0.257 OA
BRANCH  24  27
HETATM   27  N10 UNL     1      -3.839  30.874  -1.197  1.00  0.00    -0.153 N
ATOM     28  H10 UNL     1      -2.862  30.691  -1.423  1.00  0.00     0.188 HD
BRANCH  27  29
HETATM   29  C11 UNL     1      -4.878  30.509  -2.094  1.00  0.00     0.692 A
HETATM   30  N11 UNL     1      -4.576  29.940  -3.275  1.00  0.00    -0.163 N
HETATM   31  C12 UNL     1      -5.483  29.564  -4.183  1.00  0.00     0.210 A
ATOM     32  H11 UNL     1      -3.591  29.786  -3.492  1.00  0.00     0.187 HD
HETATM   33  N12 UNL     1      -5.136  28.971  -5.411  1.00  0.00    -0.062 NA
HETATM   34  N13 UNL     1      -6.793  29.780  -3.870  1.00  0.00    -0.282 N
HETATM   35  C13 UNL     1      -7.116  30.348  -2.693  1.00  0.00     0.341 A
ATOM     36  H13 UNL     1      -7.525  29.513  -4.526  1.00  0.00     0.173 HD
HETATM   37  O4  UNL     1      -8.346  30.519  -2.465  1.00  0.00    -0.246 OA
HETATM   38  N14 UNL     1      -6.159  30.709  -1.814  1.00  0.00    -0.141 N
ATOM     39  H14 UNL     1      -6.422  31.139  -0.927  1.00  0.00     0.189 HD
ENDBRANCH  27  29
ENDBRANCH  24  27
ENDBRANCH   3  20
BRANCH   1  40
HETATM   40  O1  UNL     1      -7.586  32.291   2.980  1.00  0.00    -0.204 OA
BRANCH  40  41
HETATM   41  C1  UNL     1      -7.958  32.004   4.297  1.00  0.00     0.249 C
HETATM   42  N1  UNL     1      -9.192  31.656   4.463  1.00  0.00    -0.366 N
ATOM     43  H12 UNL     1      -9.463  31.447   5.424  1.00  0.00     0.159 HD
ATOM     44  H11 UNL     1      -9.884  31.584   3.718  1.00  0.00     0.159 HD
HETATM   45  N2  UNL     1      -7.005  32.104   5.323  1.00  0.00    -0.055 NA
ENDBRANCH  40  41
ENDBRANCH   1  40
TORSDOF 9
ENDMDL