MODEL 4
REMARK VINA RESULT: -7.882606168      2.336      3.039
REMARK  11 active torsions:
REMARK  status: ('A' for Active; 'I' for Inactive)
REMARK    1  A    between atoms: C2_2  and  C3_3
REMARK       I    between atoms: C3_3  and  N1_5
REMARK    2  A    between atoms: N1_5  and  S1_7
REMARK    3  A    between atoms: S1_7  and  C4_10
REMARK    4  A    between atoms: C4_10  and  C5_11
REMARK    5  A    between atoms: C6_14  and  N3_15
REMARK    6  A    between atoms: C9_22  and  O4_23
REMARK    7  A    between atoms: C10_28  and  N6_29
REMARK    8  A    between atoms: N6_29  and  C11_31
REMARK    9  A    between atoms: C12_36  and  O5_37
REMARK   10  A    between atoms: O5_37  and  O6_38
REMARK   11  A    between atoms: C13_40  and  N9_41
ROOT
HETATM    1  C5  UNL     1      -5.232  31.078  -1.988  1.00  0.00     0.099 A
HETATM    2  N2  UNL     1      -5.547  30.532  -0.813  1.00  0.00    -0.330 N
ATOM      3  H2  UNL     1      -6.043  29.641  -0.787  1.00  0.00     0.168 HD
HETATM    4  C6  UNL     1      -5.218  31.143   0.340  1.00  0.00     0.129 A
HETATM    5  C7  UNL     1      -4.554  32.340   0.340  1.00  0.00     0.102 A
HETATM    6  C8  UNL     1      -4.228  32.903  -0.900  1.00  0.00     0.097 A
HETATM    7  N4  UNL     1      -4.578  32.254  -1.997  1.00  0.00    -0.343 N
ATOM      8  H4  UNL     1      -4.341  32.667  -2.899  1.00  0.00     0.167 HD
HETATM    9  C9  UNL     1      -3.513  34.200  -0.860  1.00  0.00     0.376 C
HETATM   10  N5  UNL     1      -4.155  35.031   0.123  1.00  0.00    -0.004 N
ATOM     11  H51 UNL     1      -5.117  35.226  -0.153  1.00  0.00     0.285 HD
ATOM     12  H52 UNL     1      -3.769  35.975   0.095  1.00  0.00     0.285 HD
HETATM   13  C10 UNL     1      -4.115  34.517   1.459  1.00  0.00     0.407 C
HETATM   14  N11 UNL     1      -4.175  33.050   1.511  1.00  0.00    -0.341 N
ATOM     15  H11 UNL     1      -3.950  32.551   2.371  1.00  0.00     0.163 HD
ENDROOT
BRANCH  13  16
HETATM   16  N6  UNL     1      -5.281  35.072   2.135  1.00  0.00    -0.178 N
ATOM     17  H6  UNL     1      -5.319  35.075   3.153  1.00  0.00     0.181 HD
BRANCH  16  18
HETATM   18  C11 UNL     1      -6.244  35.548   1.471  1.00  0.00     0.697 A
HETATM   19  N7  UNL     1      -7.188  34.779   0.946  1.00  0.00    -0.130 N
HETATM   20  N8  UNL     1      -8.211  35.285   0.261  1.00  0.00    -0.260 N
ATOM     21  H7  UNL     1      -7.128  33.768   1.070  1.00  0.00     0.205 HD
HETATM   22  C12 UNL     1      -8.321  36.605   0.077  1.00  0.00     0.237 A
ATOM     23  H8  UNL     1      -8.917  34.660  -0.128  1.00  0.00     0.190 HD
HETATM   24  C13 UNL     1      -7.352  37.441   0.613  1.00  0.00     0.170 A
HETATM   25  N10 UNL     1      -6.335  36.895   1.298  1.00  0.00    -0.171 N
ATOM     26  H10 UNL     1      -5.617  37.500   1.696  1.00  0.00     0.186 HD
BRANCH  22  27
HETATM   27  O5  UNL     1      -9.375  37.139  -0.630  1.00  0.00    -0.176 OA
BRANCH  27  28
HETATM   28  O6  UNL     1     -10.370  37.791   0.025  1.00  0.00    -0.243 OA
ATOM     29  H6  UNL     1     -11.001  38.307  -0.464  1.00  0.00     0.254 HD
ENDBRANCH  27  28
ENDBRANCH  22  27
BRANCH  24  30
HETATM   30  N9  UNL     1      -7.484  38.697   0.420  1.00  0.00    -0.381 N
ATOM     31  H92 UNL     1      -8.320  39.125   0.022  1.00  0.00     0.157 HD
ATOM     32  H91 UNL     1      -6.703  39.299   0.683  1.00  0.00     0.157 HD
ENDBRANCH  24  30
ENDBRANCH  16  18
ENDBRANCH  13  16
BRANCH   9  33
HETATM   33  O4  UNL     1      -3.623  34.880  -2.082  1.00  0.00    -0.365 OA
ATOM     34  H4  UNL     1      -2.925  35.516  -2.187  1.00  0.00     0.212 HD
ENDBRANCH   9  33
BRANCH   4  35
HETATM   35  N3  UNL     1      -5.507  30.648   1.513  1.00  0.00    -0.384 N
ATOM     36  H32 UNL     1      -6.474  30.355   1.650  1.00  0.00     0.157 HD
ATOM     37  H31 UNL     1      -4.817  30.550   2.258  1.00  0.00     0.157 HD
ENDBRANCH   4  35
BRANCH   1  38
HETATM   38  C4  UNL     1      -5.574  30.444  -3.276  1.00  0.00     0.239 C
BRANCH  38  39
HETATM   39  S1  UNL     1      -4.981  28.754  -3.190  1.00  0.00     0.239 S
HETATM   40  O2  UNL     1      -6.070  27.944  -2.513  1.00  0.00    -0.205 OA
HETATM   41  O3  UNL     1      -3.806  28.768  -2.257  1.00  0.00    -0.205 OA
BRANCH  39  42
HETATM   42  N1  UNL     1      -4.606  28.132  -4.727  1.00  0.00    -0.254 N
HETATM   43  C3  UNL     1      -5.549  28.146  -5.770  1.00  0.00     0.230 C
HETATM   44  O1  UNL     1      -6.714  28.619  -5.615  1.00  0.00    -0.273 OA
ATOM     45  H1  UNL     1      -3.680  27.740  -4.896  1.00  0.00     0.181 HD
BRANCH  43  46
HETATM   46  C2  UNL     1      -5.190  27.597  -7.088  1.00  0.00     0.099 C
HETATM   47  C1  UNL     1      -4.092  26.589  -6.973  1.00  0.00     0.014 C
ENDBRANCH  43  46
ENDBRANCH  39  42
ENDBRANCH  38  39
ENDBRANCH   1  38
TORSDOF 11
ENDMDL