MODEL 3
REMARK VINA RESULT: -5.403588692      3.756      6.496
REMARK  15 active torsions:
REMARK  status: ('A' for Active; 'I' for Inactive)
REMARK    1  A    between atoms: C2_2  and  C3_3
REMARK    2  A    between atoms: C3_3  and  O2_5
REMARK    3  A    between atoms: O2_5  and  C4_6
REMARK    4  A    between atoms: C5_7  and  N1_8
REMARK       I    between atoms: N1_8  and  C6_10
REMARK    5  A    between atoms: C9_14  and  O4_15
REMARK    6  A    between atoms: C13_23  and  O6_24
REMARK    7  A    between atoms: C13_23  and  C14_26
REMARK    8  A    between atoms: C14_26  and  O7_27
REMARK    9  A    between atoms: C14_26  and  C15_29
REMARK   10  A    between atoms: C15_29  and  O8_30
REMARK   11  A    between atoms: C16_32  and  O9_33
REMARK   12  A    between atoms: C16_32  and  O10_35
REMARK   13  A    between atoms: O10_35  and  N3_36
REMARK   14  A    between atoms: N3_36  and  N4_37
REMARK   15  A    between atoms: N3_36  and  N5_40
ROOT
HETATM    1  C4  UNL     1      -5.075  27.046  -2.817  1.00  0.00     0.229 C
HETATM    2  C5  UNL     1      -4.000  26.723  -3.824  1.00  0.00     0.158 C
HETATM    3  C8  UNL     1      -2.653  27.040  -3.409  1.00  0.00     0.037 A
HETATM    4  C9  UNL     1      -1.717  26.102  -3.727  1.00  0.00     0.092 A
HETATM    5  C10 UNL     1      -0.385  26.383  -3.342  1.00  0.00     0.124 A
HETATM    6  N2  UNL     1      -0.042  27.501  -2.699  1.00  0.00    -0.370 N
ATOM      7  H2  UNL     1       0.935  27.649  -2.445  1.00  0.00     0.164 HD
HETATM    8  C11 UNL     1      -0.944  28.429  -2.380  1.00  0.00     0.125 A
HETATM    9  C12 UNL     1      -2.264  28.196  -2.739  1.00  0.00     0.099 A
HETATM   10  O5  UNL     1      -3.081  29.225  -2.352  1.00  0.00    -0.304 OA
HETATM   11  C13 UNL     1      -4.408  29.364  -1.978  1.00  0.00     0.258 C
HETATM   12  C16 UNL     1      -5.403  28.443  -2.550  1.00  0.00     0.274 C
ENDROOT
BRANCH  12  13
HETATM   13  O9  UNL     1      -6.440  28.384  -1.565  1.00  0.00    -0.358 OA
ATOM     14  H9  UNL     1      -6.551  29.285  -1.283  1.00  0.00     0.213 HD
ENDBRANCH  12  13
BRANCH  12  15
HETATM   15  O10 UNL     1      -6.058  29.010  -3.646  1.00  0.00    -0.217 OA
BRANCH  15  16
HETATM   16  N3  UNL     1      -7.361  29.199  -3.491  1.00  0.00    -0.012 NA
BRANCH  16  17
HETATM   17  N4  UNL     1      -7.931  29.182  -4.795  1.00  0.00    -0.322 NA
ATOM     18  H42 UNL     1      -8.594  29.958  -4.794  1.00  0.00     0.175 HD
ATOM     19  H41 UNL     1      -7.160  29.305  -5.451  1.00  0.00     0.175 HD
ENDBRANCH  16  17
BRANCH  16  20
HETATM   20  N5  UNL     1      -7.687  30.460  -2.982  1.00  0.00    -0.322 NA
ATOM     21  H52 UNL     1      -6.822  30.995  -3.052  1.00  0.00     0.175 HD
ATOM     22  H51 UNL     1      -7.943  30.447  -1.994  1.00  0.00     0.175 HD
ENDBRANCH  16  20
ENDBRANCH  15  16
ENDBRANCH  12  15
BRANCH   1  23
HETATM   23  O2  UNL     1      -4.841  26.258  -1.664  1.00  0.00    -0.308 OA
BRANCH  23  24
HETATM   24  C3  UNL     1      -4.659  24.872  -1.702  1.00  0.00     0.259 C
HETATM   25  O1  UNL     1      -5.502  24.245  -2.402  1.00  0.00    -0.265 OA
BRANCH  24  26
HETATM   26  C2  UNL     1      -3.592  24.167  -1.001  1.00  0.00     0.106 C
HETATM   27  C1  UNL     1      -2.762  25.161  -0.235  1.00  0.00     0.015 C
ENDBRANCH  24  26
ENDBRANCH  23  24
ENDBRANCH   1  23
BRANCH  11  28
HETATM   28  O6  UNL     1      -4.752  30.658  -2.510  1.00  0.00    -0.359 OA
ATOM     29  H6  UNL     1      -5.554  30.867  -2.047  1.00  0.00     0.213 HD
ENDBRANCH  11  28
BRANCH  11  30
HETATM   30  C14 UNL     1      -4.583  29.592  -0.486  1.00  0.00     0.210 C
BRANCH  30  31
HETATM   31  O7  UNL     1      -3.488  29.313   0.275  1.00  0.00    -0.388 OA
ATOM     32  H7  UNL     1      -3.057  30.070   0.654  1.00  0.00     0.210 HD
ENDBRANCH  30  31
BRANCH  30  33
HETATM   33  C15 UNL     1      -5.011  31.017  -0.270  1.00  0.00     0.201 C
BRANCH  33  34
HETATM   34  O8  UNL     1      -6.395  31.072  -0.254  1.00  0.00    -0.398 OA
ATOM     35  H8  UNL     1      -6.695  31.487  -1.053  1.00  0.00     0.209 HD
ENDBRANCH  33  34
ENDBRANCH  30  33
ENDBRANCH  11  30
BRANCH   2  36
HETATM   36  N1  UNL     1      -4.248  27.372  -5.097  1.00  0.00    -0.350 N
HETATM   37  C6  UNL     1      -4.956  26.806  -6.181  1.00  0.00     0.214 C
HETATM   38  C7  UNL     1      -5.153  27.564  -7.460  1.00  0.00     0.117 C
HETATM   39  O3  UNL     1      -5.462  25.658  -6.162  1.00  0.00    -0.274 OA
ATOM     40  H1  UNL     1      -3.881  28.316  -5.220  1.00  0.00     0.163 HD
ENDBRANCH   2  36
BRANCH   4  41
HETATM   41  O4  UNL     1      -2.004  24.948  -4.378  1.00  0.00    -0.359 OA
ATOM     42  H4  UNL     1      -2.477  24.226  -3.981  1.00  0.00     0.217 HD
ENDBRANCH   4  41
TORSDOF 15
ENDMDL