MODEL 1
REMARK VINA RESULT: -7.858464966      0.000      0.000
REMARK  9 active torsions:
REMARK  status: ('A' for Active; 'I' for Inactive)
REMARK    1  A    between atoms: N1_1  and  C1_4
REMARK    2  A    between atoms: C4_14  and  N5_15
REMARK    3  A    between atoms: N7_20  and  O1_22
REMARK    4  A    between atoms: N10_29  and  C9_30
REMARK    5  A    between atoms: N11_32  and  C11_33
REMARK    6  A    between atoms: C11_33  and  C12_34
REMARK    7  A    between atoms: C12_34  and  C13_35
REMARK    8  A    between atoms: C13_35  and  N12_36
REMARK    9  A    between atoms: C13_35  and  C14_40
ROOT
HETATM    1  C1  UNL     1      -8.738  38.261   0.243  1.00  0.00     0.679 A
HETATM    2  N2  UNL     1      -8.152  39.418   0.667  1.00  0.00    -0.175 N
ATOM      3  H2  UNL     1      -8.736  40.251   0.744  1.00  0.00     0.186 HD
HETATM    4  C2  UNL     1      -6.869  39.528   0.985  1.00  0.00     0.146 A
HETATM    5  N3  UNL     1      -6.348  40.646   1.387  1.00  0.00    -0.383 N
ATOM      6  H31 UNL     1      -5.361  40.731   1.632  1.00  0.00     0.157 HD
ATOM      7  H32 UNL     1      -6.941  41.472   1.459  1.00  0.00     0.157 HD
HETATM    8  C3  UNL     1      -6.065  38.410   0.887  1.00  0.00     0.139 A
HETATM    9  N4  UNL     1      -4.794  38.135   1.109  1.00  0.00    -0.182 N
ATOM     10  H4  UNL     1      -4.103  38.810   1.436  1.00  0.00     0.184 HD
HETATM   11  C4  UNL     1      -4.531  36.824   0.843  1.00  0.00     0.716 A
HETATM   12  N10 UNL     1      -5.690  36.280   0.442  1.00  0.00    -0.110 N
HETATM   13  C15 UNL     1      -6.678  37.226   0.452  1.00  0.00     0.177 A
HETATM   14  N15 UNL     1      -7.977  37.163   0.141  1.00  0.00    -0.173 N
ATOM     15  H15 UNL     1      -8.386  36.283  -0.175  1.00  0.00     0.186 HD
ENDROOT
BRANCH  12  16
HETATM   16  C9  UNL     1      -5.924  34.921   0.047  1.00  0.00     0.163 A
HETATM   17  C10 UNL     1      -5.573  34.351  -1.154  1.00  0.00     0.162 A
HETATM   18  N11 UNL     1      -5.940  33.037  -1.166  1.00  0.00    -0.285 N
HETATM   19  N13 UNL     1      -6.497  32.838   0.004  1.00  0.00    -0.239 N
HETATM   20  N14 UNL     1      -6.501  33.928   0.736  1.00  0.00    -0.269 N
ATOM     21  H13 UNL     1      -6.880  31.944   0.309  1.00  0.00     0.208 HD
ATOM     22  H14 UNL     1      -6.882  34.005   1.679  1.00  0.00     0.190 HD
BRANCH  18  23
HETATM   23  C11 UNL     1      -5.717  32.122  -2.279  1.00  0.00     0.152 C
BRANCH  23  24
HETATM   24  C12 UNL     1      -6.766  31.066  -2.342  1.00  0.00     0.066 C
BRANCH  24  25
HETATM   25  C13 UNL     1      -6.481  29.899  -3.236  1.00  0.00     0.285 C
BRANCH  25  26
HETATM   26  N12 UNL     1      -5.081  30.046  -3.663  1.00  0.00    -0.065 N
ATOM     27 3H12 UNL     1      -4.937  29.860  -4.656  1.00  0.00     0.275 HD
ATOM     28 2H12 UNL     1      -4.758  31.013  -3.671  1.00  0.00     0.275 HD
ATOM     29 1H12 UNL     1      -4.534  29.439  -3.052  1.00  0.00     0.275 HD
ENDBRANCH  25  26
BRANCH  25  30
HETATM   30  C14 UNL     1      -7.289  29.952  -4.489  1.00  0.00     0.204 C
HETATM   31  O2  UNL     1      -8.121  29.085  -4.748  1.00  0.00    -0.646 OA
HETATM   32  O3  UNL     1      -7.096  30.990  -5.366  1.00  0.00    -0.646 OA
ENDBRANCH  25  30
ENDBRANCH  24  25
ENDBRANCH  23  24
ENDBRANCH  18  23
ENDBRANCH  12  16
BRANCH  11  33
HETATM   33  N5  UNL     1      -3.271  36.173   0.961  1.00  0.00    -0.059 N
HETATM   34  N6  UNL     1      -2.923  35.450   2.073  1.00  0.00    -0.300 N
HETATM   35  C5  UNL     1      -1.753  34.657   1.998  1.00  0.00     0.178 A
ATOM     36  H6  UNL     1      -3.486  35.483   2.922  1.00  0.00     0.182 HD
HETATM   37  C6  UNL     1      -0.415  35.196   2.020  1.00  0.00     0.061 A
HETATM   38  C7  UNL     1      -1.052  34.551   0.764  1.00  0.00     0.164 A
HETATM   39  N7  UNL     1       0.780  35.717   2.166  1.00  0.00    -0.273 N
ATOM     40  H7  UNL     1       1.427  35.729   1.378  1.00  0.00     0.193 HD
HETATM   41  N8  UNL     1      -1.324  35.528  -0.252  1.00  0.00    -0.350 N
HETATM   42  C8  UNL     1      -2.385  36.288  -0.137  1.00  0.00     0.227 C
ATOM     43  H8  UNL     1      -0.700  35.629  -1.052  1.00  0.00     0.163 HD
HETATM   44  N9  UNL     1      -2.559  37.218  -1.204  1.00  0.00    -0.061 NA
BRANCH  39  45
HETATM   45  O1  UNL     1       1.166  36.247   3.380  1.00  0.00    -0.290 OA
ATOM     46  H1  UNL     1       2.025  36.640   3.481  1.00  0.00     0.244 HD
ENDBRANCH  39  45
ENDBRANCH  11  33
BRANCH   1  47
HETATM   47  N1  UNL     1     -10.015  38.215  -0.059  1.00  0.00    -0.234 N
ATOM     48  H12 UNL     1     -10.706  38.651   0.551  1.00  0.00     0.174 HD
ATOM     49  H11 UNL     1     -10.342  37.746  -0.904  1.00  0.00     0.174 HD
ENDBRANCH   1  47
TORSDOF 9
ENDMDL