MODEL 2
REMARK VINA RESULT: -7.929736838      2.461      2.928
REMARK  9 active torsions:
REMARK  status: ('A' for Active; 'I' for Inactive)
REMARK    1  A    between atoms: C2_3  and  C3_7
REMARK    2  A    between atoms: C3_7  and  O1_8
REMARK    3  A    between atoms: C3_7  and  N3_10
REMARK    4  A    between atoms: N3_10  and  N4_12
REMARK    5  A    between atoms: N4_12  and  C4_14
REMARK    6  A    between atoms: C5_19  and  N7_20
REMARK    7  A    between atoms: N7_20  and  C6_22
REMARK    8  A    between atoms: C6_22  and  C7_23
REMARK    9  A    between atoms: N10_36  and  N11_38
REMARK       I    between atoms: N11_38  and  C13_39
ROOT
HETATM    1  N1  UNL     1      -9.177  35.905  -0.565  1.00  0.00    -0.190 NA
HETATM    2  C1  UNL     1      -9.084  37.003  -0.173  1.00  0.00     0.117 C
HETATM    3  C2  UNL     1      -8.971  38.347   0.333  1.00  0.00     0.134 C
HETATM    4  N2  UNL     1     -10.031  39.080   0.314  1.00  0.00    -0.390 N
ATOM      5  H21 UNL     1      -9.952  40.032   0.672  1.00  0.00     0.156 HD
ATOM      6  H22 UNL     1     -10.916  38.721  -0.044  1.00  0.00     0.156 HD
ENDROOT
BRANCH   3   7
HETATM    7  C3  UNL     1      -7.689  38.867   0.852  1.00  0.00     0.294 C
BRANCH   7   8
HETATM    8  O1  UNL     1      -7.559  40.232   0.614  1.00  0.00    -0.369 OA
ATOM      9  H1  UNL     1      -7.459  40.414  -0.312  1.00  0.00     0.212 HD
ENDBRANCH   7   8
BRANCH   7  10
HETATM   10  N3  UNL     1      -6.551  38.145   0.309  1.00  0.00    -0.287 N
ATOM     11  H3  UNL     1      -6.195  38.335  -0.629  1.00  0.00     0.184 HD
BRANCH  10  12
HETATM   12  N4  UNL     1      -5.966  37.177   1.132  1.00  0.00    -0.132 N
ATOM     13  H4  UNL     1      -5.809  37.356   2.124  1.00  0.00     0.205 HD
BRANCH  12  14
HETATM   14  C4  UNL     1      -5.634  36.056   0.598  1.00  0.00     0.726 A
HETATM   15  N5  UNL     1      -4.531  35.775  -0.072  1.00  0.00    -0.116 N
HETATM   16  N6  UNL     1      -4.556  34.530  -0.456  1.00  0.00    -0.117 N
ATOM     17  H5  UNL     1      -3.775  36.433  -0.261  1.00  0.00     0.206 HD
HETATM   18  C5  UNL     1      -5.700  33.982  -0.029  1.00  0.00     0.707 A
ATOM     19  H6  UNL     1      -3.829  34.054  -0.991  1.00  0.00     0.206 HD
HETATM   20  N13 UNL     1      -6.390  34.947   0.642  1.00  0.00    -0.018 N
ATOM     21  H13 UNL     1      -7.301  34.846   1.089  1.00  0.00     0.203 HD
BRANCH  18  22
HETATM   22  N7  UNL     1      -6.145  32.642  -0.222  1.00  0.00    -0.220 N
ATOM     23  H7  UNL     1      -6.897  32.481  -0.892  1.00  0.00     0.177 HD
BRANCH  22  24
HETATM   24  C6  UNL     1      -5.602  31.500   0.471  1.00  0.00     0.199 C
BRANCH  24  25
HETATM   25  C7  UNL     1      -5.858  30.184  -0.279  1.00  0.00     0.291 C
HETATM   26  O2  UNL     1      -4.988  29.257   0.261  1.00  0.00    -0.287 OA
HETATM   27  C8  UNL     1      -4.379  28.099  -0.174  1.00  0.00     0.271 C
HETATM   28  O3  UNL     1      -3.828  27.408   0.707  1.00  0.00    -0.264 OA
HETATM   29  C9  UNL     1      -4.331  27.627  -1.584  1.00  0.00     0.140 C
HETATM   30  C10 UNL     1      -2.937  27.778  -2.113  1.00  0.00     0.095 C
HETATM   31  C14 UNL     1      -5.335  28.338  -2.376  1.00  0.00     0.121 A
HETATM   32  N8  UNL     1      -2.574  29.031  -2.302  1.00  0.00    -0.316 N
HETATM   33  N9  UNL     1      -3.538  29.980  -1.981  1.00  0.00    -0.296 N
ATOM     34  H8  UNL     1      -1.652  29.286  -2.657  1.00  0.00     0.185 HD
HETATM   35  C11 UNL     1      -4.922  29.795  -2.349  1.00  0.00     0.203 A
ATOM     36  H9  UNL     1      -3.263  30.823  -1.477  1.00  0.00     0.184 HD
HETATM   37  O4  UNL     1      -5.852  30.446  -1.600  1.00  0.00    -0.321 OA
HETATM   38  C12 UNL     1      -5.144  29.128  -3.586  1.00  0.00     0.084 A
HETATM   39  N10 UNL     1      -5.219  29.013  -4.877  1.00  0.00    -0.234 N
ATOM     40  H10 UNL     1      -5.002  29.872  -5.381  1.00  0.00     0.201 HD
BRANCH  39  41
HETATM   41  N11 UNL     1      -5.516  28.016  -5.647  1.00  0.00    -0.268 NA
HETATM   42  C13 UNL     1      -5.833  26.950  -6.473  1.00  0.00     0.424 C
HETATM   43  N12 UNL     1      -6.031  25.621  -5.908  1.00  0.00    -0.024 NA
HETATM   44  O5  UNL     1      -5.985  26.975  -7.742  1.00  0.00    -0.232 OA
ENDBRANCH  39  41
ENDBRANCH  24  25
ENDBRANCH  22  24
ENDBRANCH  18  22
ENDBRANCH  12  14
ENDBRANCH  10  12
ENDBRANCH   7  10
ENDBRANCH   3   7
TORSDOF 9
ENDMDL