MODEL 5
REMARK VINA RESULT: -7.258623413      3.885      9.343
REMARK  10 active torsions:
REMARK  status: ('A' for Active; 'I' for Inactive)
REMARK    1  A    between atoms: C4_12  and  C5_13
REMARK    2  A    between atoms: C5_13  and  O2_14
REMARK    3  A    between atoms: C5_13  and  O3_16
REMARK    4  A    between atoms: C6_21  and  N6_22
REMARK    5  A    between atoms: N6_22  and  C7_24
REMARK    6  A    between atoms: C7_24  and  C8_25
REMARK    7  A    between atoms: C8_25  and  N7_26
REMARK    8  A    between atoms: N7_26  and  C9_28
REMARK    9  A    between atoms: C12_35  and  O4_36
REMARK   10  A    between atoms: C12_35  and  C13_38
ROOT
HETATM    1  N1  UNL     1      -1.384  25.078  -5.751  1.00  0.00    -0.234 N
ATOM      2  H11 UNL     1      -0.522  24.932  -5.225  1.00  0.00     0.174 HD
ATOM      3  H12 UNL     1      -1.577  24.464  -6.543  1.00  0.00     0.174 HD
HETATM    4  C1  UNL     1      -2.219  26.023  -5.422  1.00  0.00     0.692 A
HETATM    5  N2  UNL     1      -3.355  26.215  -6.116  1.00  0.00    -0.168 N
ATOM      6  H2  UNL     1      -3.566  25.612  -6.911  1.00  0.00     0.186 HD
HETATM    7  C2  UNL     1      -4.229  27.204  -5.773  1.00  0.00     0.228 A
HETATM    8  C3  UNL     1      -5.390  27.418  -6.462  1.00  0.00     0.294 A
HETATM    9  O1  UNL     1      -5.637  26.657  -7.450  1.00  0.00    -0.264 OA
HETATM   10  N3  UNL     1      -6.216  28.399  -6.090  1.00  0.00    -0.305 N
ATOM     11  H3  UNL     1      -7.078  28.549  -6.613  1.00  0.00     0.170 HD
HETATM   12  C4  UNL     1      -5.939  29.194  -5.042  1.00  0.00     0.155 A
HETATM   13  N4  UNL     1      -4.793  28.970  -4.376  1.00  0.00    -0.262 N
ATOM     14  H4  UNL     1      -4.559  29.561  -3.578  1.00  0.00     0.189 HD
HETATM   15  N5  UNL     1      -3.961  28.006  -4.726  1.00  0.00    -0.062 N
HETATM   16  C6  UNL     1      -2.810  27.810  -4.025  1.00  0.00     0.716 A
HETATM   17  N10 UNL     1      -1.964  26.835  -4.375  1.00  0.00    -0.021 N
ATOM     18  H10 UNL     1      -1.106  26.703  -3.839  1.00  0.00     0.203 HD
ENDROOT
BRANCH  16  19
HETATM   19  N6  UNL     1      -2.602  28.596  -3.042  1.00  0.00    -0.222 N
ATOM     20  H6  UNL     1      -2.355  29.567  -3.233  1.00  0.00     0.177 HD
BRANCH  19  21
HETATM   21  C7  UNL     1      -2.703  28.167  -1.680  1.00  0.00     0.157 C
BRANCH  21  22
HETATM   22  C8  UNL     1      -3.484  29.213  -0.885  1.00  0.00     0.141 C
BRANCH  22  23
HETATM   23  N7  UNL     1      -3.504  30.444  -1.610  1.00  0.00    -0.374 N
ATOM     24  H7  UNL     1      -2.945  30.548  -2.458  1.00  0.00     0.161 HD
BRANCH  23  25
HETATM   25  C9  UNL     1      -4.306  31.525  -1.149  1.00  0.00     0.118 A
HETATM   26  C10 UNL     1      -5.085  32.397  -1.877  1.00  0.00     0.141 A
HETATM   27  N8  UNL     1      -5.702  33.302  -1.046  1.00  0.00    -0.330 N
HETATM   28  C11 UNL     1      -5.294  32.975   0.178  1.00  0.00     0.151 A
HETATM   29  C14 UNL     1      -6.610  34.402  -1.150  1.00  0.00     0.192 C
HETATM   30  N9  UNL     1      -4.468  31.927   0.149  1.00  0.00    -0.322 N
HETATM   31  S1  UNL     1      -6.059  34.147   1.289  1.00  0.00    -0.043 SA
ATOM     32  H9  UNL     1      -4.028  31.496   0.962  1.00  0.00     0.169 HD
HETATM   33  C12 UNL     1      -6.366  35.401  -0.044  1.00  0.00     0.219 C
BRANCH  33  34
HETATM   34  O4  UNL     1      -5.253  36.182  -0.241  1.00  0.00    -0.368 OA
ATOM     35  H4  UNL     1      -5.416  36.834  -0.912  1.00  0.00     0.212 HD
ENDBRANCH  33  34
BRANCH  33  36
HETATM   36  C13 UNL     1      -7.581  36.169   0.260  1.00  0.00     0.222 C
HETATM   37  O5  UNL     1      -8.700  35.654   0.123  1.00  0.00    -0.645 OA
HETATM   38  O6  UNL     1      -7.464  37.470   0.701  1.00  0.00    -0.645 OA
ENDBRANCH  33  36
ENDBRANCH  23  25
ENDBRANCH  22  23
ENDBRANCH  21  22
ENDBRANCH  19  21
ENDBRANCH  16  19
BRANCH  12  39
HETATM   39  C5  UNL     1      -6.881  30.289  -4.643  1.00  0.00     0.325 C
BRANCH  39  40
HETATM   40  O2  UNL     1      -7.242  31.032  -5.756  1.00  0.00    -0.365 OA
ATOM     41  H2  UNL     1      -8.185  31.152  -5.773  1.00  0.00     0.213 HD
ENDBRANCH  39  40
BRANCH  39  42
HETATM   42  O3  UNL     1      -8.012  29.737  -4.042  1.00  0.00    -0.365 OA
ATOM     43  H3  UNL     1      -8.687  30.400  -3.961  1.00  0.00     0.213 HD
ENDBRANCH  39  42
ENDBRANCH  12  39
TORSDOF 10
ENDMDL