MODEL 5
REMARK VINA RESULT: -7.472959947      2.191      8.217
REMARK  11 active torsions:
REMARK  status: ('A' for Active; 'I' for Inactive)
REMARK       I    between atoms: C2_2  and  N1_4
REMARK    1  A    between atoms: N1_4  and  C3_6
REMARK    2  A    between atoms: N4_11  and  C4_12
REMARK    3  A    between atoms: C4_12  and  C5_13
REMARK    4  A    between atoms: C6_16  and  N5_17
REMARK    5  A    between atoms: N5_17  and  C7_19
REMARK    6  A    between atoms: C7_19  and  O4_20
REMARK    7  A    between atoms: C7_19  and  N6_22
REMARK    8  A    between atoms: N6_22  and  C8_25
REMARK    9  A    between atoms: C9_26  and  N7_27
REMARK   10  A    between atoms: N7_27  and  O5_28
REMARK   11  A    between atoms: C13_36  and  C14_37
ROOT
HETATM    1  C7  UNL     1      -5.487  31.684   0.468  1.00  0.00     0.441 C
ENDROOT
BRANCH   1   2
HETATM    2  N5  UNL     1      -6.075  30.956  -0.634  1.00  0.00    -0.172 N
ATOM      3  H5  UNL     1      -7.088  30.954  -0.756  1.00  0.00     0.182 HD
BRANCH   2   4
HETATM    4  C6  UNL     1      -5.320  30.299  -1.475  1.00  0.00     0.714 A
HETATM    5  N4  UNL     1      -5.862  29.999  -2.673  1.00  0.00    -0.098 N
HETATM    6  N3  UNL     1      -5.123  29.336  -3.541  1.00  0.00    -0.211 N
HETATM    7  N2  UNL     1      -3.877  28.975  -3.237  1.00  0.00    -0.116 N
ATOM      8  H3  UNL     1      -5.510  29.097  -4.453  1.00  0.00     0.209 HD
HETATM    9  C3  UNL     1      -3.307  29.258  -2.055  1.00  0.00     0.715 A
ATOM     10  H2  UNL     1      -3.333  28.463  -3.932  1.00  0.00     0.207 HD
HETATM   11  N10 UNL     1      -4.066  29.943  -1.154  1.00  0.00    -0.019 N
ATOM     12  H10 UNL     1      -3.684  30.184  -0.240  1.00  0.00     0.203 HD
BRANCH   5  13
HETATM   13  C4  UNL     1      -7.201  30.374  -3.028  1.00  0.00     0.282 C
BRANCH  13  14
HETATM   14  C5  UNL     1      -7.491  30.103  -4.444  1.00  0.00     0.194 C
HETATM   15  O2  UNL     1      -8.074  29.042  -4.769  1.00  0.00    -0.647 OA
HETATM   16  O3  UNL     1      -7.137  30.993  -5.444  1.00  0.00    -0.647 OA
ENDBRANCH  13  14
ENDBRANCH   5  13
BRANCH   9  17
HETATM   17  N1  UNL     1      -2.109  28.905  -1.780  1.00  0.00    -0.158 N
HETATM   18  C2  UNL     1      -1.521  27.681  -2.155  1.00  0.00     0.232 C
HETATM   19  C1  UNL     1      -0.082  27.633  -2.517  1.00  0.00     0.118 C
HETATM   20  O1  UNL     1      -2.233  26.651  -2.177  1.00  0.00    -0.273 OA
ATOM     21  H1  UNL     1      -1.535  29.560  -1.248  1.00  0.00     0.187 HD
ENDBRANCH   9  17
ENDBRANCH   2   4
ENDBRANCH   1   2
BRANCH   1  22
HETATM   22  O4  UNL     1      -5.200  30.829   1.543  1.00  0.00    -0.354 OA
ATOM     23  H4  UNL     1      -4.282  30.588   1.552  1.00  0.00     0.214 HD
ENDBRANCH   1  22
BRANCH   1  24
HETATM   24  N6  UNL     1      -6.423  32.727   0.897  1.00  0.00    -0.021 N
ATOM     25  H62 UNL     1      -7.263  32.775   0.320  1.00  0.00     0.283 HD
ATOM     26  H61 UNL     1      -6.884  32.513   1.781  1.00  0.00     0.283 HD
BRANCH  24  27
HETATM   27  C8  UNL     1      -5.692  33.949   0.927  1.00  0.00     0.264 C
HETATM   28  C9  UNL     1      -5.247  34.436  -0.442  1.00  0.00     0.338 C
HETATM   29  N8  UNL     1      -4.872  35.831  -0.233  1.00  0.00    -0.043 N
HETATM   30  C10 UNL     1      -5.534  36.280   0.972  1.00  0.00     0.243 C
ATOM     31  H82 UNL     1      -3.862  35.973  -0.210  1.00  0.00     0.280 HD
ATOM     32  H81 UNL     1      -5.070  36.423  -1.040  1.00  0.00     0.280 HD
HETATM   33  C11 UNL     1      -6.499  37.368   0.708  1.00  0.00    -0.018 C
HETATM   34  C15 UNL     1      -6.434  35.149   1.413  1.00  0.00     0.151 C
HETATM   35  C12 UNL     1      -6.122  38.821   0.672  1.00  0.00     0.048 C
HETATM   36  C13 UNL     1      -7.676  36.830   0.524  1.00  0.00     0.110 C
HETATM   37  N9  UNL     1      -7.626  35.415   0.642  1.00  0.00    -0.375 N
ATOM     38  H9  UNL     1      -8.287  34.735   0.265  1.00  0.00     0.160 HD
BRANCH  28  39
HETATM   39  N7  UNL     1      -6.323  34.344  -1.402  1.00  0.00    -0.068 NA
BRANCH  39  40
HETATM   40  O5  UNL     1      -6.021  33.462  -2.369  1.00  0.00    -0.294 OA
ATOM     41  H5  UNL     1      -6.027  32.575  -2.029  1.00  0.00     0.238 HD
ENDBRANCH  39  40
ENDBRANCH  28  39
BRANCH  36  42
HETATM   42  C14 UNL     1      -8.899  37.593   0.235  1.00  0.00     0.226 C
HETATM   43  O6  UNL     1      -9.960  36.991  -0.146  1.00  0.00    -0.643 OA
HETATM   44  O7  UNL     1      -8.991  38.953   0.347  1.00  0.00    -0.643 OA
ENDBRANCH  36  42
ENDBRANCH  24  27
ENDBRANCH   1  24
TORSDOF 11
ENDMDL