MODEL 2
REMARK VINA RESULT: -5.985684163      1.263      1.371
REMARK  7 active torsions:
REMARK  status: ('A' for Active; 'I' for Inactive)
REMARK    1  A    between atoms: N1_1  and  N2_4
REMARK    2  A    between atoms: N2_4  and  C1_6
REMARK    3  A    between atoms: C3_11  and  C4_12
REMARK    4  A    between atoms: C4_12  and  O2_13
REMARK    5  A    between atoms: C4_12  and  O3_15
REMARK    6  A    between atoms: C5_17  and  C6_18
REMARK    7  A    between atoms: C8_22  and  N5_23
ROOT
HETATM    1  C1  UNL     1      -9.887 -29.416  10.375  1.00  0.00     0.246 A
HETATM    2  N3  UNL     1     -10.064 -30.680   9.971  1.00  0.00    -0.300 N
ATOM      3  H3  UNL     1     -10.929 -30.983   9.525  1.00  0.00     0.171 HD
HETATM    4  C2  UNL     1      -9.040 -31.533  10.182  1.00  0.00     0.167 A
HETATM    5  O1  UNL     1      -8.965 -32.825   9.875  1.00  0.00    -0.291 OA
HETATM    6  C3  UNL     1      -7.814 -33.248  10.253  1.00  0.00     0.126 A
HETATM    7  C5  UNL     1      -7.069 -32.191  10.844  1.00  0.00     0.083 A
HETATM    8  C7  UNL     1      -7.882 -31.097  10.787  1.00  0.00     0.091 A
HETATM    9  C8  UNL     1      -7.733 -29.797  11.191  1.00  0.00     0.233 A
HETATM   10  O7  UNL     1      -8.802 -29.005  10.944  1.00  0.00    -0.254 OA
ENDROOT
BRANCH   1  11
HETATM   11  N2  UNL     1     -10.893 -28.597  10.163  1.00  0.00    -0.271 N
ATOM     12  H2  UNL     1     -11.550 -28.374  10.911  1.00  0.00     0.190 HD
BRANCH  11  13
HETATM   13  N1  UNL     1     -11.042 -28.037   8.892  1.00  0.00    -0.342 N
ATOM     14  H12 UNL     1     -10.436 -28.341   8.131  1.00  0.00     0.176 HD
ATOM     15  H11 UNL     1     -11.762 -27.328   8.752  1.00  0.00     0.176 HD
ENDBRANCH  11  13
ENDBRANCH   1  11
BRANCH   9  16
HETATM   16  N5  UNL     1      -6.632 -29.228  11.813  1.00  0.00    -0.089 N
HETATM   17  O5  UNL     1      -5.760 -28.735  10.991  1.00  0.00    -0.530 OA
HETATM   18  O6  UNL     1      -6.268 -29.074  13.061  1.00  0.00    -0.530 OA
ENDBRANCH   9  16
BRANCH   6  19
HETATM   19  C4  UNL     1      -7.315 -34.631  10.103  1.00  0.00     0.313 C
BRANCH  19  20
HETATM   20  O2  UNL     1      -8.164 -35.535  10.771  1.00  0.00    -0.365 OA
ATOM     21  H2  UNL     1      -8.062 -35.452  11.712  1.00  0.00     0.213 HD
ENDBRANCH  19  20
BRANCH  19  22
HETATM   22  O3  UNL     1      -7.289 -35.044   8.769  1.00  0.00    -0.365 OA
ATOM     23  H3  UNL     1      -6.457 -34.858   8.350  1.00  0.00     0.213 HD
ENDBRANCH  19  22
ENDBRANCH   6  19
BRANCH   7  24
HETATM   24  C6  UNL     1      -5.734 -32.423  11.345  1.00  0.00     0.268 C
HETATM   25  N4  UNL     1      -5.609 -32.992  12.661  1.00  0.00    -0.057 NA
HETATM   26  O4  UNL     1      -4.669 -32.181  10.734  1.00  0.00    -0.271 OA
ENDBRANCH   7  24
TORSDOF 7
ENDMDL