MODEL 2
REMARK VINA RESULT: -5.315606104      3.229      4.818
REMARK  5 active torsions:
REMARK  status: ('A' for Active; 'I' for Inactive)
REMARK    1  A    between atoms: O1_2  and  C2_3
REMARK    2  A    between atoms: C2_3  and  C3_5
REMARK    3  A    between atoms: C5_8  and  N2_9
REMARK    4  A    between atoms: C6_11  and  C7_12
REMARK    5  A    between atoms: C10_18  and  N4_19
ROOT
HETATM    1  N2  UNL     1      -7.036 -32.343  11.599  1.00  0.00    -0.354 N
ATOM      2  H2  UNL     1      -7.181 -33.346  11.716  1.00  0.00     0.166 HD
HETATM    3  C6  UNL     1      -5.873 -31.908  11.290  1.00  0.00     0.071 C
ENDROOT
BRANCH   1   4
HETATM    4  C5  UNL     1      -8.139 -31.446  11.785  1.00  0.00     0.136 A
HETATM    5  C4  UNL     1      -9.205 -31.298  10.925  1.00  0.00     0.110 A
HETATM    6  C3  UNL     1     -10.068 -30.352  11.426  1.00  0.00     0.111 A
HETATM    7  N1  UNL     1      -9.398 -32.013   9.691  1.00  0.00    -0.097 NA
HETATM    8  C11 UNL     1      -9.511 -29.916  12.622  1.00  0.00     0.126 A
HETATM    9  N5  UNL     1      -8.351 -30.597  12.804  1.00  0.00    -0.300 N
HETATM   10  N6  UNL     1      -9.398 -29.168  13.823  1.00  0.00    -0.358 N
HETATM   11  C12 UNL     1      -8.158 -29.873  14.051  1.00  0.00     0.256 A
ATOM     12  H6  UNL     1      -9.946 -28.455  14.305  1.00  0.00     0.162 HD
BRANCH   6  13
HETATM   13  C2  UNL     1     -11.315 -29.902  10.820  1.00  0.00     0.298 C
HETATM   14  O2  UNL     1     -12.345 -30.606  10.961  1.00  0.00    -0.259 OA
BRANCH  13  15
HETATM   15  O1  UNL     1     -11.434 -28.740  10.097  1.00  0.00    -0.322 OA
HETATM   16  C1  UNL     1     -12.704 -28.274   9.682  1.00  0.00     0.213 C
ENDBRANCH  13  15
ENDBRANCH   6  13
ENDBRANCH   1   4
BRANCH   3  17
HETATM   17  C7  UNL     1      -5.668 -30.460  11.126  1.00  0.00     0.082 C
HETATM   18  C8  UNL     1      -4.738 -30.242   9.941  1.00  0.00     0.244 C
HETATM   19  N3  UNL     1      -3.486 -29.789  10.473  1.00  0.00    -0.072 N
HETATM   20  C9  UNL     1      -3.440 -30.277  11.837  1.00  0.00     0.265 C
ATOM     21  H32 UNL     1      -2.679 -30.065   9.912  1.00  0.00     0.277 HD
ATOM     22  H31 UNL     1      -3.349 -28.781  10.395  1.00  0.00     0.277 HD
HETATM   23  C10 UNL     1      -4.849 -29.981  12.313  1.00  0.00     0.219 C
BRANCH  23  24
HETATM   24  N4  UNL     1      -5.044 -28.561  12.531  1.00  0.00    -0.073 N
ATOM     25  H43 UNL     1      -4.283 -28.009  12.137  1.00  0.00     0.274 HD
ATOM     26  H42 UNL     1      -5.808 -28.193  11.964  1.00  0.00     0.274 HD
ATOM     27  H41 UNL     1      -5.180 -28.364  13.523  1.00  0.00     0.274 HD
ENDBRANCH  23  24
ENDBRANCH   3  17
TORSDOF 5
ENDMDL