MODEL 4
REMARK VINA RESULT: -6.766545231      3.461      7.315
REMARK  6 active torsions:
REMARK  status: ('A' for Active; 'I' for Inactive)
REMARK    1  A    between atoms: C2_3  and  N2_4
REMARK    2  A    between atoms: N2_4  and  O1_6
REMARK    3  A    between atoms: C4_12  and  N4_13
REMARK    4  A    between atoms: N4_13  and  N5_15
REMARK    5  A    between atoms: C5_17  and  C6_18
REMARK    6  A    between atoms: N7_25  and  N8_26
ROOT
HETATM    1  N1  UNL     1     -12.850 -26.922   8.906  1.00  0.00    -0.077 NA
HETATM    2  C1  UNL     1     -12.940 -28.090   9.704  1.00  0.00     0.189 A
HETATM    3  C2  UNL     1     -14.150 -28.573  10.128  1.00  0.00     0.166 A
HETATM    4  C3  UNL     1     -14.212 -29.693  10.893  1.00  0.00     0.291 A
HETATM    5  O2  UNL     1     -15.315 -30.153  11.294  1.00  0.00    -0.265 OA
HETATM    6  N3  UNL     1     -13.071 -30.333  11.236  1.00  0.00    -0.151 N
ATOM      7  H3  UNL     1     -13.111 -31.176  11.810  1.00  0.00     0.188 HD
HETATM    8  C4  UNL     1     -11.887 -29.859  10.820  1.00  0.00     0.722 A
HETATM    9  N7  UNL     1     -11.815 -28.758  10.067  1.00  0.00    -0.075 N
ENDROOT
BRANCH   8  10
HETATM   10  N4  UNL     1     -10.772 -30.455  11.134  1.00  0.00    -0.130 N
ATOM     11  H4  UNL     1     -10.403 -31.149  10.485  1.00  0.00     0.205 HD
BRANCH  10  12
HETATM   12  N5  UNL     1     -10.072 -30.214  12.269  1.00  0.00    -0.297 N
HETATM   13  C5  UNL     1      -8.864 -30.288  12.563  1.00  0.00     0.119 C
ATOM     14  H5  UNL     1     -10.657 -29.905  13.046  1.00  0.00     0.186 HD
BRANCH  13  15
HETATM   15  C6  UNL     1      -7.757 -30.683  11.731  1.00  0.00    -0.017 A
HETATM   16  C7  UNL     1      -6.766 -29.725  11.442  1.00  0.00     0.030 A
HETATM   17  C8  UNL     1      -5.679 -30.005  10.662  1.00  0.00     0.088 A
HETATM   18  N6  UNL     1      -5.537 -31.236  10.145  1.00  0.00    -0.375 N
HETATM   19  C9  UNL     1      -6.452 -32.180  10.390  1.00  0.00     0.088 A
ATOM     20  H6  UNL     1      -4.727 -31.452   9.562  1.00  0.00     0.164 HD
HETATM   21  C10 UNL     1      -7.562 -31.922  11.177  1.00  0.00     0.030 A
ENDBRANCH  13  15
ENDBRANCH  10  12
ENDBRANCH   8  10
BRANCH   9  22
HETATM   22  N8  UNL     1     -10.609 -28.239   9.619  1.00  0.00    -0.323 N
ATOM     23  H82 UNL     1     -10.456 -27.239   9.491  1.00  0.00     0.178 HD
ATOM     24  H81 UNL     1      -9.867 -28.910   9.419  1.00  0.00     0.178 HD
ENDBRANCH   9  22
BRANCH   3  25
HETATM   25  N2  UNL     1     -15.320 -27.849   9.733  1.00  0.00    -0.261 N
ATOM     26  H2  UNL     1     -16.018 -28.294   9.136  1.00  0.00     0.194 HD
BRANCH  25  27
HETATM   27  O1  UNL     1     -15.484 -26.674  10.120  1.00  0.00    -0.289 OA
ATOM     28  H1  UNL     1     -15.644 -25.985   9.485  1.00  0.00     0.244 HD
ENDBRANCH  25  27
ENDBRANCH   3  25
TORSDOF 6
ENDMDL