MODEL 2
REMARK VINA RESULT: -6.812206674      2.583      7.257
REMARK  5 active torsions:
REMARK  status: ('A' for Active; 'I' for Inactive)
REMARK    1  A    between atoms: C3_4  and  N2_5
REMARK    2  A    between atoms: C4_8  and  C5_9
REMARK    3  A    between atoms: N3_10  and  N4_12
REMARK    4  A    between atoms: N4_12  and  C6_14
REMARK    5  A    between atoms: C9_21  and  O3_22
ROOT
HETATM    1  N1  UNL     1     -15.643 -30.242  11.251  1.00  0.00    -0.191 NA
HETATM    2  C1  UNL     1     -14.777 -29.593  10.847  1.00  0.00     0.107 C
HETATM    3  C2  UNL     1     -13.676 -28.791  10.353  1.00  0.00     0.146 A
HETATM    4  C3  UNL     1     -12.363 -29.182  10.491  1.00  0.00     0.145 A
HETATM    5  C4  UNL     1     -11.316 -28.416  10.018  1.00  0.00     0.066 A
HETATM    6  C9  UNL     1     -11.610 -27.230   9.395  1.00  0.00     0.157 A
HETATM    7  N7  UNL     1     -12.910 -26.841   9.256  1.00  0.00    -0.302 N
ATOM      8  H7  UNL     1     -13.110 -25.956   8.789  1.00  0.00     0.171 HD
HETATM    9  C10 UNL     1     -13.943 -27.585   9.715  1.00  0.00     0.270 A
HETATM   10  O4  UNL     1     -15.145 -27.258   9.607  1.00  0.00    -0.266 OA
ENDROOT
BRANCH   4  11
HETATM   11  N2  UNL     1     -12.067 -30.409  11.139  1.00  0.00    -0.113 N
HETATM   12  O1  UNL     1     -12.259 -30.476  12.380  1.00  0.00    -0.532 OA
HETATM   13  O2  UNL     1     -11.581 -31.513  10.453  1.00  0.00    -0.532 OA
ENDBRANCH   4  11
BRANCH   5  14
HETATM   14  C5  UNL     1      -9.941 -28.883  10.193  1.00  0.00     0.125 C
HETATM   15  N3  UNL     1      -9.427 -29.115  11.342  1.00  0.00    -0.308 N
ATOM     16  H3  UNL     1      -9.978 -28.977  12.190  1.00  0.00     0.186 HD
BRANCH  15  17
HETATM   17  N4  UNL     1      -8.114 -29.557  11.425  1.00  0.00    -0.272 N
ATOM     18  H4  UNL     1      -7.424 -28.908  11.803  1.00  0.00     0.190 HD
BRANCH  17  19
HETATM   19  C6  UNL     1      -7.653 -30.844  11.023  1.00  0.00     0.190 C
HETATM   20  N5  UNL     1      -6.476 -31.137  10.634  1.00  0.00    -0.360 N
HETATM   21  C7  UNL     1      -6.337 -32.547  10.296  1.00  0.00     0.142 C
ATOM     22  H5  UNL     1      -5.717 -30.460  10.566  1.00  0.00     0.162 HD
HETATM   23  C8  UNL     1      -7.478 -33.153  11.096  1.00  0.00     0.142 C
HETATM   24  N6  UNL     1      -8.444 -32.047  10.983  1.00  0.00    -0.360 N
ATOM     25  H6  UNL     1      -9.457 -32.118  10.895  1.00  0.00     0.162 HD
ENDBRANCH  17  19
ENDBRANCH  15  17
ENDBRANCH   5  14
BRANCH   6  26
HETATM   26  O3  UNL     1     -10.583 -26.418   8.899  1.00  0.00    -0.345 OA
ATOM     27  H3  UNL     1      -9.865 -26.799   8.408  1.00  0.00     0.219 HD
ENDBRANCH   6  26
TORSDOF 5
ENDMDL