MODEL 4
REMARK VINA RESULT: -6.273358710      2.219      3.724
REMARK  6 active torsions:
REMARK  status: ('A' for Active; 'I' for Inactive)
REMARK    1  A    between atoms: C3_6  and  O1_7
REMARK    2  A    between atoms: O1_7  and  C4_8
REMARK    3  A    between atoms: C4_8  and  C5_9
REMARK    4  A    between atoms: C6_11  and  N3_12
REMARK    5  A    between atoms: N3_12  and  C7_14
REMARK    6  A    between atoms: C9_20  and  N6_21
ROOT
HETATM    1  N1  UNL     1      -5.346 -29.878  14.095  1.00  0.00    -0.190 NA
HETATM    2  C1  UNL     1      -6.340 -30.007  13.539  1.00  0.00     0.121 C
HETATM    3  C2  UNL     1      -7.573 -30.172  12.828  1.00  0.00     0.157 A
HETATM    4  N2  UNL     1      -7.629 -31.104  11.834  1.00  0.00    -0.322 N
ATOM      5  H2  UNL     1      -6.796 -31.655  11.624  1.00  0.00     0.169 HD
HETATM    6  C3  UNL     1      -8.742 -31.317  11.126  1.00  0.00     0.189 A
HETATM    7  C6  UNL     1      -9.850 -30.559  11.428  1.00  0.00     0.174 A
HETATM    8  N8  UNL     1      -9.817 -29.623  12.415  1.00  0.00    -0.325 N
ATOM      9  H8  UNL     1     -10.647 -29.070  12.628  1.00  0.00     0.169 HD
HETATM   10  C10 UNL     1      -8.678 -29.436  13.109  1.00  0.00     0.155 A
HETATM   11  N9  UNL     1      -8.657 -28.452  14.139  1.00  0.00    -0.079 NA
ENDROOT
BRANCH   6  12
HETATM   12  O1  UNL     1      -8.833 -32.246  10.120  1.00  0.00    -0.326 OA
BRANCH  12  13
HETATM   13  C4  UNL     1      -7.772 -32.864   9.474  1.00  0.00     0.246 C
BRANCH  13  14
HETATM   14  C5  UNL     1      -7.462 -34.217   9.965  1.00  0.00     0.257 C
HETATM   15  O2  UNL     1      -8.080 -34.651  10.911  1.00  0.00    -0.305 OA
ENDBRANCH  13  14
ENDBRANCH  12  13
ENDBRANCH   6  12
BRANCH   7  16
HETATM   16  N3  UNL     1     -10.956 -30.711  10.785  1.00  0.00    -0.171 N
ATOM     17  H3  UNL     1     -11.328 -31.651  10.648  1.00  0.00     0.186 HD
BRANCH  16  18
HETATM   18  C7  UNL     1     -11.674 -29.591  10.258  1.00  0.00     0.700 A
HETATM   19  N4  UNL     1     -13.000 -29.514  10.403  1.00  0.00    -0.132 N
HETATM   20  N5  UNL     1     -13.687 -28.496   9.930  1.00  0.00    -0.294 N
ATOM     21  H4  UNL     1     -13.492 -30.262  10.892  1.00  0.00     0.205 HD
HETATM   22  C8  UNL     1     -13.095 -27.487   9.279  1.00  0.00     0.156 A
ATOM     23  H5  UNL     1     -14.698 -28.476  10.063  1.00  0.00     0.186 HD
HETATM   24  C9  UNL     1     -11.728 -27.572   9.132  1.00  0.00     0.131 A
HETATM   25  N7  UNL     1     -11.031 -28.612   9.617  1.00  0.00    -0.174 N
ATOM     26  H7  UNL     1     -10.018 -28.654   9.496  1.00  0.00     0.186 HD
BRANCH  24  27
HETATM   27  N6  UNL     1     -11.105 -26.626   8.513  1.00  0.00    -0.384 N
ATOM     28  H62 UNL     1     -10.087 -26.579   8.569  1.00  0.00     0.157 HD
ATOM     29  H61 UNL     1     -11.644 -25.944   7.981  1.00  0.00     0.157 HD
ENDBRANCH  24  27
ENDBRANCH  16  18
ENDBRANCH   7  16
TORSDOF 6
ENDMDL