MODEL 2
REMARK VINA RESULT: -6.221951503      3.043      4.454
REMARK  4 active torsions:
REMARK  status: ('A' for Active; 'I' for Inactive)
REMARK    1  A    between atoms: N1_1  and  C1_4
REMARK    2  A    between atoms: C2_7  and  N3_8
REMARK    3  A    between atoms: C7_17  and  S1_18
REMARK    4  A    between atoms: S1_18  and  C8_19
ROOT
HETATM    1  C1  UNL     1      -7.422 -33.053   9.718  1.00  0.00     0.692 A
HETATM    2  N2  UNL     1      -6.171 -32.524   9.727  1.00  0.00    -0.022 N
ATOM      3  H2  UNL     1      -5.431 -33.016   9.228  1.00  0.00     0.203 HD
HETATM    4  C2  UNL     1      -5.866 -31.381  10.364  1.00  0.00     0.697 A
HETATM    5  N5  UNL     1      -6.878 -30.756  11.017  1.00  0.00    -0.169 N
ATOM      6  H5  UNL     1      -6.680 -29.887  11.511  1.00  0.00     0.186 HD
HETATM    7  C7  UNL     1      -8.131 -31.238  11.039  1.00  0.00     0.182 A
HETATM    8  N10 UNL     1      -8.386 -32.384  10.386  1.00  0.00    -0.169 N
ATOM      9  H10 UNL     1      -9.334 -32.759  10.396  1.00  0.00     0.186 HD
ENDROOT
BRANCH   7  10
HETATM   10  S1  UNL     1      -9.469 -30.407  11.905  1.00  0.00    -0.014 SA
BRANCH  10  11
HETATM   11  C8  UNL     1     -10.415 -29.409  10.773  1.00  0.00     0.183 A
HETATM   12  N6  UNL     1     -10.063 -28.283  10.120  1.00  0.00    -0.263 N
HETATM   13  N7  UNL     1     -11.126 -27.914   9.387  1.00  0.00    -0.226 N
ATOM     14  H6  UNL     1      -9.165 -27.804  10.172  1.00  0.00     0.190 HD
HETATM   15  N8  UNL     1     -12.115 -28.755   9.555  1.00  0.00    -0.226 N
ATOM     16  H7  UNL     1     -11.159 -27.093   8.784  1.00  0.00     0.210 HD
HETATM   17  N9  UNL     1     -11.677 -29.670  10.405  1.00  0.00    -0.263 N
ATOM     18  H8  UNL     1     -13.037 -28.713   9.119  1.00  0.00     0.210 HD
ATOM     19  H9  UNL     1     -12.224 -30.465  10.735  1.00  0.00     0.190 HD
ENDBRANCH  10  11
ENDBRANCH   7  10
BRANCH   4  20
HETATM   20  N3  UNL     1      -4.552 -30.837  10.366  1.00  0.00    -0.214 N
HETATM   21  C3  UNL     1      -4.318 -29.639   9.606  1.00  0.00     0.160 C
HETATM   22  C4  UNL     1      -2.871 -29.753   9.111  1.00  0.00     0.134 C
HETATM   23  N4  UNL     1      -2.053 -29.703  10.284  1.00  0.00    -0.418 N
HETATM   24  C5  UNL     1      -2.241 -30.766  11.207  1.00  0.00     0.134 C
ATOM     25  H4  UNL     1      -1.380 -28.954  10.446  1.00  0.00     0.153 HD
HETATM   26  C6  UNL     1      -3.522 -31.497  11.118  1.00  0.00     0.160 C
ENDBRANCH   4  20
BRANCH   1  27
HETATM   27  N1  UNL     1      -7.675 -34.156   9.092  1.00  0.00    -0.234 N
ATOM     28  H12 UNL     1      -7.435 -35.063   9.492  1.00  0.00     0.174 HD
ATOM     29  H11 UNL     1      -8.124 -34.151   8.176  1.00  0.00     0.174 HD
ENDBRANCH   1  27
TORSDOF 4
ENDMDL