MODEL 2
REMARK VINA RESULT: -5.985540330      1.417      2.133
REMARK  5 active torsions:
REMARK  status: ('A' for Active; 'I' for Inactive)
REMARK    1  A    between atoms: C2_2  and  C3_4
REMARK    2  A    between atoms: N1_6  and  C4_7
REMARK    3  A    between atoms: N4_14  and  N5_15
REMARK    4  A    between atoms: C6_18  and  N6_19
REMARK    5  A    between atoms: C7_22  and  C8_23
ROOT
HETATM    1  C4  UNL     1     -11.089 -29.347  10.294  1.00  0.00     0.171 A
HETATM    2  N2  UNL     1     -10.839 -28.346   9.435  1.00  0.00    -0.289 N
ATOM      3  H2  UNL     1      -9.884 -28.130   9.148  1.00  0.00     0.172 HD
HETATM    4  C5  UNL     1     -11.881 -27.634   8.960  1.00  0.00     0.342 A
HETATM    5  O2  UNL     1     -11.708 -26.686   8.151  1.00  0.00    -0.245 OA
HETATM    6  N3  UNL     1     -13.144 -27.903   9.326  1.00  0.00    -0.229 N
ATOM      7  H3  UNL     1     -13.904 -27.340   8.944  1.00  0.00     0.194 HD
HETATM    8  N4  UNL     1     -13.426 -28.874  10.164  1.00  0.00    -0.179 N
HETATM    9  C6  UNL     1     -12.392 -29.592  10.645  1.00  0.00     0.184 A
ENDROOT
BRANCH   1  10
HETATM   10  N1  UNL     1      -9.996 -30.140  10.831  1.00  0.00    -0.254 N
HETATM   11  S1  UNL     1      -9.013 -31.246  10.068  1.00  0.00     0.001 SA
HETATM   12  C3  UNL     1      -8.495 -31.198  11.680  1.00  0.00     0.102 A
HETATM   13  C7  UNL     1      -9.432 -30.260  12.034  1.00  0.00     0.146 A
BRANCH  12  14
HETATM   14  C2  UNL     1      -7.413 -31.933  12.376  1.00  0.00     0.166 C
HETATM   15  C1  UNL     1      -6.264 -31.179  12.948  1.00  0.00     0.097 C
HETATM   16  O1  UNL     1      -7.473 -33.173  12.475  1.00  0.00    -0.292 OA
ENDBRANCH  12  14
BRANCH  13  17
HETATM   17  C8  UNL     1      -9.775 -29.564  13.289  1.00  0.00     0.229 C
HETATM   18  O3  UNL     1      -9.072 -28.623  13.682  1.00  0.00    -0.643 OA
HETATM   19  O4  UNL     1     -10.867 -29.904  14.081  1.00  0.00    -0.643 OA
ENDBRANCH  13  17
ENDBRANCH   1  10
BRANCH   9  20
HETATM   20  N6  UNL     1     -12.635 -30.566  11.481  1.00  0.00    -0.380 N
ATOM     21  H62 UNL     1     -11.850 -31.042  11.925  1.00  0.00     0.158 HD
ATOM     22  H61 UNL     1     -13.607 -30.816  11.663  1.00  0.00     0.158 HD
ENDBRANCH   9  20
BRANCH   8  23
HETATM   23  N5  UNL     1     -14.725 -29.189  10.572  1.00  0.00    -0.322 N
ATOM     24  H52 UNL     1     -15.054 -28.865  11.482  1.00  0.00     0.179 HD
ATOM     25  H51 UNL     1     -15.377 -29.733  10.006  1.00  0.00     0.179 HD
ENDBRANCH   8  23
TORSDOF 5
ENDMDL