MODEL 3
REMARK VINA RESULT: -6.118524623      2.134      3.186
REMARK  5 active torsions:
REMARK  status: ('A' for Active; 'I' for Inactive)
REMARK    1  A    between atoms: C2_5  and  N3_6
REMARK    2  A    between atoms: N3_6  and  N4_8
REMARK    3  A    between atoms: C3_10  and  C4_11
REMARK    4  A    between atoms: N6_17  and  N7_18
REMARK    5  A    between atoms: C9_23  and  N8_24
ROOT
HETATM    1  N1  UNL     1      -6.894 -33.084   8.867  1.00  0.00    -0.079 NA
HETATM    2  C1  UNL     1      -7.509 -32.123   9.724  1.00  0.00     0.170 A
HETATM    3  N2  UNL     1      -8.838 -32.053   9.845  1.00  0.00    -0.173 N
ATOM      4  H2  UNL     1      -9.420 -32.702   9.314  1.00  0.00     0.185 HD
HETATM    5  C2  UNL     1      -9.438 -31.140  10.659  1.00  0.00     0.722 A
HETATM    6  N6  UNL     1      -8.710 -30.270  11.375  1.00  0.00    -0.050 N
HETATM    7  C8  UNL     1      -7.362 -30.341  11.253  1.00  0.00     0.318 A
HETATM    8  O1  UNL     1      -6.690 -29.520  11.928  1.00  0.00    -0.263 OA
HETATM    9  C9  UNL     1      -6.704 -31.239  10.448  1.00  0.00     0.214 A
ENDROOT
BRANCH   5  10
HETATM   10  N3  UNL     1     -10.722 -31.119  10.737  1.00  0.00    -0.130 N
ATOM     11  H3  UNL     1     -11.217 -31.954  11.052  1.00  0.00     0.205 HD
BRANCH  10  12
HETATM   12  N4  UNL     1     -11.440 -29.997  10.403  1.00  0.00    -0.295 N
HETATM   13  C3  UNL     1     -12.736 -29.924  10.525  1.00  0.00     0.137 C
ATOM     14  H4  UNL     1     -10.937 -29.185  10.045  1.00  0.00     0.186 HD
BRANCH  13  15
HETATM   15  C4  UNL     1     -13.498 -28.738  10.173  1.00  0.00     0.049 A
HETATM   16  C5  UNL     1     -13.000 -27.555   9.670  1.00  0.00     0.032 A
HETATM   17  C6  UNL     1     -14.048 -26.667   9.463  1.00  0.00     0.019 A
HETATM   18  C7  UNL     1     -15.176 -27.355   9.856  1.00  0.00     0.088 A
HETATM   19  N5  UNL     1     -14.838 -28.579  10.274  1.00  0.00    -0.365 N
ATOM     20  H5  UNL     1     -15.489 -29.285  10.617  1.00  0.00     0.165 HD
ENDBRANCH  13  15
ENDBRANCH  10  12
ENDBRANCH   5  10
BRANCH   6  21
HETATM   21  N7  UNL     1      -9.320 -29.331  12.213  1.00  0.00    -0.321 N
ATOM     22  H72 UNL     1     -10.276 -29.015  12.053  1.00  0.00     0.178 HD
ATOM     23  H71 UNL     1      -8.824 -28.932  13.011  1.00  0.00     0.178 HD
ENDBRANCH   6  21
BRANCH   9  24
HETATM   24  N8  UNL     1      -5.282 -31.287  10.344  1.00  0.00    -0.106 N
HETATM   25  O2  UNL     1      -4.624 -32.000  11.126  1.00  0.00    -0.531 OA
HETATM   26  O3  UNL     1      -4.580 -30.572   9.404  1.00  0.00    -0.531 OA
ENDBRANCH   9  24
TORSDOF 5
ENDMDL