MODEL 5
REMARK VINA RESULT: -5.307804494      1.049      1.201
REMARK  5 active torsions:
REMARK  status: ('A' for Active; 'I' for Inactive)
REMARK    1  A    between atoms: N1_1  and  N2_4
REMARK    2  A    between atoms: C1_6  and  C2_8
REMARK    3  A    between atoms: C3_9  and  N4_10
REMARK    4  A    between atoms: C4_13  and  N5_14
REMARK    5  A    between atoms: C7_20  and  O5_21
ROOT
HETATM    1  C2  UNL     1      -7.285 -31.859  11.445  1.00  0.00     0.115 A
HETATM    2  C3  UNL     1      -6.187 -31.065  11.453  1.00  0.00     0.170 A
HETATM    3  C4  UNL     1      -6.535 -29.777  11.181  1.00  0.00     0.183 A
HETATM    4  C5  UNL     1      -7.928 -29.794  10.998  1.00  0.00     0.159 A
HETATM    5  N6  UNL     1      -8.357 -31.045  11.160  1.00  0.00    -0.317 N
HETATM    6  C6  UNL     1      -9.742 -31.417  11.058  1.00  0.00     0.216 A
HETATM    7  C7  UNL     1     -10.647 -30.331  10.688  1.00  0.00     0.149 A
HETATM    8  N7  UNL     1     -10.174 -29.015  10.526  1.00  0.00    -0.281 N
ATOM      9  H7  UNL     1     -10.830 -28.268  10.296  1.00  0.00     0.189 HD
HETATM   10  N8  UNL     1      -8.826 -28.726  10.674  1.00  0.00    -0.281 N
ATOM     11  H8  UNL     1      -8.482 -27.774  10.556  1.00  0.00     0.188 HD
ENDROOT
BRANCH   1  12
HETATM   12  C1  UNL     1      -7.318 -33.296  11.689  1.00  0.00     0.160 C
HETATM   13  N2  UNL     1      -7.672 -34.082  10.715  1.00  0.00    -0.292 N
ATOM     14  H2  UNL     1      -7.915 -33.666   9.816  1.00  0.00     0.187 HD
HETATM   15  N3  UNL     1      -6.965 -33.775  12.967  1.00  0.00    -0.079 NA
BRANCH  13  16
HETATM   16  N1  UNL     1      -7.736 -35.472  10.847  1.00  0.00    -0.344 N
ATOM     17  H12 UNL     1      -7.064 -36.027  10.315  1.00  0.00     0.176 HD
ATOM     18  H11 UNL     1      -8.417 -35.942  11.444  1.00  0.00     0.176 HD
ENDBRANCH  13  16
ENDBRANCH   1  12
BRANCH   2  19
HETATM   19  N4  UNL     1      -4.815 -31.432  11.700  1.00  0.00    -0.110 N
HETATM   20  O1  UNL     1      -4.345 -31.598  12.836  1.00  0.00    -0.532 OA
HETATM   21  O2  UNL     1      -4.020 -31.592  10.595  1.00  0.00    -0.532 OA
ENDBRANCH   2  19
BRANCH   3  22
HETATM   22  N5  UNL     1      -5.697 -28.618  11.089  1.00  0.00    -0.109 N
HETATM   23  O3  UNL     1      -5.027 -28.264  12.058  1.00  0.00    -0.532 OA
HETATM   24  O4  UNL     1      -5.674 -27.928   9.892  1.00  0.00    -0.532 OA
ENDBRANCH   3  22
BRANCH   7  25
HETATM   25  O5  UNL     1     -11.912 -30.581  10.507  1.00  0.00    -0.347 OA
ATOM     26  H5  UNL     1     -12.564 -30.048  10.947  1.00  0.00     0.219 HD
ENDBRANCH   7  25
TORSDOF 5
ENDMDL