MODEL 1
REMARK VINA RESULT: -6.889731796      0.000      0.000
REMARK  5 active torsions:
REMARK  status: ('A' for Active; 'I' for Inactive)
REMARK    1  A    between atoms: C2_7  and  N3_8
REMARK    2  A    between atoms: N3_8  and  O1_10
REMARK    3  A    between atoms: N5_17  and  C6_18
REMARK    4  A    between atoms: C6_18  and  O2_19
REMARK    5  A    between atoms: O2_19  and  N6_20
ROOT
HETATM    1  N1  UNL     1     -14.799 -30.101  11.139  1.00  0.00    -0.384 N
ATOM      2  H11 UNL     1     -14.164 -30.865  11.371  1.00  0.00     0.157 HD
ATOM      3  H12 UNL     1     -15.796 -30.185  11.335  1.00  0.00     0.157 HD
HETATM    4  C1  UNL     1     -14.336 -29.040  10.601  1.00  0.00     0.127 A
HETATM    5  N2  UNL     1     -15.194 -28.007  10.289  1.00  0.00    -0.175 N
ATOM      6  H2  UNL     1     -16.190 -28.103  10.490  1.00  0.00     0.186 HD
HETATM    7  C2  UNL     1     -14.740 -26.886   9.728  1.00  0.00     0.705 A
HETATM    8  N4  UNL     1     -13.438 -26.745   9.457  1.00  0.00    -0.168 N
ATOM      9  H4  UNL     1     -13.099 -25.884   9.028  1.00  0.00     0.186 HD
HETATM   10  C3  UNL     1     -12.562 -27.747   9.754  1.00  0.00     0.169 A
HETATM   11  C4  UNL     1     -12.994 -28.927  10.337  1.00  0.00     0.066 A
HETATM   12  C5  UNL     1     -12.211 -30.098  10.716  1.00  0.00     0.322 C
HETATM   13  N5  UNL     1     -10.816 -30.013  10.333  1.00  0.00     0.120 N
HETATM   14  C7  UNL     1     -10.136 -28.906  10.960  1.00  0.00     0.302 C
HETATM   15  C8  UNL     1     -10.048 -27.698  10.046  1.00  0.00     0.207 C
HETATM   16  O5  UNL     1     -11.260 -27.417   9.401  1.00  0.00    -0.333 OA
ENDROOT
BRANCH  13  17
HETATM   17  C6  UNL     1     -10.182 -31.244  10.772  1.00  0.00     0.480 C
BRANCH  17  18
HETATM   18  O2  UNL     1      -9.468 -31.789   9.688  1.00  0.00    -0.191 OA
BRANCH  18  19
HETATM   19  N6  UNL     1      -8.366 -32.582   9.819  1.00  0.00     0.006 N
HETATM   20  O3  UNL     1      -7.319 -32.429   9.161  1.00  0.00    -0.511 OA
HETATM   21  O4  UNL     1      -8.414 -33.609  10.731  1.00  0.00    -0.511 OA
ENDBRANCH  18  19
ENDBRANCH  17  18
ENDBRANCH  13  17
BRANCH   7  22
HETATM   22  N3  UNL     1     -15.593 -25.942   9.454  1.00  0.00    -0.098 N
ATOM     23  H3  UNL     1     -16.324 -26.127   8.766  1.00  0.00     0.213 HD
BRANCH  22  24
HETATM   24  O1  UNL     1     -15.551 -24.725  10.042  1.00  0.00    -0.276 OA
ATOM     25  H1  UNL     1     -14.749 -24.221  10.123  1.00  0.00     0.245 HD
ENDBRANCH  22  24
ENDBRANCH   7  22
TORSDOF 5
ENDMDL