MODEL 5
REMARK VINA RESULT: -5.779729915      1.962      4.248
REMARK  4 active torsions:
REMARK  status: ('A' for Active; 'I' for Inactive)
REMARK    1  A    between atoms: N1_2  and  O1_3
REMARK    2  A    between atoms: N1_2  and  C2_7
REMARK    3  A    between atoms: O1_3  and  N2_4
REMARK    4  A    between atoms: C5_12  and  N5_13
ROOT
HETATM    1  C2  UNL     1       6.495  14.064  12.255  1.00  0.00     0.169 A
HETATM    2  C3  UNL     1       6.771  12.979  11.410  1.00  0.00     0.168 A
HETATM    3  N3  UNL     1       5.852  12.684  10.374  1.00  0.00    -0.079 NA
HETATM    4  N4  UNL     1       7.894  12.285  11.634  1.00  0.00    -0.172 N
HETATM    5  C4  UNL     1       8.211  11.150  10.773  1.00  0.00     0.177 C
HETATM    6  C5  UNL     1       8.711  12.636  12.642  1.00  0.00     0.682 A
HETATM    7  N6  UNL     1       8.463  13.661  13.450  1.00  0.00    -0.154 N
ATOM      8  H6  UNL     1       9.117  13.887  14.199  1.00  0.00     0.187 HD
HETATM    9  C6  UNL     1       7.335  14.415  13.280  1.00  0.00     0.292 A
HETATM   10  O2  UNL     1       7.148  15.377  14.076  1.00  0.00    -0.265 OA
ENDROOT
BRANCH   1  11
HETATM   11  N1  UNL     1       5.308  14.832  12.051  1.00  0.00    -0.230 N
HETATM   12  C1  UNL     1       4.021  14.479  12.599  1.00  0.00     0.188 C
BRANCH  11  13
HETATM   13  O1  UNL     1       5.365  15.961  11.305  1.00  0.00    -0.162 OA
BRANCH  13  14
HETATM   14  N2  UNL     1       5.235  17.062  12.080  1.00  0.00    -0.286 N
ATOM     15  H22 UNL     1       4.589  17.128  12.866  1.00  0.00     0.186 HD
ATOM     16  H21 UNL     1       5.865  17.804  11.772  1.00  0.00     0.186 HD
ENDBRANCH  13  14
ENDBRANCH  11  13
ENDBRANCH   1  11
BRANCH   6  17
HETATM   17  N5  UNL     1       9.787  11.946  12.832  1.00  0.00    -0.234 N
ATOM     18  H52 UNL     1      10.017  11.651  13.781  1.00  0.00     0.174 HD
ATOM     19  H51 UNL     1      10.369  11.722  12.024  1.00  0.00     0.174 HD
ENDBRANCH   6  17
TORSDOF 4
ENDMDL