MODEL 5
REMARK VINA RESULT: -7.000554129      0.747      2.190
REMARK  3 active torsions:
REMARK  status: ('A' for Active; 'I' for Inactive)
REMARK    1  A    between atoms: C4_8  and  S1_9
REMARK    2  A    between atoms: S1_9  and  N4_10
REMARK    3  A    between atoms: C5_17  and  N6_18
ROOT
HETATM    1  N1  UNL     1       4.388  16.811  11.172  1.00  0.00    -0.191 NA
HETATM    2  C1  UNL     1       4.996  15.872  11.518  1.00  0.00     0.106 C
HETATM    3  C2  UNL     1       5.755  14.719  11.919  1.00  0.00     0.129 A
HETATM    4  C3  UNL     1       6.665  14.771  12.969  1.00  0.00     0.143 A
HETATM    5  N2  UNL     1       6.814  16.026  13.632  1.00  0.00    -0.081 NA
HETATM    6  N3  UNL     1       7.381  13.704  13.355  1.00  0.00    -0.319 N
ATOM      7  H3  UNL     1       8.041  13.782  14.130  1.00  0.00     0.169 HD
HETATM    8  C4  UNL     1       7.228  12.544  12.724  1.00  0.00     0.226 A
HETATM    9  N5  UNL     1       6.357  12.460  11.707  1.00  0.00    -0.317 N
ATOM     10  H5  UNL     1       6.249  11.564  11.231  1.00  0.00     0.169 HD
HETATM   11  C5  UNL     1       5.625  13.497  11.290  1.00  0.00     0.125 A
ENDROOT
BRANCH  11  12
HETATM   12  N6  UNL     1       4.798  13.359  10.301  1.00  0.00    -0.384 N
ATOM     13  H62 UNL     1       4.197  14.134  10.022  1.00  0.00     0.157 HD
ATOM     14  H61 UNL     1       4.745  12.473   9.798  1.00  0.00     0.157 HD
ENDBRANCH  11  12
BRANCH   8  15
HETATM   15  S1  UNL     1       8.104  11.090  13.141  1.00  0.00     0.289 S
HETATM   16  O1  UNL     1       7.801  10.715  14.566  1.00  0.00    -0.198 OA
HETATM   17  O2  UNL     1       7.754   9.983  12.184  1.00  0.00    -0.198 OA
BRANCH  15  18
HETATM   18  N4  UNL     1       9.789  11.390  13.005  1.00  0.00    -0.322 N
ATOM     19  H42 UNL     1      10.212  12.317  12.973  1.00  0.00     0.169 HD
ATOM     20  H41 UNL     1      10.284  10.499  12.963  1.00  0.00     0.169 HD
ENDBRANCH  15  18
ENDBRANCH   8  15
TORSDOF 3
ENDMDL