MODEL 2
REMARK VINA RESULT: -6.572133797      1.249      1.689
REMARK  4 active torsions:
REMARK  status: ('A' for Active; 'I' for Inactive)
REMARK    1  A    between atoms: N4_9  and  C4_11
REMARK    2  A    between atoms: C4_11  and  C5_15
REMARK    3  A    between atoms: C5_15  and  N6_16
REMARK    4  A    between atoms: C5_15  and  N7_20
ROOT
HETATM    1  N1  UNL     1       3.905  14.958   8.158  1.00  0.00    -0.189 NA
HETATM    2  C1  UNL     1       4.542  14.252   8.817  1.00  0.00     0.127 C
HETATM    3  C2  UNL     1       5.322  13.356   9.661  1.00  0.00     0.173 A
HETATM    4  N2  UNL     1       6.614  13.070   9.591  1.00  0.00    -0.283 N
ATOM      5  H2  UNL     1       7.192  13.503   8.871  1.00  0.00     0.188 HD
HETATM    6  N3  UNL     1       7.134  12.257  10.417  1.00  0.00    -0.278 N
ATOM      7  H3  UNL     1       8.128  12.034  10.366  1.00  0.00     0.189 HD
HETATM    8  C3  UNL     1       6.366  11.699  11.353  1.00  0.00     0.167 A
HETATM    9  N4  UNL     1       6.688  10.846  12.294  1.00  0.00    -0.322 N
ATOM     10  H4  UNL     1       5.996  10.490  12.954  1.00  0.00     0.169 HD
HETATM   11  S1  UNL     1       4.835  12.400  10.991  1.00  0.00    -0.022 SA
ENDROOT
BRANCH   9  12
HETATM   12  C4  UNL     1       8.047  10.441  12.347  1.00  0.00     0.135 C
HETATM   13  N5  UNL     1       8.574   9.635  11.496  1.00  0.00    -0.386 N
ATOM     14  H52 UNL     1       8.002   9.260  10.740  1.00  0.00     0.157 HD
ATOM     15  H51 UNL     1       9.551   9.345  11.534  1.00  0.00     0.157 HD
BRANCH  12  16
HETATM   16  C5  UNL     1       8.877  10.986  13.444  1.00  0.00     0.444 C
BRANCH  16  17
HETATM   17  N6  UNL     1       8.011  11.621  14.413  1.00  0.00    -0.043 N
ATOM     18  H63 UNL     1       8.490  12.346  14.948  1.00  0.00     0.277 HD
ATOM     19  H62 UNL     1       7.304  12.213  13.976  1.00  0.00     0.277 HD
ATOM     20  H61 UNL     1       7.603  10.903  15.010  1.00  0.00     0.277 HD
ENDBRANCH  16  17
BRANCH  16  21
HETATM   21  N7  UNL     1       9.821  11.951  12.878  1.00  0.00    -0.043 N
ATOM     22  H73 UNL     1       9.495  12.913  12.965  1.00  0.00     0.277 HD
ATOM     23  H72 UNL     1      10.671  12.039  13.435  1.00  0.00     0.277 HD
ATOM     24  H71 UNL     1      10.012  11.688  11.912  1.00  0.00     0.277 HD
ENDBRANCH  16  21
ENDBRANCH  12  16
ENDBRANCH   9  12
TORSDOF 4
ENDMDL