MODEL 2
REMARK VINA RESULT: -7.069027128      1.744      2.055
REMARK  2 active torsions:
REMARK  status: ('A' for Active; 'I' for Inactive)
REMARK    1  A    between atoms: O1_2  and  C2_3
REMARK    2  A    between atoms: C5_15  and  N5_16
ROOT
HETATM    1  C2  UNL     1       6.521  13.984  12.260  1.00  0.00     0.188 A
HETATM    2  N1  UNL     1       5.372  13.370  12.552  1.00  0.00    -0.263 N
ATOM      3  H1  UNL     1       4.578  13.936  12.852  1.00  0.00     0.190 HD
HETATM    4  N2  UNL     1       5.221  12.058  12.467  1.00  0.00    -0.240 N
ATOM      5  H2  UNL     1       4.313  11.658  12.706  1.00  0.00     0.208 HD
HETATM    6  N3  UNL     1       6.189  11.239  12.087  1.00  0.00    -0.279 N
ATOM      7  H3  UNL     1       6.048  10.230  12.028  1.00  0.00     0.189 HD
HETATM    8  C3  UNL     1       7.380  11.814  11.779  1.00  0.00     0.149 A
HETATM    9  C4  UNL     1       8.451  11.036  11.372  1.00  0.00     0.290 A
HETATM   10  O2  UNL     1       8.327   9.785  11.285  1.00  0.00    -0.265 OA
HETATM   11  N4  UNL     1       9.612  11.639  11.074  1.00  0.00    -0.154 N
ATOM     12  H4  UNL     1      10.398  11.062  10.774  1.00  0.00     0.187 HD
HETATM   13  C5  UNL     1       9.783  12.970  11.155  1.00  0.00     0.679 A
HETATM   14  N6  UNL     1       8.760  13.752  11.548  1.00  0.00    -0.185 N
ATOM     15  H6  UNL     1       8.878  14.763  11.612  1.00  0.00     0.184 HD
HETATM   16  C6  UNL     1       7.576  13.181  11.856  1.00  0.00     0.135 A
ENDROOT
BRANCH  13  17
HETATM   17  N5  UNL     1      10.905  13.555  10.869  1.00  0.00    -0.234 N
ATOM     18  H52 UNL     1      10.877  14.558  10.683  1.00  0.00     0.174 HD
ATOM     19  H51 UNL     1      11.794  13.057  10.825  1.00  0.00     0.174 HD
ENDBRANCH  13  17
BRANCH   1  20
HETATM   20  O1  UNL     1       6.718  15.356  12.336  1.00  0.00    -0.338 OA
HETATM   21  C1  UNL     1       6.711  15.914  13.638  1.00  0.00     0.211 C
ENDBRANCH   1  20
TORSDOF 2
ENDMDL