MODEL 1
REMARK VINA RESULT: -6.869354856      0.000      0.000
REMARK  1 active torsions:
REMARK  status: ('A' for Active; 'I' for Inactive)
REMARK    1  A    between atoms: N1_1  and  C1_4
ROOT
HETATM    1  C1  UNL     1       9.654  13.052  11.285  1.00  0.00     0.680 A
HETATM    2  N2  UNL     1       9.414  12.500  12.483  1.00  0.00    -0.154 N
ATOM      3  H2  UNL     1      10.184  12.368  13.139  1.00  0.00     0.187 HD
HETATM    4  C2  UNL     1       8.171  12.116  12.835  1.00  0.00     0.290 A
HETATM    5  O1  UNL     1       7.998  11.602  13.973  1.00  0.00    -0.265 OA
HETATM    6  C3  UNL     1       7.110  12.291  11.947  1.00  0.00     0.153 A
HETATM    7  N3  UNL     1       5.920  11.875  12.397  1.00  0.00    -0.316 N
ATOM      8  H3  UNL     1       5.795  11.460  13.320  1.00  0.00     0.175 HD
HETATM    9  S1  UNL     1       4.640  12.091  11.308  1.00  0.00     0.023 SA
HETATM   10  C4  UNL     1       5.156  12.809   9.840  1.00  0.00     0.160 A
HETATM   11  N4  UNL     1       4.318  13.053   8.888  1.00  0.00    -0.379 N
ATOM     12  H41 UNL     1       4.625  13.480   8.014  1.00  0.00     0.158 HD
ATOM     13  H42 UNL     1       3.321  12.844   8.935  1.00  0.00     0.158 HD
HETATM   14  N5  UNL     1       6.450  13.080   9.779  1.00  0.00    -0.320 N
ATOM     15  H5  UNL     1       6.786  13.507   8.916  1.00  0.00     0.169 HD
HETATM   16  C5  UNL     1       7.369  12.852  10.733  1.00  0.00     0.156 A
HETATM   17  N6  UNL     1       8.645  13.227  10.418  1.00  0.00    -0.174 N
ATOM     18  H6  UNL     1       8.834  13.647   9.507  1.00  0.00     0.186 HD
ENDROOT
BRANCH   1  19
HETATM   19  N1  UNL     1      10.846  13.421  10.945  1.00  0.00    -0.234 N
ATOM     20  H12 UNL     1      11.389  12.827  10.319  1.00  0.00     0.174 HD
ATOM     21  H11 UNL     1      11.249  14.291  11.292  1.00  0.00     0.174 HD
ENDBRANCH   1  19
TORSDOF 1
ENDMDL