MODEL 3
REMARK VINA RESULT: -6.889904842      2.117      2.877
REMARK  3 active torsions:
REMARK  status: ('A' for Active; 'I' for Inactive)
REMARK    1  A    between atoms: N1_1  and  C1_4
REMARK    2  A    between atoms: C4_11  and  C5_12
REMARK       I    between atoms: C5_12  and  N4_14
REMARK    3  A    between atoms: N4_14  and  N5_16
ROOT
HETATM    1  C1  UNL     1       6.262  12.314  12.139  1.00  0.00     0.132 A
HETATM    2  N2  UNL     1       6.651  11.163  11.593  1.00  0.00    -0.283 N
ATOM      3  H2  UNL     1       5.969  10.407  11.545  1.00  0.00     0.188 HD
HETATM    4  N3  UNL     1       7.863  10.932  11.107  1.00  0.00    -0.276 N
ATOM      5  H3  UNL     1       8.092  10.024  10.703  1.00  0.00     0.189 HD
HETATM    6  C2  UNL     1       8.786  11.907  11.152  1.00  0.00     0.194 A
HETATM    7  C3  UNL     1       8.418  13.129  11.716  1.00  0.00     0.143 A
HETATM    8  C4  UNL     1       7.163  13.382  12.226  1.00  0.00     0.116 A
HETATM    9  O2  UNL     1       9.564  13.891  11.611  1.00  0.00    -0.320 OA
HETATM   10  C6  UNL     1      10.445  13.341  10.642  1.00  0.00     0.354 C
HETATM   11  O3  UNL     1      10.114  11.964  10.732  1.00  0.00    -0.306 OA
ENDROOT
BRANCH   8  12
HETATM   12  C5  UNL     1       6.773  14.646  12.811  1.00  0.00     0.276 C
HETATM   13  O1  UNL     1       6.088  15.429  12.073  1.00  0.00    -0.266 OA
HETATM   14  N4  UNL     1       7.064  15.107  14.105  1.00  0.00    -0.272 N
ATOM     15  H4  UNL     1       7.610  14.509  14.724  1.00  0.00     0.189 HD
BRANCH  14  16
HETATM   16  N5  UNL     1       6.639  16.352  14.583  1.00  0.00    -0.342 N
ATOM     17  H52 UNL     1       7.000  16.658  15.487  1.00  0.00     0.176 HD
ATOM     18  H51 UNL     1       5.994  16.954  14.070  1.00  0.00     0.176 HD
ENDBRANCH  14  16
ENDBRANCH   8  12
BRANCH   1  19
HETATM   19  N1  UNL     1       5.071  12.439  12.580  1.00  0.00    -0.384 N
ATOM     20  H12 UNL     1       4.457  11.626  12.643  1.00  0.00     0.157 HD
ATOM     21  H11 UNL     1       4.730  13.355  12.872  1.00  0.00     0.157 HD
ENDBRANCH   1  19
TORSDOF 3
ENDMDL