MODEL 5
REMARK VINA RESULT: -6.987982960      2.681      4.965
REMARK  2 active torsions:
REMARK  status: ('A' for Active; 'I' for Inactive)
REMARK    1  A    between atoms: N1_1  and  C1_4
REMARK    2  A    between atoms: C4_13  and  C5_14
ROOT
HETATM    1  C1  UNL     1       5.122  12.178   8.178  1.00  0.00     0.679 A
HETATM    2  N2  UNL     1       4.202  13.154   8.278  1.00  0.00    -0.154 N
ATOM      3  H2  UNL     1       3.729  13.516   7.450  1.00  0.00     0.187 HD
HETATM    4  C2  UNL     1       3.925  13.640   9.501  1.00  0.00     0.298 A
HETATM    5  O1  UNL     1       3.083  14.543   9.651  1.00  0.00    -0.264 OA
HETATM    6  C3  UNL     1       4.552  13.170  10.653  1.00  0.00     0.196 A
HETATM    7  O2  UNL     1       4.487  13.441  11.921  1.00  0.00    -0.229 OA
HETATM    8  N3  UNL     1       5.295  12.710  12.622  1.00  0.00    -0.253 N
ATOM      9  H3  UNL     1       5.410  12.753  13.635  1.00  0.00     0.195 HD
HETATM   10  C4  UNL     1       5.956  11.886  11.791  1.00  0.00     0.149 A
HETATM   11  C6  UNL     1       5.484  12.174  10.511  1.00  0.00     0.124 A
HETATM   12  N5  UNL     1       5.746  11.705   9.293  1.00  0.00    -0.186 N
ATOM     13  H5  UNL     1       6.440  10.964   9.191  1.00  0.00     0.184 HD
ENDROOT
BRANCH   1  14
HETATM   14  N1  UNL     1       5.384  11.717   7.005  1.00  0.00    -0.234 N
ATOM     15  H12 UNL     1       6.135  12.100   6.430  1.00  0.00     0.174 HD
ATOM     16  H11 UNL     1       4.813  10.946   6.658  1.00  0.00     0.174 HD
ENDBRANCH   1  14
BRANCH  10  17
HETATM   17  C5  UNL     1       6.972  10.881  12.137  1.00  0.00     0.285 C
HETATM   18  N4  UNL     1       6.989  10.415  13.482  1.00  0.00    -0.056 NA
HETATM   19  O3  UNL     1       7.776  10.462  11.289  1.00  0.00    -0.269 OA
ENDBRANCH  10  17
TORSDOF 2
ENDMDL