MODEL 3
REMARK VINA RESULT: -7.303476069      2.893      3.370
REMARK  2 active torsions:
REMARK  status: ('A' for Active; 'I' for Inactive)
REMARK    1  A    between atoms: C1_2  and  C2_4
REMARK    2  A    between atoms: N4_11  and  C4_13
ROOT
HETATM    1  C2  UNL     1       7.547  12.425  13.006  1.00  0.00     0.167 A
HETATM    2  N2  UNL     1       8.153  13.407  13.693  1.00  0.00    -0.233 N
ATOM      3  H2  UNL     1       8.744  13.281  14.514  1.00  0.00     0.197 HD
HETATM    4  O2  UNL     1       7.862  14.533  13.141  1.00  0.00    -0.155 OA
HETATM    5  N3  UNL     1       7.088  14.389  12.109  1.00  0.00    -0.223 N
ATOM      6  H3  UNL     1       6.721  15.127  11.508  1.00  0.00     0.198 HD
HETATM    7  C3  UNL     1       6.869  13.068  11.997  1.00  0.00     0.163 A
HETATM    8  N4  UNL     1       6.155  12.476  11.107  1.00  0.00    -0.328 N
ATOM      9  H4  UNL     1       6.071  11.460  11.133  1.00  0.00     0.169 HD
ENDROOT
BRANCH   1  10
HETATM   10  C1  UNL     1       7.633  11.008  13.321  1.00  0.00     0.287 C
HETATM   11  N1  UNL     1       7.533  10.004  12.313  1.00  0.00    -0.056 NA
HETATM   12  O1  UNL     1       7.800  10.635  14.505  1.00  0.00    -0.269 OA
ENDBRANCH   1  10
BRANCH   8  13
HETATM   13  C4  UNL     1       5.477  13.201  10.085  1.00  0.00     0.095 C
HETATM   14  N5  UNL     1       5.996  13.661   8.998  1.00  0.00    -0.293 N
HETATM   15  N6  UNL     1       5.039  14.323   8.222  1.00  0.00    -0.140 NA
ATOM     16  H5  UNL     1       6.977  13.556   8.737  1.00  0.00     0.183 HD
HETATM   17  C5  UNL     1       3.763  13.761   8.623  1.00  0.00     0.142 C
HETATM   18  C6  UNL     1       4.014  13.550  10.122  1.00  0.00     0.095 C
ENDBRANCH   8  13
TORSDOF 2
ENDMDL