MODEL 1
REMARK VINA RESULT: -7.567842109      0.000      0.000
REMARK  2 active torsions:
REMARK  status: ('A' for Active; 'I' for Inactive)
REMARK    1  A    between atoms: C5_10  and  O2_11
REMARK    2  A    between atoms: C6_13  and  C7_14
ROOT
HETATM    1  N1  UNL     1       6.353  14.200   9.342  1.00  0.00    -0.191 NA
HETATM    2  C1  UNL     1       6.714  13.559  10.243  1.00  0.00     0.104 C
HETATM    3  C2  UNL     1       7.124  12.771  11.347  1.00  0.00     0.104 A
HETATM    4  C3  UNL     1       6.106  12.166  12.095  1.00  0.00     0.141 A
HETATM    5  N2  UNL     1       4.749  12.337  11.761  1.00  0.00    -0.081 NA
HETATM    6  N3  UNL     1       6.430  11.406  13.154  1.00  0.00    -0.308 N
ATOM      7  H3  UNL     1       5.697  10.961  13.705  1.00  0.00     0.170 HD
HETATM    8  C4  UNL     1       7.718  11.232  13.488  1.00  0.00     0.281 A
HETATM    9  O1  UNL     1       7.996  10.512  14.490  1.00  0.00    -0.265 OA
HETATM   10  C5  UNL     1       8.739  11.823  12.761  1.00  0.00     0.151 A
HETATM   11  C6  UNL     1       8.446  12.622  11.649  1.00  0.00     0.092 A
ENDROOT
BRANCH  11  12
HETATM   12  C7  UNL     1       9.525  13.242  10.885  1.00  0.00     0.269 C
HETATM   13  N4  UNL     1      10.438  12.575  10.056  1.00  0.00    -0.057 NA
HETATM   14  O3  UNL     1       9.689  14.516  10.947  1.00  0.00    -0.271 OA
ENDBRANCH  11  12
BRANCH  10  15
HETATM   15  O2  UNL     1      10.041  11.634  13.116  1.00  0.00    -0.355 OA
ATOM     16  H2  UNL     1      10.710  11.513  12.452  1.00  0.00     0.218 HD
ENDBRANCH  10  15
TORSDOF 2
ENDMDL