MODEL 2
REMARK VINA RESULT: -6.358718984      2.976      4.302
REMARK  3 active torsions:
REMARK  status: ('A' for Active; 'I' for Inactive)
REMARK    1  A    between atoms: N1_1  and  N2_4
REMARK    2  A    between atoms: N2_4  and  C1_6
REMARK    3  A    between atoms: C2_9  and  C3_10
ROOT
HETATM    1  C1  UNL     1       6.863  14.718  13.103  1.00  0.00     0.167 A
HETATM    2  N3  UNL     1       7.538  13.610  13.439  1.00  0.00    -0.330 N
ATOM      3  H3  UNL     1       8.314  13.731  14.090  1.00  0.00     0.168 HD
HETATM    4  C2  UNL     1       7.307  12.365  13.017  1.00  0.00     0.129 A
HETATM    5  C4  UNL     1       6.317  11.972  12.143  1.00  0.00     0.135 A
HETATM    6  N5  UNL     1       6.181  10.602  11.775  1.00  0.00    -0.095 NA
HETATM    7  C5  UNL     1       5.397  12.836  11.564  1.00  0.00     0.243 A
HETATM    8  O2  UNL     1       4.535  12.374  10.779  1.00  0.00    -0.278 OA
HETATM    9  S1  UNL     1       5.571  14.476  12.014  1.00  0.00    -0.009 SA
ENDROOT
BRANCH   1  10
HETATM   10  N2  UNL     1       7.188  15.883  13.587  1.00  0.00    -0.286 N
ATOM     11  H2  UNL     1       7.629  16.599  13.010  1.00  0.00     0.188 HD
BRANCH  10  12
HETATM   12  N1  UNL     1       6.899  16.101  14.952  1.00  0.00    -0.343 N
ATOM     13  H12 UNL     1       6.288  15.466  15.464  1.00  0.00     0.176 HD
ATOM     14  H11 UNL     1       7.332  16.918  15.383  1.00  0.00     0.176 HD
ENDBRANCH  10  12
ENDBRANCH   1  10
BRANCH   4  15
HETATM   15  C3  UNL     1       8.189  11.290  13.527  1.00  0.00     0.283 C
HETATM   16  N4  UNL     1       9.399  10.962  12.888  1.00  0.00    -0.056 NA
HETATM   17  O1  UNL     1       7.854  10.664  14.542  1.00  0.00    -0.269 OA
ENDBRANCH   4  15
TORSDOF 3
ENDMDL