MODEL 4
REMARK VINA RESULT: -5.100591999      1.683      2.484
REMARK  4 active torsions:
REMARK  status: ('A' for Active; 'I' for Inactive)
REMARK    1  A    between atoms: C2_2  and  N1_3
REMARK    2  A    between atoms: C2_2  and  S1_10
REMARK    3  A    between atoms: N1_3  and  N2_5
REMARK    4  A    between atoms: S1_10  and  N5_11
ROOT
HETATM    1  N1  UNL     1       8.476  12.951  13.349  1.00  0.00    -0.295 N
ATOM      2  H1  UNL     1       8.301  13.147  14.335  1.00  0.00     0.187 HD
ENDROOT
BRANCH   1   3
HETATM    3  C2  UNL     1       8.298  13.976  12.380  1.00  0.00     0.078 C
HETATM    4  C1  UNL     1       9.349  14.112  11.344  1.00  0.00     0.079 C
BRANCH   3   5
HETATM    5  S1  UNL     1       6.982  14.933  12.444  1.00  0.00    -0.007 SA
BRANCH   5   6
HETATM    6  N5  UNL     1       5.416  14.178  12.807  1.00  0.00    -0.369 N
ATOM      7  H52 UNL     1       5.222  13.832  13.747  1.00  0.00     0.164 HD
ATOM      8  H51 UNL     1       4.732  14.105  12.054  1.00  0.00     0.164 HD
ENDBRANCH   5   6
ENDBRANCH   3   5
ENDBRANCH   1   3
BRANCH   1   9
HETATM    9  N2  UNL     1       8.888  11.680  12.955  1.00  0.00    -0.275 N
HETATM   10  C3  UNL     1       8.100  10.863  12.379  1.00  0.00     0.215 C
HETATM   11  N3  UNL     1       6.757  11.248  12.125  1.00  0.00    -0.065 NA
HETATM   12  N4  UNL     1       8.569   9.590  12.001  1.00  0.00    -0.065 NA
ATOM     13  H2  UNL     1       9.851  11.396  13.132  1.00  0.00     0.189 HD
ENDBRANCH   1   9
TORSDOF 4
ENDMDL