MODEL 2
REMARK VINA RESULT: -6.509588727      0.064      1.123
REMARK  1 active torsions:
REMARK  status: ('A' for Active; 'I' for Inactive)
REMARK       I    between atoms: C2_4  and  N3_6
REMARK    1  A    between atoms: N3_6  and  C3_8
ROOT
HETATM    1  C3  UNL     1       7.544  12.705  12.464  1.00  0.00     0.716 A
HETATM    2  N4  UNL     1       6.886  11.537  12.386  1.00  0.00    -0.115 N
ATOM      3  H4  UNL     1       6.090  11.333  11.782  1.00  0.00     0.207 HD
HETATM    4  N5  UNL     1       7.465  10.688  13.248  1.00  0.00    -0.213 N
ATOM      5  H5  UNL     1       7.172   9.723  13.404  1.00  0.00     0.210 HD
HETATM    6  N6  UNL     1       8.462  11.279  13.862  1.00  0.00    -0.213 N
ATOM      7  H6  UNL     1       9.077  10.873  14.566  1.00  0.00     0.210 HD
HETATM    8  N7  UNL     1       8.506  12.513  13.380  1.00  0.00    -0.115 N
ATOM      9  H7  UNL     1       9.182  13.221  13.667  1.00  0.00     0.207 HD
ENDROOT
BRANCH   1  10
HETATM   10  N3  UNL     1       7.336  13.813  11.815  1.00  0.00    -0.161 N
HETATM   11  C2  UNL     1       6.479  14.820  12.279  1.00  0.00     0.202 C
HETATM   12  N1  UNL     1       6.292  15.002  13.528  1.00  0.00    -0.368 N
HETATM   13  N2  UNL     1       5.821  15.636  11.310  1.00  0.00    -0.063 NA
HETATM   14  C1  UNL     1       5.444  15.993  14.112  1.00  0.00     0.148 C
ATOM     15  H1  UNL     1       6.793  14.386  14.167  1.00  0.00     0.161 HD
ATOM     16  H3  UNL     1       7.819  13.956  10.928  1.00  0.00     0.187 HD
ENDBRANCH   1  10
TORSDOF 1
ENDMDL