MODEL 1
REMARK VINA RESULT: -6.077349793      0.000      0.000
REMARK  1 active torsions:
REMARK  status: ('A' for Active; 'I' for Inactive)
REMARK    1  A    between atoms: N1_2  and  C2_4
ROOT
HETATM    1  C2  UNL     1       7.572  13.892  12.613  1.00  0.00     0.185 A
HETATM    2  N2  UNL     1       8.433  13.161  13.345  1.00  0.00    -0.277 N
ATOM      3  H2  UNL     1       9.146  13.633  13.902  1.00  0.00     0.189 HD
HETATM    4  N3  UNL     1       8.368  11.838  13.350  1.00  0.00    -0.250 N
ATOM      5  H3  UNL     1       9.040  11.324  13.919  1.00  0.00     0.192 HD
HETATM    6  C3  UNL     1       7.463  11.136  12.646  1.00  0.00     0.341 A
HETATM    7  O1  UNL     1       7.432   9.860  12.676  1.00  0.00    -0.245 OA
HETATM    8  N4  UNL     1       6.584  11.831  11.902  1.00  0.00    -0.271 N
ATOM      9  H4  UNL     1       5.880  11.339  11.352  1.00  0.00     0.174 HD
HETATM   10  C4  UNL     1       6.635  13.189  11.883  1.00  0.00     0.294 A
HETATM   11  O2  UNL     1       5.808  13.824  11.184  1.00  0.00    -0.264 OA
ENDROOT
BRANCH   1  12
HETATM   12  N1  UNL     1       7.634  15.182  12.607  1.00  0.00    -0.375 N
HETATM   13  C1  UNL     1       6.976  15.918  13.669  1.00  0.00     0.148 C
ATOM     14  H1  UNL     1       8.137  15.674  11.869  1.00  0.00     0.160 HD
ENDBRANCH   1  12
TORSDOF 1
ENDMDL