MODEL 1
REMARK VINA RESULT: -5.902982369      0.000      0.000
REMARK  2 active torsions:
REMARK  status: ('A' for Active; 'I' for Inactive)
REMARK    1  A    between atoms: N3_4  and  N4_6
REMARK    2  A    between atoms: N4_6  and  C2_8
ROOT
HETATM    1  C2  UNL     1       6.654  11.948  11.135  1.00  0.00     0.153 A
HETATM    2  C3  UNL     1       5.441  12.023  10.521  1.00  0.00     0.159 A
HETATM    3  N5  UNL     1       4.619  12.672  11.364  1.00  0.00    -0.294 N
ATOM      4  H5  UNL     1       3.636  12.892  11.204  1.00  0.00     0.187 HD
HETATM    5  N6  UNL     1       5.322  12.965  12.429  1.00  0.00    -0.241 N
ATOM      6  H6  UNL     1       4.948  13.463  13.238  1.00  0.00     0.208 HD
HETATM    7  N7  UNL     1       6.563  12.545  12.335  1.00  0.00    -0.269 N
ATOM      8  H7  UNL     1       7.303  12.651  13.028  1.00  0.00     0.190 HD
ENDROOT
BRANCH   1   9
HETATM    9  N4  UNL     1       7.764  11.415  10.717  1.00  0.00    -0.281 N
ATOM     10  H4  UNL     1       7.882  10.404  10.657  1.00  0.00     0.188 HD
BRANCH   9  11
HETATM   11  N3  UNL     1       8.782  12.290  10.356  1.00  0.00    -0.274 N
HETATM   12  C1  UNL     1       9.810  12.393  11.109  1.00  0.00     0.215 C
HETATM   13  N1  UNL     1      10.866  13.294  10.745  1.00  0.00    -0.065 NA
HETATM   14  N2  UNL     1       9.868  11.609  12.284  1.00  0.00    -0.065 NA
ATOM     15  H3  UNL     1       8.710  12.841   9.501  1.00  0.00     0.189 HD
ENDBRANCH   9  11
ENDBRANCH   1   9
TORSDOF 2
ENDMDL