MODEL 1
REMARK VINA RESULT: -5.898215306      0.000      0.000
REMARK  2 active torsions:
REMARK  status: ('A' for Active; 'I' for Inactive)
REMARK       I    between atoms: C1_4  and  N3_6
REMARK    1  A    between atoms: N3_6  and  C2_8
REMARK    2  A    between atoms: N5_12  and  O1_13
ROOT
HETATM    1  C2  UNL     1       6.921  11.897  10.421  1.00  0.00     0.702 A
HETATM    2  N4  UNL     1       8.218  11.584  10.356  1.00  0.00    -0.182 N
ATOM      3  H4  UNL     1       8.825  11.781   9.561  1.00  0.00     0.185 HD
HETATM    4  C3  UNL     1       8.613  10.967  11.498  1.00  0.00     0.251 A
HETATM    5  N5  UNL     1       7.521  10.905  12.273  1.00  0.00    -0.144 N
HETATM    6  N6  UNL     1       6.491  11.471  11.618  1.00  0.00    -0.104 N
ATOM      7  H6  UNL     1       5.539  11.561  11.974  1.00  0.00     0.208 HD
ENDROOT
BRANCH   1   8
HETATM    8  N3  UNL     1       6.183  12.482   9.552  1.00  0.00    -0.162 N
HETATM    9  C1  UNL     1       6.047  13.878   9.423  1.00  0.00     0.200 C
HETATM   10  N1  UNL     1       5.805  14.692  10.391  1.00  0.00    -0.373 N
HETATM   11  N2  UNL     1       6.189  14.425   8.130  1.00  0.00    -0.063 NA
ATOM     12  H12 UNL     1       5.707  15.703  10.298  1.00  0.00     0.158 HD
ATOM     13  H11 UNL     1       5.702  14.297  11.326  1.00  0.00     0.158 HD
ATOM     14  H3  UNL     1       5.654  11.894   8.908  1.00  0.00     0.187 HD
ENDBRANCH   1   8
BRANCH   5  15
HETATM   15  O1  UNL     1       7.479  10.347  13.542  1.00  0.00    -0.267 OA
ATOM     16  H1  UNL     1       6.847  10.574  14.215  1.00  0.00     0.247 HD
ENDBRANCH   5  15
TORSDOF 2
ENDMDL