MODEL 4
REMARK VINA RESULT: -5.917944175      2.747      4.275
REMARK  2 active torsions:
REMARK  status: ('A' for Active; 'I' for Inactive)
REMARK    1  A    between atoms: N2_5  and  N3_7
REMARK       I    between atoms: N3_7  and  C4_9
REMARK       I    between atoms: C4_9  and  N4_11
REMARK    2  A    between atoms: N4_11  and  N5_13
ROOT
HETATM    1  C1  UNL     1       5.661  16.095  11.970  1.00  0.00     0.020 C
HETATM    2  C2  UNL     1       5.848  15.324  11.068  1.00  0.00    -0.043 C
HETATM    3  C3  UNL     1       6.055  14.408   9.989  1.00  0.00     0.184 C
HETATM    4  N1  UNL     1       5.253  14.529   8.825  1.00  0.00    -0.071 NA
HETATM    5  N2  UNL     1       6.948  13.486  10.057  1.00  0.00    -0.277 N
ATOM      6  H2  UNL     1       7.086  12.839   9.281  1.00  0.00     0.189 HD
ENDROOT
BRANCH   5   7
HETATM    7  N3  UNL     1       7.722  13.385  11.209  1.00  0.00    -0.248 N
HETATM    8  C4  UNL     1       7.617  12.268  12.070  1.00  0.00     0.352 C
HETATM    9  O1  UNL     1       6.804  11.331  11.804  1.00  0.00    -0.244 OA
HETATM   10  N4  UNL     1       8.399  12.159  13.238  1.00  0.00    -0.257 N
ATOM     11  H4  UNL     1       9.050  12.916  13.448  1.00  0.00     0.191 HD
ATOM     12  H3  UNL     1       8.379  14.132  11.436  1.00  0.00     0.192 HD
BRANCH  10  13
HETATM   13  N5  UNL     1       8.342  11.093  14.122  1.00  0.00    -0.341 N
ATOM     14  H52 UNL     1       8.527  11.300  15.103  1.00  0.00     0.177 HD
ATOM     15  H51 UNL     1       8.129  10.132  13.853  1.00  0.00     0.177 HD
ENDBRANCH  10  13
ENDBRANCH   5   7
TORSDOF 2
ENDMDL