MODEL 5
REMARK VINA RESULT: -5.490172403      2.261      4.494
REMARK  2 active torsions:
REMARK  status: ('A' for Active; 'I' for Inactive)
REMARK    1  A    between atoms: N1_1  and  N2_4
REMARK       I    between atoms: N2_4  and  C1_6
REMARK    2  A    between atoms: C1_6  and  C2_8
REMARK       I    between atoms: C2_8  and  N3_10
REMARK       I    between atoms: N3_10  and  C3_12
ROOT
HETATM    1  N2  UNL     1       6.031  12.699   8.961  1.00  0.00    -0.268 N
ATOM      2  H2  UNL     1       6.864  12.936   8.423  1.00  0.00     0.190 HD
HETATM    3  C1  UNL     1       6.159  12.116  10.240  1.00  0.00     0.327 C
HETATM    4  O1  UNL     1       5.134  11.834  10.879  1.00  0.00    -0.261 OA
ENDROOT
BRANCH   3   5
HETATM    5  C2  UNL     1       7.465  11.839  10.821  1.00  0.00     0.318 C
HETATM    6  O2  UNL     1       7.593  10.840  11.564  1.00  0.00    -0.262 OA
HETATM    7  N3  UNL     1       8.580  12.699  10.541  1.00  0.00    -0.273 N
HETATM    8  C3  UNL     1       9.860  12.479  11.074  1.00  0.00     0.335 C
ATOM      9  H3  UNL     1       8.436  13.503   9.929  1.00  0.00     0.173 HD
HETATM   10  N4  UNL     1      10.902  13.379  10.744  1.00  0.00    -0.040 NA
HETATM   11  O3  UNL     1      10.058  11.487  11.833  1.00  0.00    -0.251 OA
ENDBRANCH   3   5
BRANCH   1  12
HETATM   12  N1  UNL     1       4.771  12.950   8.438  1.00  0.00    -0.342 N
ATOM     13  H12 UNL     1       4.693  13.412   7.532  1.00  0.00     0.176 HD
ATOM     14  H11 UNL     1       3.939  12.673   8.960  1.00  0.00     0.176 HD
ENDBRANCH   1  12
TORSDOF 2
ENDMDL