MODEL 3
REMARK VINA RESULT: -5.921887179      1.365      1.365
REMARK  1 active torsions:
REMARK  status: ('A' for Active; 'I' for Inactive)
REMARK       I    between atoms: C2_3  and  N2_5
REMARK    1  A    between atoms: N2_5  and  N3_7
REMARK       I    between atoms: C3_9  and  N5_11
ROOT
HETATM    1  N1  UNL     1       3.600  13.726   8.700  1.00  0.00    -0.186 NA
HETATM    2  C1  UNL     1       4.087  13.341   9.685  1.00  0.00     0.163 C
HETATM    3  C2  UNL     1       4.707  12.854  10.888  1.00  0.00     0.340 C
HETATM    4  O1  UNL     1       3.977  12.788  11.910  1.00  0.00    -0.254 OA
HETATM    5  N2  UNL     1       6.053  12.469  10.939  1.00  0.00    -0.255 N
ATOM      6  H2  UNL     1       6.630  12.530  10.100  1.00  0.00     0.191 HD
ENDROOT
BRANCH   5   7
HETATM    7  N3  UNL     1       6.606  12.007  12.121  1.00  0.00    -0.269 N
HETATM    8  C3  UNL     1       7.613  11.227  12.204  1.00  0.00     0.221 C
HETATM    9  N4  UNL     1       8.248  10.772  11.028  1.00  0.00    -0.061 NA
HETATM   10  N5  UNL     1       8.099  10.814  13.453  1.00  0.00    -0.279 N
HETATM   11  N6  UNL     1       9.317  10.526  13.572  1.00  0.00    -0.343 N
ATOM     12  H5  UNL     1       7.472  10.748  14.255  1.00  0.00     0.189 HD
ATOM     13  H62 UNL     1       9.932  10.597  12.760  1.00  0.00     0.176 HD
ATOM     14  H61 UNL     1       9.671  10.225  14.480  1.00  0.00     0.176 HD
ATOM     15  H3  UNL     1       6.175  12.314  12.994  1.00  0.00     0.190 HD
ENDBRANCH   5   7
TORSDOF 1
ENDMDL