MODEL 3
REMARK VINA RESULT: -6.381644957      2.501      4.217
REMARK  2 active torsions:
REMARK  status: ('A' for Active; 'I' for Inactive)
REMARK       I    between atoms: N1_1  and  C1_4
REMARK       I    between atoms: C1_4  and  N3_6
REMARK    1  A    between atoms: N3_6  and  C2_8
REMARK    2  A    between atoms: N6_15  and  N7_16
ROOT
HETATM    1  C2  UNL     1       7.630  13.094  12.504  1.00  0.00     0.724 A
HETATM    2  N4  UNL     1       8.562  12.722  13.399  1.00  0.00    -0.126 N
ATOM      3  H4  UNL     1       9.166  13.357  13.921  1.00  0.00     0.206 HD
HETATM    4  N5  UNL     1       8.571  11.402  13.496  1.00  0.00    -0.235 N
ATOM      5  H5  UNL     1       9.184  10.860  14.105  1.00  0.00     0.192 HD
HETATM    6  C3  UNL     1       7.643  10.886  12.662  1.00  0.00     0.375 A
HETATM    7  O1  UNL     1       7.383   9.654  12.500  1.00  0.00    -0.243 OA
HETATM    8  N6  UNL     1       7.078  11.947  12.064  1.00  0.00    -0.035 N
ENDROOT
BRANCH   1   9
HETATM    9  N3  UNL     1       7.317  14.307  12.132  1.00  0.00    -0.161 N
HETATM   10  C1  UNL     1       6.105  14.864  12.606  1.00  0.00     0.200 C
HETATM   11  N1  UNL     1       6.029  15.190  13.846  1.00  0.00    -0.373 N
HETATM   12  N2  UNL     1       5.019  15.046  11.719  1.00  0.00    -0.063 NA
ATOM     13  H12 UNL     1       5.156  15.591  14.187  1.00  0.00     0.158 HD
ATOM     14  H11 UNL     1       6.813  15.059  14.485  1.00  0.00     0.158 HD
ATOM     15  H3  UNL     1       7.932  14.839  11.515  1.00  0.00     0.187 HD
ENDBRANCH   1   9
BRANCH   8  16
HETATM   16  N7  UNL     1       6.047  11.861  11.106  1.00  0.00    -0.320 N
ATOM     17  H72 UNL     1       5.551  11.002  10.874  1.00  0.00     0.178 HD
ATOM     18  H71 UNL     1       5.696  12.643  10.554  1.00  0.00     0.178 HD
ENDBRANCH   8  16
TORSDOF 2
ENDMDL