MODEL 4
REMARK VINA RESULT: -6.661143335      2.793      3.167
REMARK  1 active torsions:
REMARK  status: ('A' for Active; 'I' for Inactive)
REMARK    1  A    between atoms: N3_4  and  N4_6
ROOT
HETATM    1  N4  UNL     1       7.037  13.570  12.820  1.00  0.00    -0.279 N
ATOM      2  H4  UNL     1       6.171  13.063  13.000  1.00  0.00     0.189 HD
HETATM    3  C2  UNL     1       7.884  13.040  12.012  1.00  0.00     0.193 A
HETATM    4  N5  UNL     1       9.148  13.571  11.622  1.00  0.00    -0.289 N
ATOM      5  H5  UNL     1       9.555  14.452  11.934  1.00  0.00     0.172 HD
HETATM    6  C3  UNL     1       9.737  12.639  10.715  1.00  0.00     0.328 A
HETATM    7  O1  UNL     1      10.864  12.778  10.161  1.00  0.00    -0.247 OA
HETATM    8  N6  UNL     1       8.852  11.534  10.538  1.00  0.00    -0.272 N
ATOM      9  H6  UNL     1       9.018  10.722   9.944  1.00  0.00     0.174 HD
HETATM   10  C4  UNL     1       7.704  11.764  11.330  1.00  0.00     0.295 A
HETATM   11  O2  UNL     1       6.690  11.030  11.453  1.00  0.00    -0.264 OA
ENDROOT
BRANCH   1  12
HETATM   12  N3  UNL     1       7.217  14.780  13.462  1.00  0.00    -0.274 N
HETATM   13  C1  UNL     1       6.674  15.857  12.995  1.00  0.00     0.215 C
HETATM   14  N1  UNL     1       5.884  15.792  11.808  1.00  0.00    -0.065 NA
HETATM   15  N2  UNL     1       6.875  17.096  13.676  1.00  0.00    -0.065 NA
ATOM     16  H3  UNL     1       7.783  14.825  14.310  1.00  0.00     0.189 HD
ENDBRANCH   1  12
TORSDOF 1
ENDMDL