MODEL 1
REMARK VINA RESULT: -7.849354185      0.000      0.000
REMARK  8 active torsions:
REMARK  status: ('A' for Active; 'I' for Inactive)
REMARK    1  A    between atoms: C1_2  and  C2_3
REMARK       I    between atoms: C1_2  and  N4_25
REMARK    2  A    between atoms: C2_3  and  N1_4
REMARK    3  A    between atoms: C2_3  and  C12_17
REMARK    4  A    between atoms: N1_4  and  C3_6
REMARK    5  A    between atoms: C3_6  and  C4_7
REMARK    6  A    between atoms: C4_7  and  O2_8
REMARK    7  A    between atoms: C4_7  and  C5_10
REMARK    8  A    between atoms: C5_10  and  C6_11
ROOT
HETATM    1  C2  UNL     1      18.588   4.043  11.925  1.00  0.00     0.221 C
ENDROOT
BRANCH   1   2
HETATM    2  C1  UNL     1      20.008   3.995  11.540  1.00  0.00     0.248 C
HETATM    3  O1  UNL     1      20.915   3.515  12.283  1.00  0.00    -0.271 OA
HETATM    4  N4  UNL     1      20.430   4.511  10.277  1.00  0.00    -0.350 N
HETATM    5  C16 UNL     1      21.809   4.496   9.763  1.00  0.00     0.126 C
HETATM    6  C19 UNL     1      19.574   5.164   9.320  1.00  0.00     0.126 C
HETATM    7  C17 UNL     1      21.771   5.333   8.525  1.00  0.00     0.021 C
HETATM    8  C18 UNL     1      20.513   6.171   8.645  1.00  0.00     0.021 C
ENDBRANCH   1   2
BRANCH   1   9
HETATM    9  N1  UNL     1      18.313   4.416  13.275  1.00  0.00    -0.402 N
ATOM     10  H1  UNL     1      18.831   4.001  14.050  1.00  0.00     0.154 HD
BRANCH   9  11
HETATM   11  C3  UNL     1      17.297   5.379  13.508  1.00  0.00     0.146 C
BRANCH  11  12
HETATM   12  C4  UNL     1      17.050   5.438  15.057  1.00  0.00     0.136 C
BRANCH  12  13
HETATM   13  O2  UNL     1      17.333   6.783  15.393  1.00  0.00    -0.394 OA
ATOM     14  H2  UNL     1      16.569   7.059  15.886  1.00  0.00     0.210 HD
ENDBRANCH  12  13
BRANCH  12  15
HETATM   15  C5  UNL     1      15.626   5.077  15.316  1.00  0.00     0.038 C
BRANCH  15  16
HETATM   16  C6  UNL     1      15.462   3.704  15.836  1.00  0.00    -0.012 C
HETATM   17  C7  UNL     1      14.502   3.689  17.041  1.00  0.00     0.005 C
HETATM   18  C8  UNL     1      13.981   2.282  17.129  1.00  0.00     0.000 C
HETATM   19  C9  UNL     1      15.079   1.269  17.308  1.00  0.00     0.000 C
HETATM   20  C10 UNL     1      16.294   1.514  16.501  1.00  0.00     0.000 C
HETATM   21  C11 UNL     1      16.674   2.979  16.322  1.00  0.00     0.005 C
ENDBRANCH  15  16
ENDBRANCH  12  15
ENDBRANCH  11  12
ENDBRANCH   9  11
ENDBRANCH   1   9
BRANCH   1  22
HETATM   22  C12 UNL     1      17.873   2.768  11.592  1.00  0.00     0.056 A
HETATM   23  C13 UNL     1      16.636   2.780  11.063  1.00  0.00     0.115 A
HETATM   24  N2  UNL     1      16.013   1.628  10.767  1.00  0.00    -0.372 N
HETATM   25  C14 UNL     1      16.643   0.466  11.007  1.00  0.00     0.104 A
ATOM     26  H2  UNL     1      15.075   1.635  10.366  1.00  0.00     0.164 HD
HETATM   27  C15 UNL     1      17.911   0.484  11.551  1.00  0.00     0.105 A
HETATM   28  N3  UNL     1      18.567   1.629  11.861  1.00  0.00    -0.365 N
ATOM     29  H3  UNL     1      19.505   1.635  12.264  1.00  0.00     0.165 HD
ENDBRANCH   1  22
TORSDOF 8
ENDMDL