MODEL 5
REMARK VINA RESULT: -7.081882871      2.583      4.269
REMARK  7 active torsions:
REMARK  status: ('A' for Active; 'I' for Inactive)
REMARK    1  A    between atoms: C2_2  and  N1_3
REMARK    2  A    between atoms: N1_3  and  C3_4
REMARK    3  A    between atoms: N1_3  and  C9_12
REMARK    4  A    between atoms: C3_4  and  C4_5
REMARK    5  A    between atoms: C4_5  and  N2_6
REMARK    6  A    between atoms: C9_12  and  C10_13
REMARK    7  A    between atoms: C11_18  and  C12_19
ROOT
HETATM    1  C10 UNL     1      18.401   4.135  12.529  1.00  0.00     0.116 A
HETATM    2  N3  UNL     1      19.115   4.693  13.484  1.00  0.00    -0.286 N
ATOM      3  H3  UNL     1      20.047   5.092  13.368  1.00  0.00     0.188 HD
HETATM    4  N4  UNL     1      18.440   4.654  14.607  1.00  0.00    -0.283 N
ATOM      5  H4  UNL     1      18.768   5.021  15.500  1.00  0.00     0.188 HD
HETATM    6  C11 UNL     1      17.260   4.065  14.409  1.00  0.00     0.134 A
HETATM    7  N6  UNL     1      17.254   3.744  13.090  1.00  0.00    -0.328 N
ATOM      8  H6  UNL     1      16.490   3.277  12.601  1.00  0.00     0.169 HD
ENDROOT
BRANCH   1   9
HETATM    9  C9  UNL     1      18.718   3.935  11.087  1.00  0.00     0.205 C
BRANCH   9  10
HETATM   10  N1  UNL     1      19.807   3.039  10.847  1.00  0.00    -0.362 N
BRANCH  10  11
HETATM   11  C2  UNL     1      19.623   1.707  11.191  1.00  0.00     0.059 C
HETATM   12  C1  UNL     1      18.387   1.030  10.657  1.00  0.00     0.055 C
ENDBRANCH  10  11
BRANCH  10  13
HETATM   13  C3  UNL     1      21.008   3.588  10.447  1.00  0.00     0.107 C
BRANCH  13  14
HETATM   14  C4  UNL     1      20.986   4.305   9.156  1.00  0.00     0.102 C
BRANCH  14  15
HETATM   15  N2  UNL     1      22.188   4.778   8.598  1.00  0.00    -0.385 N
HETATM   16  C5  UNL     1      22.381   4.560   7.210  1.00  0.00     0.148 C
HETATM   17  C6  UNL     1      23.794   4.449   6.742  1.00  0.00     0.187 C
HETATM   18  O1  UNL     1      24.526   3.714   7.703  1.00  0.00    -0.388 OA
HETATM   19  C7  UNL     1      24.655   4.621   8.780  1.00  0.00     0.187 C
HETATM   20  C8  UNL     1      23.331   4.713   9.442  1.00  0.00     0.148 C
ENDBRANCH  14  15
ENDBRANCH  13  14
ENDBRANCH  10  13
ENDBRANCH   9  10
ENDBRANCH   1   9
BRANCH   6  21
HETATM   21  C12 UNL     1      16.183   3.786  15.355  1.00  0.00     0.039 A
HETATM   22  C13 UNL     1      15.226   4.590  15.889  1.00  0.00     0.020 A
HETATM   23  C14 UNL     1      15.048   6.027  15.634  1.00  0.00     0.069 C
HETATM   24  N5  UNL     1      14.428   3.884  16.724  1.00  0.00    -0.362 N
HETATM   25  C15 UNL     1      14.847   2.617  16.748  1.00  0.00     0.012 A
ATOM     26  H5  UNL     1      13.638   4.259  17.249  1.00  0.00     0.165 HD
HETATM   27  C16 UNL     1      14.213   1.535  17.559  1.00  0.00     0.068 C
HETATM   28  C17 UNL     1      15.946   2.519  15.901  1.00  0.00    -0.024 A
HETATM   29  C18 UNL     1      16.730   1.294  15.621  1.00  0.00     0.051 C
ENDBRANCH   6  21
TORSDOF 7
ENDMDL