MODEL 2
REMARK VINA RESULT: -6.599823690      3.182      5.776
REMARK  7 active torsions:
REMARK  status: ('A' for Active; 'I' for Inactive)
REMARK    1  A    between atoms: C3_3  and  N1_4
REMARK    2  A    between atoms: N1_4  and  C4_5
REMARK    3  A    between atoms: N1_4  and  C9_16
REMARK    4  A    between atoms: C4_5  and  C5_6
REMARK    5  A    between atoms: C5_6  and  C6_7
REMARK    6  A    between atoms: C8_10  and  N2_11
REMARK    7  A    between atoms: C12_19  and  O1_20
ROOT
HETATM    1  C1  UNL     1      14.987   2.534  18.067  1.00  0.00     0.013 C
HETATM    2  C2  UNL     1      15.874   2.687  17.264  1.00  0.00    -0.087 C
HETATM    3  C3  UNL     1      16.969   2.855  16.271  1.00  0.00     0.365 C
ENDROOT
BRANCH   3   4
HETATM    4  N1  UNL     1      16.567   3.743  15.221  1.00  0.00     0.104 N
BRANCH   4   5
HETATM    5  C4  UNL     1      16.349   3.143  13.972  1.00  0.00     0.280 C
BRANCH   5   6
HETATM    6  C5  UNL     1      16.861   1.689  14.073  1.00  0.00     0.087 C
BRANCH   6   7
HETATM    7  C6  UNL     1      17.484   1.416  12.716  1.00  0.00     0.019 A
HETATM    8  C7  UNL     1      17.050   0.350  11.979  1.00  0.00     0.078 A
HETATM    9  S1  UNL     1      18.017   0.474  10.576  1.00  0.00    -0.064 SA
HETATM   10  C8  UNL     1      18.906   1.861  11.007  1.00  0.00     0.142 A
HETATM   11  N3  UNL     1      18.424   2.171  12.209  1.00  0.00    -0.340 N
ATOM     12  H3  UNL     1      18.779   2.978  12.721  1.00  0.00     0.167 HD
BRANCH  10  13
HETATM   13  N2  UNL     1      19.845   2.499  10.339  1.00  0.00    -0.380 N
ATOM     14  H22 UNL     1      20.803   2.189  10.176  1.00  0.00     0.158 HD
ATOM     15  H21 UNL     1      19.809   3.401   9.866  1.00  0.00     0.158 HD
ENDBRANCH  10  13
ENDBRANCH   6   7
ENDBRANCH   5   6
ENDBRANCH   4   5
BRANCH   4  16
HETATM   16  C9  UNL     1      17.385   4.921  15.307  1.00  0.00     0.224 C
HETATM   17  C10 UNL     1      16.603   6.065  14.758  1.00  0.00     0.039 C
HETATM   18  C11 UNL     1      17.250   7.055  13.895  1.00  0.00     0.048 C
HETATM   19  C12 UNL     1      18.762   6.894  13.697  1.00  0.00     0.124 C
HETATM   20  C14 UNL     1      19.225   7.408  12.381  1.00  0.00     0.161 C
HETATM   21  C17 UNL     1      18.921   5.408  13.507  1.00  0.00     0.030 C
HETATM   22  O2  UNL     1      18.836   8.332  11.715  1.00  0.00    -0.295 OA
HETATM   23  C15 UNL     1      20.355   6.498  11.988  1.00  0.00     0.082 C
HETATM   24  C16 UNL     1      20.196   5.234  12.794  1.00  0.00     0.015 C
HETATM   25  C18 UNL     1      18.795   4.801  14.867  1.00  0.00     0.044 C
BRANCH  19  26
HETATM   26  O1  UNL     1      19.360   7.464  14.753  1.00  0.00    -0.377 OA
HETATM   27  C13 UNL     1      19.207   8.762  15.075  1.00  0.00     0.203 C
ENDBRANCH  19  26
ENDBRANCH   4  16
ENDBRANCH   3   4
TORSDOF 7
ENDMDL