MODEL 5
REMARK VINA RESULT: -6.348774650      0.990      1.261
REMARK  8 active torsions:
REMARK  status: ('A' for Active; 'I' for Inactive)
REMARK    1  A    between atoms: C2_2  and  C4_4
REMARK    2  A    between atoms: C4_4  and  C5_5
REMARK    3  A    between atoms: C5_5  and  C6_6
REMARK    4  A    between atoms: C5_5  and  N1_9
REMARK    5  A    between atoms: N1_9  and  C7_10
REMARK    6  A    between atoms: N1_9  and  C8_13
REMARK    7  A    between atoms: C7_10  and  O3_11
REMARK    8  A    between atoms: N2_16  and  C11_17
ROOT
HETATM    1  C8  UNL     1      17.958   5.352  14.900  1.00  0.00     0.230 C
HETATM    2  C9  UNL     1      17.696   6.855  15.028  1.00  0.00     0.066 C
HETATM    3  C10 UNL     1      18.954   7.631  14.602  1.00  0.00     0.275 C
HETATM    4  N2  UNL     1      19.179   7.534  13.197  1.00  0.00     0.093 N
HETATM    5  C16 UNL     1      18.645   6.262  12.719  1.00  0.00     0.275 C
HETATM    6  C17 UNL     1      18.893   5.185  13.791  1.00  0.00     0.066 C
ENDROOT
BRANCH   1   7
HETATM    7  N1  UNL     1      16.659   4.660  14.859  1.00  0.00     0.130 N
BRANCH   7   8
HETATM    8  C5  UNL     1      16.538   3.813  16.050  1.00  0.00     0.326 C
BRANCH   8   9
HETATM    9  C4  UNL     1      15.110   3.409  16.347  1.00  0.00     0.051 C
BRANCH   9  10
HETATM   10  C2  UNL     1      15.064   2.377  17.462  1.00  0.00    -0.020 C
HETATM   11  C1  UNL     1      14.904   3.039  18.800  1.00  0.00     0.009 C
HETATM   12  C3  UNL     1      13.741   1.616  17.211  1.00  0.00     0.009 C
ENDBRANCH   9  10
ENDBRANCH   8   9
BRANCH   8  13
HETATM   13  C6  UNL     1      17.136   2.482  15.585  1.00  0.00     0.207 C
HETATM   14  O1  UNL     1      16.942   2.008  14.459  1.00  0.00    -0.646 OA
HETATM   15  O2  UNL     1      17.935   1.772  16.457  1.00  0.00    -0.646 OA
ENDBRANCH   8  13
ENDBRANCH   7   8
BRANCH   7  16
HETATM   16  C7  UNL     1      15.731   5.811  14.945  1.00  0.00     0.439 C
BRANCH  16  17
HETATM   17  O3  UNL     1      14.795   5.825  13.933  1.00  0.00    -0.373 OA
ATOM     18  H3  UNL     1      14.333   6.652  13.867  1.00  0.00     0.211 HD
ENDBRANCH  16  17
ENDBRANCH   7  16
ENDBRANCH   1   7
BRANCH   4  19
HETATM   19  C11 UNL     1      18.523   8.580  12.446  1.00  0.00     0.232 C
HETATM   20  C12 UNL     1      18.610   8.336  10.977  1.00  0.00     0.037 C
HETATM   21  C13 UNL     1      19.930   8.580  10.351  1.00  0.00     0.012 C
HETATM   22  C14 UNL     1      21.110   8.451  11.253  1.00  0.00     0.074 C
HETATM   23  S1  UNL     1      20.927   9.746  12.543  1.00  0.00    -0.167 SA
HETATM   24  C15 UNL     1      19.120   9.942  12.723  1.00  0.00     0.109 C
ENDBRANCH   4  19
TORSDOF 8
ENDMDL