MODEL 2
REMARK VINA RESULT: -7.649010427      2.037      3.142
REMARK  8 active torsions:
REMARK  status: ('A' for Active; 'I' for Inactive)
REMARK    1  A    between atoms: C2_2  and  C3_3
REMARK    2  A    between atoms: C3_3  and  O1_4
REMARK    3  A    between atoms: O1_4  and  C4_5
REMARK    4  A    between atoms: C4_5  and  O2_6
REMARK    5  A    between atoms: C4_5  and  C5_8
REMARK    6  A    between atoms: C5_8  and  C6_9
REMARK    7  A    between atoms: N1_14  and  C11_15
REMARK    8  A    between atoms: C15_20  and  C16_21
ROOT
HETATM    1  C6  UNL     1      17.104   5.212  12.582  1.00  0.00     0.230 C
HETATM    2  C7  UNL     1      16.832   3.819  13.142  1.00  0.00     0.074 C
HETATM    3  C8  UNL     1      16.491   4.043  14.601  1.00  0.00     0.068 C
HETATM    4  C9  UNL     1      17.708   4.578  15.265  1.00  0.00     0.069 C
HETATM    5  C10 UNL     1      18.091   5.882  14.604  1.00  0.00     0.276 C
HETATM    6  N1  UNL     1      18.299   5.748  13.170  1.00  0.00     0.093 N
HETATM    7  O3  UNL     1      15.408   4.917  14.641  1.00  0.00    -0.380 OA
HETATM    8  C13 UNL     1      14.962   5.159  15.924  1.00  0.00     0.169 C
HETATM    9  C14 UNL     1      14.575   3.939  16.692  1.00  0.00     0.042 C
HETATM   10  C15 UNL     1      15.678   2.889  16.610  1.00  0.00     0.095 C
HETATM   11  C17 UNL     1      16.014   2.728  15.154  1.00  0.00     0.030 C
HETATM   12  C18 UNL     1      16.930   1.586  14.865  1.00  0.00     0.014 C
ENDROOT
BRANCH   1  13
HETATM   13  C5  UNL     1      17.080   5.111  11.108  1.00  0.00     0.096 C
BRANCH  13  14
HETATM   14  C4  UNL     1      16.692   6.335  10.351  1.00  0.00     0.259 C
BRANCH  14  15
HETATM   15  O1  UNL     1      15.318   6.594  10.538  1.00  0.00    -0.358 OA
BRANCH  15  16
HETATM   16  C3  UNL     1      14.884   7.653   9.764  1.00  0.00     0.197 C
BRANCH  16  17
HETATM   17  C2  UNL     1      14.058   8.594  10.558  1.00  0.00    -0.011 C
HETATM   18  C1  UNL     1      13.896   8.456  11.864  1.00  0.00     0.009 C
ENDBRANCH  16  17
ENDBRANCH  15  16
ENDBRANCH  14  15
BRANCH  14  19
HETATM   19  O2  UNL     1      17.456   7.449  10.549  1.00  0.00    -0.371 OA
ATOM     20  H2  UNL     1      17.919   7.710   9.762  1.00  0.00     0.212 HD
ENDBRANCH  14  19
ENDBRANCH  13  14
ENDBRANCH   1  13
BRANCH  10  21
HETATM   21  C16 UNL     1      15.238   1.608  17.215  1.00  0.00     0.177 C
HETATM   22  O4  UNL     1      15.959   0.978  18.031  1.00  0.00    -0.648 OA
HETATM   23  O5  UNL     1      13.997   1.040  16.905  1.00  0.00    -0.648 OA
ENDBRANCH  10  21
BRANCH   6  24
HETATM   24  C11 UNL     1      19.500   5.017  12.945  1.00  0.00     0.268 C
HETATM   25  C12 UNL     1      20.537   6.030  12.420  1.00  0.00     0.037 C
ENDBRANCH   6  24
TORSDOF 8
ENDMDL