MODEL 1
REMARK VINA RESULT: -7.350370656      0.000      0.000
REMARK  9 active torsions:
REMARK  status: ('A' for Active; 'I' for Inactive)
REMARK    1  A    between atoms: O1_1  and  C1_3
REMARK    2  A    between atoms: C1_3  and  C2_4
REMARK    3  A    between atoms: C2_4  and  C3_5
REMARK    4  A    between atoms: C4_6  and  C5_7
REMARK    5  A    between atoms: C5_7  and  C6_8
REMARK    6  A    between atoms: C12_15  and  C13_16
REMARK    7  A    between atoms: C13_16  and  O3_17
REMARK    8  A    between atoms: N1_20  and  C15_21
REMARK    9  A    between atoms: C15_21  and  C16_22
ROOT
HETATM    1  C3  UNL     1      16.722   3.670  12.110  1.00  0.00     0.114 C
HETATM    2  C4  UNL     1      16.832   3.400  13.527  1.00  0.00     0.145 C
HETATM    3  O2  UNL     1      18.073   3.795  14.108  1.00  0.00    -0.375 OA
HETATM    4  C12 UNL     1      18.335   5.111  13.817  1.00  0.00     0.163 C
HETATM    5  C14 UNL     1      18.637   5.096  12.297  1.00  0.00     0.156 C
HETATM    6  N1  UNL     1      17.371   4.909  11.697  1.00  0.00    -0.381 N
ENDROOT
BRANCH   2   7
HETATM    7  C5  UNL     1      15.801   3.755  14.528  1.00  0.00     0.038 C
BRANCH   7   8
HETATM    8  C6  UNL     1      15.924   3.209  15.886  1.00  0.00    -0.012 C
HETATM    9  C7  UNL     1      16.159   1.766  16.048  1.00  0.00     0.005 C
HETATM   10  C8  UNL     1      15.617   1.370  17.449  1.00  0.00     0.000 C
HETATM   11  C9  UNL     1      14.110   1.441  17.343  1.00  0.00     0.000 C
HETATM   12  C10 UNL     1      13.666   2.826  16.920  1.00  0.00     0.000 C
HETATM   13  C11 UNL     1      14.833   3.762  16.808  1.00  0.00     0.005 C
ENDBRANCH   7   8
ENDBRANCH   2   7
BRANCH   1  14
HETATM   14  C2  UNL     1      17.290   2.533  11.267  1.00  0.00     0.054 C
BRANCH  14  15
HETATM   15  C1  UNL     1      16.368   1.393  11.040  1.00  0.00     0.166 C
BRANCH  15  16
HETATM   16  O1  UNL     1      16.344   1.082   9.651  1.00  0.00    -0.401 OA
ATOM     17  H1  UNL     1      15.492   1.308   9.297  1.00  0.00     0.209 HD
ENDBRANCH  15  16
ENDBRANCH  14  15
ENDBRANCH   1  14
BRANCH   6  18
HETATM   18  C15 UNL     1      17.141   5.321  10.387  1.00  0.00     0.090 C
BRANCH  18  19
HETATM   19  C16 UNL     1      16.547   6.722  10.341  1.00  0.00     0.159 C
HETATM   20  C17 UNL     1      16.990   7.450   9.083  1.00  0.00     0.039 C
HETATM   21  C18 UNL     1      15.771   8.278   8.713  1.00  0.00     0.029 C
HETATM   22  C19 UNL     1      14.673   7.388   9.277  1.00  0.00     0.168 C
HETATM   23  O4  UNL     1      15.184   6.727  10.360  1.00  0.00    -0.381 OA
ENDBRANCH  18  19
ENDBRANCH   6  18
BRANCH   4  24
HETATM   24  C13 UNL     1      19.469   5.696  14.580  1.00  0.00     0.197 C
BRANCH  24  25
HETATM   25  O3  UNL     1      20.034   4.699  15.369  1.00  0.00    -0.398 OA
ATOM     26  H3  UNL     1      20.097   5.019  16.261  1.00  0.00     0.209 HD
ENDBRANCH  24  25
ENDBRANCH   4  24
TORSDOF 9
ENDMDL