MODEL 1
REMARK VINA RESULT: -7.049566397      0.000      0.000
REMARK  9 active torsions:
REMARK  status: ('A' for Active; 'I' for Inactive)
REMARK    1  A    between atoms: C2_2  and  O1_4
REMARK    2  A    between atoms: O1_4  and  C4_5
REMARK    3  A    between atoms: C4_5  and  C5_6
REMARK    4  A    between atoms: C5_6  and  O2_7
REMARK    5  A    between atoms: C5_6  and  C6_9
REMARK    6  A    between atoms: C6_9  and  N1_10
REMARK    7  A    between atoms: C11_16  and  C12_17
REMARK    8  A    between atoms: C12_17  and  C13_18
REMARK    9  A    between atoms: C13_18  and  O3_19
ROOT
HETATM    1  N1  UNL     1      17.366   4.496  14.401  1.00  0.00    -0.341 N
HETATM    2  C7  UNL     1      18.593   5.185  14.678  1.00  0.00     0.200 C
HETATM    3  S1  UNL     1      19.590   5.513  13.223  1.00  0.00    -0.139 SA
HETATM    4  C8  UNL     1      18.669   5.011  11.743  1.00  0.00     0.018 C
HETATM    5  C9  UNL     1      18.876   3.526  11.568  1.00  0.00     0.021 C
HETATM    6  C10 UNL     1      20.371   3.325  11.373  1.00  0.00     0.006 C
HETATM    7  C11 UNL     1      20.859   3.994  10.112  1.00  0.00    -0.012 C
HETATM    8  C14 UNL     1      19.928   5.012   9.566  1.00  0.00     0.006 C
HETATM    9  C15 UNL     1      19.166   5.800  10.578  1.00  0.00     0.021 C
HETATM   10  C16 UNL     1      17.197   5.323  12.035  1.00  0.00     0.123 C
HETATM   11  C17 UNL     1      16.785   4.385  13.111  1.00  0.00     0.222 C
HETATM   12  O4  UNL     1      15.927   3.501  12.877  1.00  0.00    -0.273 OA
ENDROOT
BRANCH   1  13
HETATM   13  C6  UNL     1      16.686   3.876  15.524  1.00  0.00     0.160 C
BRANCH  13  14
HETATM   14  C5  UNL     1      17.129   2.411  15.530  1.00  0.00     0.160 C
BRANCH  14  15
HETATM   15  C4  UNL     1      16.019   1.508  16.030  1.00  0.00     0.201 C
BRANCH  15  16
HETATM   16  O1  UNL     1      16.199   1.306  17.383  1.00  0.00    -0.384 OA
BRANCH  16  17
HETATM   17  C2  UNL     1      15.005   1.558  18.058  1.00  0.00     0.113 C
HETATM   18  C1  UNL     1      15.168   2.848  18.818  1.00  0.00     0.039 C
HETATM   19  C3  UNL     1      13.895   1.664  17.039  1.00  0.00     0.039 C
ENDBRANCH  16  17
ENDBRANCH  15  16
ENDBRANCH  14  15
BRANCH  14  20
HETATM   20  O2  UNL     1      18.148   2.341  16.504  1.00  0.00    -0.392 OA
ATOM     21  H2  UNL     1      17.805   2.787  17.270  1.00  0.00     0.210 HD
ENDBRANCH  14  20
ENDBRANCH  13  14
ENDBRANCH   1  13
BRANCH   7  22
HETATM   22  C12 UNL     1      22.256   4.470  10.352  1.00  0.00     0.030 C
BRANCH  22  23
HETATM   23  C13 UNL     1      23.075   4.644   9.114  1.00  0.00     0.164 C
BRANCH  23  24
HETATM   24  O3  UNL     1      24.272   3.944   9.262  1.00  0.00    -0.401 OA
ATOM     25  H3  UNL     1      24.329   3.285   8.581  1.00  0.00     0.209 HD
ENDBRANCH  23  24
ENDBRANCH  22  23
ENDBRANCH   7  22
TORSDOF 9
ENDMDL