MODEL 5
REMARK VINA RESULT: -7.401608462      2.006      5.145
REMARK  9 active torsions:
REMARK  status: ('A' for Active; 'I' for Inactive)
REMARK    1  A    between atoms: C2_2  and  C3_3
REMARK    2  A    between atoms: C4_6  and  C5_7
REMARK    3  A    between atoms: C5_7  and  C6_8
REMARK    4  A    between atoms: C6_8  and  N2_9
REMARK    5  A    between atoms: N2_9  and  C7_11
REMARK    6  A    between atoms: C8_14  and  N4_15
REMARK    7  A    between atoms: N4_15  and  C9_17
REMARK    8  A    between atoms: C13_23  and  C14_24
REMARK    9  A    between atoms: C14_24  and  C15_25
ROOT
HETATM    1  C7  UNL     1      17.971   5.481  12.610  1.00  0.00     0.124 A
HETATM    2  N3  UNL     1      17.919   4.138  12.371  1.00  0.00    -0.176 N
ATOM      3  H3  UNL     1      17.028   3.647  12.443  1.00  0.00     0.186 HD
HETATM    4  C8  UNL     1      19.025   3.459  12.044  1.00  0.00     0.679 A
HETATM    5  N5  UNL     1      20.191   4.108  11.950  1.00  0.00    -0.201 N
ATOM      6  H5  UNL     1      21.030   3.585  11.699  1.00  0.00     0.183 HD
HETATM    7  C12 UNL     1      20.292   5.437  12.178  1.00  0.00     0.117 A
HETATM    8  C13 UNL     1      19.167   6.134  12.512  1.00  0.00     0.003 A
ENDROOT
BRANCH   1   9
HETATM    9  N2  UNL     1      16.891   6.089  12.923  1.00  0.00    -0.375 N
ATOM     10  H2  UNL     1      16.632   6.911  12.377  1.00  0.00     0.161 HD
BRANCH   9  11
HETATM   11  C6  UNL     1      16.011   5.687  13.999  1.00  0.00     0.129 C
BRANCH  11  12
HETATM   12  C5  UNL     1      16.856   5.631  15.253  1.00  0.00     0.098 C
BRANCH  12  13
HETATM   13  C4  UNL     1      16.904   4.227  15.770  1.00  0.00     0.105 A
HETATM   14  N1  UNL     1      15.866   3.539  16.278  1.00  0.00    -0.327 N
HETATM   15  C3  UNL     1      16.274   2.313  16.639  1.00  0.00     0.147 A
ATOM     16  H1  UNL     1      14.914   3.895  16.373  1.00  0.00     0.169 HD
HETATM   17  O1  UNL     1      17.549   2.253  16.356  1.00  0.00    -0.223 OA
HETATM   18  N6  UNL     1      17.952   3.389  15.832  1.00  0.00    -0.247 N
ATOM     19  H6  UNL     1      18.901   3.600  15.525  1.00  0.00     0.196 HD
BRANCH  15  20
HETATM   20  C2  UNL     1      15.498   1.192  17.246  1.00  0.00     0.082 C
HETATM   21  C1  UNL     1      14.025   1.592  17.304  1.00  0.00     0.013 C
ENDBRANCH  15  20
ENDBRANCH  12  13
ENDBRANCH  11  12
ENDBRANCH   9  11
ENDBRANCH   1   9
BRANCH   8  22
HETATM   22  C14 UNL     1      19.269   7.598  12.761  1.00  0.00     0.048 C
BRANCH  22  23
HETATM   23  C15 UNL     1      19.814   7.873  14.143  1.00  0.00    -0.010 C
HETATM   24  C16 UNL     1      20.553   9.202  14.194  1.00  0.00     0.005 C
HETATM   25  C17 UNL     1      19.981   9.351  15.611  1.00  0.00     0.001 C
HETATM   26  C18 UNL     1      18.806   8.501  15.103  1.00  0.00     0.005 C
ENDBRANCH  22  23
ENDBRANCH   8  22
BRANCH   4  27
HETATM   27  N4  UNL     1      18.989   2.200  11.817  1.00  0.00    -0.222 N
ATOM     28  H4  UNL     1      19.873   1.692  11.794  1.00  0.00     0.178 HD
BRANCH  27  29
HETATM   29  C9  UNL     1      17.773   1.454  11.593  1.00  0.00     0.091 C
HETATM   30  C10 UNL     1      18.097   0.186  10.798  1.00  0.00     0.032 C
HETATM   31  C11 UNL     1      17.168   1.016  12.910  1.00  0.00     0.032 C
ENDBRANCH  27  29
ENDBRANCH   4  27
TORSDOF 9
ENDMDL