MODEL 5
REMARK VINA RESULT: -6.991327039      1.953      3.394
REMARK  9 active torsions:
REMARK  status: ('A' for Active; 'I' for Inactive)
REMARK    1  A    between atoms: C2_2  and  C3_3
REMARK    2  A    between atoms: C3_3  and  C4_4
REMARK    3  A    between atoms: C4_4  and  C5_5
REMARK    4  A    between atoms: C4_4  and  C6_12
REMARK    5  A    between atoms: C5_5  and  O1_6
REMARK    6  A    between atoms: N1_8  and  O2_10
REMARK    7  A    between atoms: C6_12  and  C7_13
REMARK    8  A    between atoms: C6_12  and  C13_24
REMARK    9  A    between atoms: C7_13  and  C8_15
REMARK       I    between atoms: C8_15  and  N2_17
ROOT
HETATM    1  C6  UNL     1      16.697   3.739  14.944  1.00  0.00     0.012 C
ENDROOT
BRANCH   1   2
HETATM    2  C4  UNL     1      16.854   5.161  14.915  1.00  0.00     0.103 C
BRANCH   2   3
HETATM    3  C3  UNL     1      18.168   5.792  14.563  1.00  0.00     0.044 C
BRANCH   3   4
HETATM    4  C2  UNL     1      18.225   7.128  15.277  1.00  0.00    -0.036 C
HETATM    5  C1  UNL     1      19.013   8.091  14.818  1.00  0.00     0.007 C
ENDBRANCH   3   4
ENDBRANCH   2   3
BRANCH   2   6
HETATM    6  C5  UNL     1      15.872   5.815  14.017  1.00  0.00     0.144 C
HETATM    7  N1  UNL     1      16.322   6.370  12.945  1.00  0.00    -0.251 N
ATOM      8  H1  UNL     1      17.323   6.340  12.752  1.00  0.00     0.196 HD
BRANCH   6   9
HETATM    9  O1  UNL     1      14.507   5.875  14.242  1.00  0.00    -0.348 OA
ATOM     10  H1  UNL     1      14.028   6.662  14.472  1.00  0.00     0.219 HD
ENDBRANCH   6   9
BRANCH   7  11
HETATM   11  O2  UNL     1      15.488   6.998  12.055  1.00  0.00    -0.288 OA
ATOM     12  H2  UNL     1      15.607   7.910  11.819  1.00  0.00     0.244 HD
ENDBRANCH   7  11
ENDBRANCH   2   6
ENDBRANCH   1   2
BRANCH   1  13
HETATM   13  C7  UNL     1      16.456   3.183  13.549  1.00  0.00     0.247 C
HETATM   14  O3  UNL     1      15.256   3.250  13.111  1.00  0.00    -0.282 OA
BRANCH  13  15
HETATM   15  C8  UNL     1      17.461   2.616  12.724  1.00  0.00     0.302 C
HETATM   16  O4  UNL     1      17.881   1.459  13.114  1.00  0.00    -0.263 OA
HETATM   17  N2  UNL     1      18.079   3.088  11.565  1.00  0.00    -0.257 N
HETATM   18  C9  UNL     1      19.174   2.312  10.916  1.00  0.00     0.140 C
HETATM   19  C12 UNL     1      17.751   4.281  10.884  1.00  0.00     0.369 C
HETATM   20  C10 UNL     1      20.320   3.213  10.599  1.00  0.00     0.047 C
HETATM   21  C11 UNL     1      19.965   4.493   9.916  1.00  0.00     0.182 C
HETATM   22  O5  UNL     1      18.813   5.113  10.507  1.00  0.00    -0.304 OA
HETATM   23  O6  UNL     1      16.550   4.546  10.645  1.00  0.00    -0.238 OA
ENDBRANCH  13  15
ENDBRANCH   1  13
BRANCH   1  24
HETATM   24  C13 UNL     1      15.871   2.940  15.835  1.00  0.00    -0.069 C
HETATM   25  C14 UNL     1      16.389   1.729  16.494  1.00  0.00     0.035 C
HETATM   26  C15 UNL     1      15.191   1.356  17.388  1.00  0.00     0.005 C
HETATM   27  C16 UNL     1      14.882   2.711  18.003  1.00  0.00     0.005 C
HETATM   28  C17 UNL     1      15.055   3.709  16.851  1.00  0.00     0.035 C
ENDBRANCH   1  24
TORSDOF 9
ENDMDL