MODEL 5
REMARK VINA RESULT: -6.874479003      2.774      5.941
REMARK  8 active torsions:
REMARK  status: ('A' for Active; 'I' for Inactive)
REMARK    1  A    between atoms: C2_5  and  N2_6
REMARK    2  A    between atoms: N2_6  and  C3_8
REMARK    3  A    between atoms: N5_16  and  C7_17
REMARK    4  A    between atoms: C7_17  and  C8_18
REMARK    5  A    between atoms: C8_18  and  O2_19
REMARK    6  A    between atoms: O2_19  and  C9_20
REMARK    7  A    between atoms: C9_20  and  C10_21
REMARK    8  A    between atoms: C10_21  and  C11_22
ROOT
HETATM    1  O1  UNL     1      20.481   5.685  12.152  1.00  0.00    -0.267 OA
HETATM    2  C1  UNL     1      19.248   5.748  11.933  1.00  0.00     0.275 A
HETATM    3  N1  UNL     1      18.553   6.901  11.916  1.00  0.00    -0.155 N
ATOM      4  H1  UNL     1      19.049   7.775  12.091  1.00  0.00     0.187 HD
HETATM    5  C2  UNL     1      17.235   6.945  11.679  1.00  0.00     0.683 A
HETATM    6  N3  UNL     1      16.586   5.797  11.450  1.00  0.00    -0.174 N
ATOM      7  H3  UNL     1      15.582   5.826  11.269  1.00  0.00     0.186 HD
HETATM    8  C6  UNL     1      17.216   4.597  11.451  1.00  0.00     0.152 A
HETATM    9  N4  UNL     1      16.849   3.319  11.261  1.00  0.00    -0.282 N
ATOM     10  H4  UNL     1      15.899   3.008  11.058  1.00  0.00     0.189 HD
HETATM   11  N5  UNL     1      17.897   2.521  11.377  1.00  0.00    -0.299 N
HETATM   12  C17 UNL     1      18.977   3.241  11.644  1.00  0.00     0.131 A
HETATM   13  C18 UNL     1      18.577   4.569  11.697  1.00  0.00     0.095 A
ENDROOT
BRANCH  11  14
HETATM   14  C7  UNL     1      17.919   1.044  11.244  1.00  0.00     0.174 C
BRANCH  14  15
HETATM   15  C8  UNL     1      17.112   0.433  12.365  1.00  0.00     0.189 C
BRANCH  15  16
HETATM   16  O2  UNL     1      16.654   1.214  13.303  1.00  0.00    -0.389 OA
BRANCH  16  17
HETATM   17  C9  UNL     1      17.089   1.616  14.466  1.00  0.00     0.168 C
BRANCH  17  18
HETATM   18  C10 UNL     1      16.154   1.876  15.608  1.00  0.00     0.031 C
BRANCH  18  19
HETATM   19  C11 UNL     1      16.426   3.298  16.182  1.00  0.00    -0.013 C
HETATM   20  C12 UNL     1      15.082   3.975  16.223  1.00  0.00     0.005 C
HETATM   21  C13 UNL     1      14.919   4.726  14.899  1.00  0.00     0.000 C
HETATM   22  C14 UNL     1      15.849   5.910  14.964  1.00  0.00     0.000 C
HETATM   23  C15 UNL     1      17.259   5.445  15.176  1.00  0.00     0.000 C
HETATM   24  C16 UNL     1      17.392   3.946  15.254  1.00  0.00     0.005 C
ENDBRANCH  18  19
ENDBRANCH  17  18
ENDBRANCH  16  17
ENDBRANCH  15  16
ENDBRANCH  14  15
ENDBRANCH  11  14
BRANCH   5  25
HETATM   25  N2  UNL     1      16.585   8.048  11.665  1.00  0.00    -0.221 N
ATOM     26  H2  UNL     1      16.958   8.861  12.156  1.00  0.00     0.178 HD
BRANCH  25  27
HETATM   27  C3  UNL     1      15.323   8.154  10.958  1.00  0.00     0.099 A
HETATM   28  C4  UNL     1      14.729   9.550  10.972  1.00  0.00     0.028 A
HETATM   29  C5  UNL     1      14.072   8.441  11.705  1.00  0.00     0.028 A
ENDBRANCH  25  27
ENDBRANCH   5  25
TORSDOF 8
ENDMDL