MODEL 2
REMARK VINA RESULT: -6.904569482      1.001      1.732
REMARK  6 active torsions:
REMARK  status: ('A' for Active; 'I' for Inactive)
REMARK    1  A    between atoms: C2_2  and  C4_4
REMARK    2  A    between atoms: C4_4  and  N1_5
REMARK    3  A    between atoms: C4_4  and  C11_16
REMARK       I    between atoms: N1_5  and  C5_7
REMARK    4  A    between atoms: C5_7  and  C6_9
REMARK    5  A    between atoms: C6_9  and  N2_10
REMARK    6  A    between atoms: N2_10  and  C7_11
ROOT
HETATM    1  C7  UNL     1       0.496   6.329  81.459  1.00  0.00     0.361 C
HETATM    2  C8  UNL     1       0.047   6.755  80.131  1.00  0.00     0.087 C
HETATM    3  N3  UNL     1      -0.307   7.115  79.071  1.00  0.00    -0.196 NA
ENDROOT
BRANCH   1   4
HETATM    4  N2  UNL     1      -0.648   5.750  82.132  1.00  0.00    -0.044 N
HETATM    5  C9  UNL     1      -1.442   4.757  81.483  1.00  0.00     0.267 A
HETATM    6  C10 UNL     1      -0.441   4.343  82.487  1.00  0.00     0.267 A
BRANCH   4   7
HETATM    7  C6  UNL     1      -1.263   6.607  83.125  1.00  0.00     0.340 C
BRANCH   7   8
HETATM    8  C5  UNL     1      -1.086   6.067  84.500  1.00  0.00     0.244 C
HETATM    9  N1  UNL     1      -2.098   5.325  85.163  1.00  0.00    -0.345 N
ATOM     10  H1  UNL     1      -2.988   5.143  84.700  1.00  0.00     0.163 HD
HETATM   11  O1  UNL     1      -0.000   6.278  85.082  1.00  0.00    -0.272 OA
BRANCH   9  12
HETATM   12  C4  UNL     1      -1.857   4.830  86.498  1.00  0.00     0.189 C
BRANCH  12  13
HETATM   13  C2  UNL     1      -3.119   4.908  87.349  1.00  0.00     0.010 C
HETATM   14  C1  UNL     1      -3.733   6.285  87.131  1.00  0.00     0.012 C
HETATM   15  C3  UNL     1      -2.721   4.796  88.806  1.00  0.00     0.012 C
ENDBRANCH  12  13
BRANCH  12  16
HETATM   16  C11 UNL     1      -1.474   3.403  86.414  1.00  0.00     0.197 C
HETATM   17  O2  UNL     1      -0.300   3.108  86.093  1.00  0.00    -0.646 OA
HETATM   18  O3  UNL     1      -2.350   2.358  86.674  1.00  0.00    -0.646 OA
ENDBRANCH  12  16
ENDBRANCH   9  12
ENDBRANCH   7   8
ENDBRANCH   4   7
ENDBRANCH   1   4
TORSDOF 6
ENDMDL