MODEL 1
REMARK VINA RESULT: -6.176765843      0.000      0.000
REMARK  8 active torsions:
REMARK  status: ('A' for Active; 'I' for Inactive)
REMARK    1  A    between atoms: N1_6  and  C6_7
REMARK    2  A    between atoms: C6_7  and  O1_8
REMARK    3  A    between atoms: C6_7  and  C7_10
REMARK    4  A    between atoms: C7_10  and  C8_11
REMARK    5  A    between atoms: C7_10  and  N3_17
REMARK    6  A    between atoms: C8_11  and  N2_12
REMARK    7  A    between atoms: N2_12  and  C9_14
REMARK    8  A    between atoms: N3_17  and  C12_19
ROOT
HETATM    1  C7  UNL     1      -1.246   5.453  84.184  1.00  0.00     0.080 C
ENDROOT
BRANCH   1   2
HETATM    2  C6  UNL     1      -0.151   6.348  84.534  1.00  0.00     0.163 C
BRANCH   2   3
HETATM    3  N1  UNL     1       0.320   7.529  83.923  1.00  0.00    -0.356 N
HETATM    4  C2  UNL     1       1.695   7.583  83.368  1.00  0.00     0.082 C
HETATM    5  C1  UNL     1       1.865   6.594  82.248  1.00  0.00     0.032 C
HETATM    6  C3  UNL     1       1.904   8.979  82.882  1.00  0.00     0.026 C
HETATM    7  C4  UNL     1       0.959   9.762  83.774  1.00  0.00     0.022 C
HETATM    8  C5  UNL     1      -0.247   8.813  83.721  1.00  0.00     0.125 C
ENDBRANCH   2   3
BRANCH   2   9
HETATM    9  O1  UNL     1       0.474   5.935  85.622  1.00  0.00    -0.345 OA
ATOM     10  H1  UNL     1      -0.059   5.585  86.326  1.00  0.00     0.219 HD
ENDBRANCH   2   9
ENDBRANCH   1   2
BRANCH   1  11
HETATM   11  C8  UNL     1      -2.577   5.601  84.796  1.00  0.00     0.176 C
BRANCH  11  12
HETATM   12  N2  UNL     1      -2.577   6.106  86.134  1.00  0.00    -0.412 N
ATOM     13  H2  UNL     1      -1.911   6.820  86.428  1.00  0.00     0.153 HD
BRANCH  12  14
HETATM   14  C9  UNL     1      -3.527   5.587  87.031  1.00  0.00     0.077 A
HETATM   15  C10 UNL     1      -2.977   4.683  88.158  1.00  0.00     0.027 A
HETATM   16  C11 UNL     1      -3.799   4.071  87.025  1.00  0.00     0.027 A
ENDBRANCH  12  14
ENDBRANCH  11  12
ENDBRANCH   1  11
BRANCH   1  17
HETATM   17  N3  UNL     1      -0.815   4.061  84.060  1.00  0.00    -0.333 N
ATOM     18  H3  UNL     1      -0.328   3.791  83.205  1.00  0.00     0.168 HD
BRANCH  17  19
HETATM   19  C12 UNL     1      -1.025   3.062  85.037  1.00  0.00     0.353 C
HETATM   20  O2  UNL     1      -0.321   3.092  86.088  1.00  0.00    -0.283 OA
ENDBRANCH  17  19
ENDBRANCH   1  17
TORSDOF 8
ENDMDL