MODEL 2
REMARK VINA RESULT: -6.805977006      0.962      1.075
REMARK  6 active torsions:
REMARK  status: ('A' for Active; 'I' for Inactive)
REMARK    1  A    between atoms: C2_2  and  C3_3
REMARK    2  A    between atoms: C2_2  and  N2_12
REMARK    3  A    between atoms: C3_3  and  C4_4
REMARK    4  A    between atoms: C4_4  and  N1_5
REMARK       I    between atoms: N1_5  and  C5_7
REMARK    5  A    between atoms: C5_7  and  C6_9
REMARK       I    between atoms: N2_12  and  C9_14
REMARK    6  A    between atoms: C9_14  and  C10_16
ROOT
HETATM    1  C1  UNL     1      -1.469   4.467  81.183  1.00  0.00     0.032 C
HETATM    2  C2  UNL     1      -0.646   5.180  82.240  1.00  0.00     0.081 C
ENDROOT
BRANCH   2   3
HETATM    3  C3  UNL     1      -1.501   5.613  83.410  1.00  0.00     0.044 C
BRANCH   3   4
HETATM    4  C4  UNL     1      -0.732   5.666  84.689  1.00  0.00     0.124 C
BRANCH   4   5
HETATM    5  N1  UNL     1      -1.602   5.281  85.787  1.00  0.00    -0.361 N
HETATM    6  C5  UNL     1      -1.367   4.064  86.470  1.00  0.00     0.221 C
HETATM    7  O1  UNL     1      -0.418   3.326  86.135  1.00  0.00    -0.273 OA
ATOM      8  H1  UNL     1      -2.378   5.884  86.062  1.00  0.00     0.162 HD
BRANCH   6   9
HETATM    9  C6  UNL     1      -2.246   3.672  87.582  1.00  0.00     0.078 A
HETATM   10  C7  UNL     1      -3.738   3.682  87.192  1.00  0.00     0.015 A
HETATM   11  C8  UNL     1      -3.184   4.640  88.201  1.00  0.00     0.015 A
ENDBRANCH   6   9
ENDBRANCH   4   5
ENDBRANCH   3   4
ENDBRANCH   2   3
BRANCH   2  12
HETATM   12  N2  UNL     1       0.101   6.280  81.704  1.00  0.00    -0.355 N
HETATM   13  C9  UNL     1       1.515   6.338  81.665  1.00  0.00     0.251 C
HETATM   14  O2  UNL     1       2.154   5.366  82.129  1.00  0.00    -0.271 OA
ATOM     15  H2  UNL     1      -0.419   7.071  81.328  1.00  0.00     0.162 HD
BRANCH  13  16
HETATM   16  C10 UNL     1       2.236   7.489  81.105  1.00  0.00     0.315 C
HETATM   17  C11 UNL     1       1.698   8.845  81.440  1.00  0.00     0.076 C
HETATM   18  C12 UNL     1       2.628   8.737  82.632  1.00  0.00     0.275 C
HETATM   19  N3  UNL     1       3.442   7.837  81.834  1.00  0.00     0.098 N
HETATM   20  C13 UNL     1       4.331   8.601  80.984  1.00  0.00     0.310 C
ENDBRANCH  13  16
ENDBRANCH   2  12
TORSDOF 6
ENDMDL