MODEL 3
REMARK VINA RESULT: -5.718842382      1.795      2.561
REMARK  6 active torsions:
REMARK  status: ('A' for Active; 'I' for Inactive)
REMARK    1  A    between atoms: C2_2  and  O1_3
REMARK    2  A    between atoms: C2_2  and  C3_5
REMARK    3  A    between atoms: C3_5  and  N1_7
REMARK    4  A    between atoms: S1_14  and  C8_15
REMARK    5  A    between atoms: C8_15  and  C9_16
REMARK    6  A    between atoms: C9_16  and  N3_17
ROOT
HETATM    1  N1  UNL     1      -1.516   5.426  85.738  1.00  0.00    -0.365 N
ATOM      2  H1  UNL     1      -2.509   5.656  85.708  1.00  0.00     0.162 HD
HETATM    3  C5  UNL     1      -0.728   6.314  85.295  1.00  0.00     0.126 C
HETATM    4  N2  UNL     1       0.681   6.282  85.209  1.00  0.00    -0.371 N
ATOM      5  H2  UNL     1       1.265   5.629  85.733  1.00  0.00     0.161 HD
HETATM    6  C6  UNL     1       1.201   7.261  84.311  1.00  0.00     0.131 C
HETATM    7  C7  UNL     1       0.448   8.571  84.555  1.00  0.00     0.091 C
HETATM    8  S1  UNL     1      -1.214   7.863  84.653  1.00  0.00    -0.150 SA
ENDROOT
BRANCH   1   9
HETATM    9  C3  UNL     1      -1.189   4.142  86.276  1.00  0.00     0.107 C
HETATM   10  C4  UNL     1      -1.103   3.138  85.172  1.00  0.00     0.035 C
BRANCH   9  11
HETATM   11  C2  UNL     1      -2.296   3.701  87.207  1.00  0.00     0.136 C
HETATM   12  C1  UNL     1      -3.597   4.365  86.803  1.00  0.00     0.041 C
BRANCH  11  13
HETATM   13  O1  UNL     1      -2.503   2.324  87.131  1.00  0.00    -0.394 OA
ATOM     14  H1  UNL     1      -1.660   1.928  86.947  1.00  0.00     0.210 HD
ENDBRANCH  11  13
ENDBRANCH   9  11
ENDBRANCH   1   9
BRANCH   8  15
HETATM   15  C8  UNL     1      -1.736   7.624  82.971  1.00  0.00     0.101 C
BRANCH  15  16
HETATM   16  C9  UNL     1      -1.343   8.827  82.156  1.00  0.00     0.281 C
BRANCH  16  17
HETATM   17  N3  UNL     1      -0.688   8.446  80.924  1.00  0.00     0.080 N
HETATM   18  C10 UNL     1       0.635   9.036  80.820  1.00  0.00     0.309 C
HETATM   19  C11 UNL     1      -0.509   7.009  80.826  1.00  0.00     0.309 C
ENDBRANCH  16  17
ENDBRANCH  15  16
ENDBRANCH   8  15
TORSDOF 6
ENDMDL