MODEL 4
REMARK VINA RESULT: -5.080935934      3.848      6.278
REMARK  9 active torsions:
REMARK  status: ('A' for Active; 'I' for Inactive)
REMARK    1  A    between atoms: C3_3  and  N1_4
REMARK    2  A    between atoms: N1_4  and  C6_7
REMARK    3  A    between atoms: C6_7  and  C7_8
REMARK    4  A    between atoms: C7_8  and  O1_9
REMARK    5  A    between atoms: C7_8  and  C8_11
REMARK    6  A    between atoms: C8_11  and  C9_12
REMARK    7  A    between atoms: C9_12  and  O2_13
REMARK    8  A    between atoms: C9_12  and  C10_15
REMARK    9  A    between atoms: C10_15  and  S1_16
ROOT
HETATM    1  C1  UNL     1       1.868  11.195  85.644  1.00  0.00     0.113 C
HETATM    2  C2  UNL     1       1.541  10.376  84.465  1.00  0.00    -0.081 C
HETATM    3  C3  UNL     1       1.279   9.688  83.509  1.00  0.00     0.115 C
ENDROOT
BRANCH   3   4
HETATM    4  N1  UNL     1       0.975   8.859  82.399  1.00  0.00    -0.008 N
HETATM    5  C4  UNL     1       1.407   9.631  81.223  1.00  0.00     0.290 C
HETATM    6  C5  UNL     1       1.800   7.684  82.444  1.00  0.00     0.290 C
BRANCH   4   7
HETATM    7  C6  UNL     1      -0.424   8.613  82.386  1.00  0.00     0.284 C
BRANCH   7   8
HETATM    8  C7  UNL     1      -0.811   7.268  82.955  1.00  0.00     0.147 C
BRANCH   8   9
HETATM    9  O1  UNL     1      -1.531   6.493  82.067  1.00  0.00    -0.394 OA
ATOM     10  H1  UNL     1      -2.213   5.984  82.487  1.00  0.00     0.210 HD
ENDBRANCH   8   9
BRANCH   8  11
HETATM   11  C8  UNL     1      -1.649   7.450  84.194  1.00  0.00     0.066 C
BRANCH  11  12
HETATM   12  C9  UNL     1      -1.178   6.444  85.237  1.00  0.00     0.132 C
BRANCH  12  13
HETATM   13  O2  UNL     1       0.057   5.915  84.919  1.00  0.00    -0.395 OA
ATOM     14  H2  UNL     1       0.563   5.709  85.696  1.00  0.00     0.210 HD
ENDBRANCH  12  13
BRANCH  12  15
HETATM   15  C10 UNL     1      -2.150   5.291  85.358  1.00  0.00     0.139 C
BRANCH  15  16
HETATM   16  S1  UNL     1      -1.578   4.214  86.637  1.00  0.00     0.013 S
HETATM   17  C11 UNL     1      -2.863   3.253  87.356  1.00  0.00     0.127 C
HETATM   18  O3  UNL     1      -0.289   3.280  86.142  1.00  0.00    -0.258 OA
ENDBRANCH  15  16
ENDBRANCH  12  15
ENDBRANCH  11  12
ENDBRANCH   8  11
ENDBRANCH   7   8
ENDBRANCH   4   7
ENDBRANCH   3   4
TORSDOF 9
ENDMDL